@<TRIPOS>MOLECULE
*****
 43 45 0 0 0
SMALL
GASTEIGER

@<TRIPOS>ATOM
      1 P          22.6649   71.3627   -2.4009 P.3     1  UNL1        0.2189
      2 O          22.0270   72.8213   -2.6887 O.co2   1  UNL1       -0.4371
      3 O          23.8889   71.0364   -3.2050 O.2     1  UNL1       -0.5170
      4 O          21.4157   70.3502   -2.5803 O.3     1  UNL1       -0.3112
      5 C          20.7194   70.3475   -3.8144 C.3     1  UNL1        0.1811
      6 O          18.8814   71.5428   -4.7975 O.3     1  UNL1       -0.3308
      7 O          17.1899   70.3525   -2.6265 O.3     1  UNL1       -0.3794
      8 O          16.6022   68.7738   -4.7709 O.3     1  UNL1       -0.3779
      9 C          18.2872   69.7767   -3.3334 C.3     1  UNL1        0.1713
     10 C          17.8679   69.4013   -4.7395 C.3     1  UNL1        0.1895
     11 C          19.3097   70.8768   -3.5895 C.3     1  UNL1        0.1764
     12 C          17.8695   70.7497   -5.4394 C.3     1  UNL1        0.2383
     13 H          16.5238   69.6688   -2.4512 H       1  UNL1        0.2105
     14 H          16.6529   67.9201   -4.3133 H       1  UNL1        0.2106
     15 O          15.9597   70.2711   -7.4645 O.2     1  UNL1       -0.2464
     16 O          19.1727   70.3501  -10.7677 O.2     1  UNL1       -0.2670
     17 N          18.1793   70.6409   -6.8371 N.ar    1  UNL1       -0.2551
     18 N          17.5611   70.3110   -9.1076 N.ar    1  UNL1       -0.2743
     19 C          17.1465   70.3983   -7.7725 C.ar    1  UNL1        0.3323
     20 C          19.4947   70.7748   -7.2678 C.ar    1  UNL1        0.0869
     21 C          19.8737   70.6875   -8.5445 C.ar    1  UNL1        0.0795
     22 C          18.8561   70.4357   -9.5852 C.ar    1  UNL1        0.2626
     23 H          16.8588   70.1421   -9.7770 H       1  UNL1        0.1734
     24 O          22.8949   71.3760   -0.8009 O.3     1  UNL1       -0.2703
     25 P          21.8629   71.6259    0.4179 P.3     1  UNL1        0.2208
     26 O          21.7879   70.1814    1.1427 O.co2   1  UNL1       -0.4371
     27 O          20.5318   72.1760   -0.0059 O.2     1  UNL1       -0.5170
     28 O          22.6736   72.5605    1.4544 O.3     1  UNL1       -0.2858
     29 O          24.2600   72.4426    3.2111 O.3     1  UNL1       -0.3258
     30 O          21.1892   74.3348    5.2212 O.3     1  UNL1       -0.3794
     31 O          23.5398   75.8197    4.5016 O.3     1  UNL1       -0.3794
     32 O          20.5916   72.2449    3.3094 O.3     1  UNL1       -0.3775
     33 C          22.0121   74.0252    4.0932 C.3     1  UNL1        0.1715
     34 C          23.4556   74.3988    4.4357 C.3     1  UNL1        0.1694
     35 C          21.9008   72.5324    3.7889 C.3     1  UNL1        0.1967
     36 C          24.4330   73.8537    3.3856 C.3     1  UNL1        0.1761
     37 C          22.9492   72.0842    2.7691 C.3     1  UNL1        0.2704
     38 H          21.2549   75.2813    5.4194 H       1  UNL1        0.2105
     39 H          22.9174   76.1511    5.1679 H       1  UNL1        0.2105
     40 H          19.9372   72.5331    3.9640 H       1  UNL1        0.2106
     41 O          25.9275   74.4218    5.1612 O.3     1  UNL1       -0.3794
     42 C          25.8889   74.0782    3.7883 C.3     1  UNL1        0.1693
     43 H          26.8481   74.5673    5.4317 H       1  UNL1        0.2105
@<TRIPOS>UNITY_ATOM_ATTR
2 1
charge -1
26 1
charge -1
@<TRIPOS>BOND
     1    25    28    1
     2    25    24    1
     3    25    26    1
     4    25    27    2
     5     1     4    1
     6     1    24    1
     7     1     2    1
     8     1     3    2
     9     6    11    1
    10     6    12    1
    11    29    36    1
    12    29    37    1
    13     7     9    1
    14     7    13    1
    15     8    10    1
    16     8    14    1
    17    28    37    1
    18     4     5    1
    19    30    33    1
    20    30    38    1
    21    31    34    1
    22    31    39    1
    23    32    35    1
    24    32    40    1
    25    41    42    1
    26    41    43    1
    27    15    19    2
    28    16    22    2
    29    17    12    1
    30    17    19   ar
    31    17    20   ar
    32    18    19   ar
    33    18    22   ar
    34    18    23    1
    35     9    10    1
    36     9    11    1
    37    10    12    1
    38    11     5    1
    39    33    34    1
    40    33    35    1
    41    34    36    1
    42    35    37    1
    43    36    42    1
    44    20    21   ar
    45    21    22   ar
@<TRIPOS>MOLECULE
*****
 43 45 0 0 0
SMALL
GASTEIGER

@<TRIPOS>ATOM
      1 P          22.3932   71.3879   -2.7918 P.3     1  UNL1        0.2189
      2 O          22.5838   72.9863   -2.6300 O.co2   1  UNL1       -0.4371
      3 O          23.6326   70.6383   -3.1836 O.2     1  UNL1       -0.5170
      4 O          21.1377   71.2468   -3.8027 O.3     1  UNL1       -0.3112
      5 C          20.2403   70.1656   -3.6194 C.3     1  UNL1        0.1811
      6 O          18.5067   71.4307   -4.7001 O.3     1  UNL1       -0.3308
      7 O          16.6267   70.1927   -2.7193 O.3     1  UNL1       -0.3794
      8 O          16.1898   68.7057   -4.9631 O.3     1  UNL1       -0.3779
      9 C          17.7684   69.6230   -3.3575 C.3     1  UNL1        0.1713
     10 C          17.4585   69.3078   -4.8060 C.3     1  UNL1        0.1895
     11 C          18.8254   70.7125   -3.4881 C.3     1  UNL1        0.1764
     12 C          17.5379   70.6810   -5.4511 C.3     1  UNL1        0.2383
     13 H          15.9380   69.5155   -2.6244 H       1  UNL1        0.2105
     14 H          16.1899   67.8349   -4.5359 H       1  UNL1        0.2106
     15 O          15.7991   70.2475   -7.6344 O.2     1  UNL1       -0.2464
     16 O          19.2611   70.4582  -10.6694 O.2     1  UNL1       -0.2670
     17 N          17.9579   70.6183   -6.8226 N.ar    1  UNL1       -0.2551
     18 N          17.5243   70.3530   -9.1438 N.ar    1  UNL1       -0.2743
     19 C          17.0049   70.3952   -7.8437 C.ar    1  UNL1        0.3323
     20 C          19.3016   70.7776   -7.1438 C.ar    1  UNL1        0.0869
     21 C          19.7809   70.7334   -8.3886 C.ar    1  UNL1        0.0795
     22 C          18.8514   70.5043   -9.5136 C.ar    1  UNL1        0.2626
     23 H          16.8790   70.1983   -9.8714 H       1  UNL1        0.1734
     24 O          21.7644   70.9508   -1.3683 O.3     1  UNL1       -0.2703
     25 P          21.9442   71.5801    0.1098 P.3     1  UNL1        0.2208
     26 O          21.5984   70.3376    1.0866 O.co2   1  UNL1       -0.4371
     27 O          21.1218   72.8111    0.3587 O.2     1  UNL1       -0.5170
     28 O          23.5357   71.7949    0.2714 O.3     1  UNL1       -0.2858
     29 O          23.3999   73.9176    1.3167 O.3     1  UNL1       -0.3258
     30 O          22.4919   71.5265    4.5584 O.3     1  UNL1       -0.3794
     31 O          20.4202   73.0827    3.3199 O.3     1  UNL1       -0.3794
     32 O          24.5035   70.6787    2.6573 O.3     1  UNL1       -0.3775
     33 C          22.4970   71.9047    3.1792 C.3     1  UNL1        0.1715
     34 C          21.8078   73.2647    3.0523 C.3     1  UNL1        0.1694
     35 C          23.9416   71.9862    2.6893 C.3     1  UNL1        0.1967
     36 C          22.0085   73.8589    1.6517 C.3     1  UNL1        0.1761
     37 C          24.0337   72.6369    1.3079 C.3     1  UNL1        0.2704
     38 H          21.5776   71.4724    4.8755 H       1  UNL1        0.2105
     39 H          20.3073   72.7065    4.2070 H       1  UNL1        0.2105
     40 H          24.4394   70.2776    3.5376 H       1  UNL1        0.2106
     41 O          22.2694   76.1282    2.3527 O.3     1  UNL1       -0.3794
     42 C          21.4651   75.2826    1.5512 C.3     1  UNL1        0.1693
     43 H          21.9355   77.0377    2.2982 H       1  UNL1        0.2105
@<TRIPOS>UNITY_ATOM_ATTR
2 1
charge -1
26 1
charge -1
@<TRIPOS>BOND
     1    25    28    1
     2    25    24    1
     3    25    26    1
     4    25    27    2
     5     1     4    1
     6     1    24    1
     7     1     2    1
     8     1     3    2
     9     6    11    1
    10     6    12    1
    11    29    36    1
    12    29    37    1
    13     7     9    1
    14     7    13    1
    15     8    10    1
    16     8    14    1
    17    28    37    1
    18     4     5    1
    19    30    33    1
    20    30    38    1
    21    31    34    1
    22    31    39    1
    23    32    35    1
    24    32    40    1
    25    41    42    1
    26    41    43    1
    27    15    19    2
    28    16    22    2
    29    17    12    1
    30    17    19   ar
    31    17    20   ar
    32    18    19   ar
    33    18    22   ar
    34    18    23    1
    35     9    10    1
    36     9    11    1
    37    10    12    1
    38    11     5    1
    39    33    34    1
    40    33    35    1
    41    34    36    1
    42    35    37    1
    43    36    42    1
    44    20    21   ar
    45    21    22   ar
@<TRIPOS>MOLECULE
*****
 43 45 0 0 0
SMALL
GASTEIGER

@<TRIPOS>ATOM
      1 P          22.4027   71.4529   -2.9256 P.3     1  UNL1        0.2189
      2 O          22.1357   73.0352   -2.7192 O.co2   1  UNL1       -0.4371
      3 O          23.8281   71.0829   -3.2129 O.2     1  UNL1       -0.5170
      4 O          21.3240   71.0207   -4.0515 O.3     1  UNL1       -0.3112
      5 C          20.3582   70.0380   -3.7205 C.3     1  UNL1        0.1811
      6 O          18.7110   71.4470   -4.7573 O.3     1  UNL1       -0.3308
      7 O          16.7941   70.3995   -2.7033 O.3     1  UNL1       -0.3794
      8 O          16.1497   68.9415   -4.9159 O.3     1  UNL1       -0.3779
      9 C          17.8576   69.7238   -3.3724 C.3     1  UNL1        0.1713
     10 C          17.4722   69.4272   -4.8066 C.3     1  UNL1        0.1895
     11 C          19.0038   70.7119   -3.5489 C.3     1  UNL1        0.1764
     12 C          17.6537   70.7826   -5.4684 C.3     1  UNL1        0.2383
     13 H          16.0505   69.7883   -2.5789 H       1  UNL1        0.2105
     14 H          16.0854   68.0775   -4.4799 H       1  UNL1        0.2106
     15 O          15.8128   70.4562   -7.5857 O.2     1  UNL1       -0.2464
     16 O          19.1741   70.3672  -10.7377 O.2     1  UNL1       -0.2670
     17 N          18.0202   70.6718   -6.8522 N.ar    1  UNL1       -0.2551
     18 N          17.4880   70.4123   -9.1534 N.ar    1  UNL1       -0.2743
     19 C          17.0185   70.5094   -7.8373 C.ar    1  UNL1        0.3323
     20 C          19.3602   70.7247   -7.2205 C.ar    1  UNL1        0.0869
     21 C          19.7915   70.6293   -8.4799 C.ar    1  UNL1        0.0795
     22 C          18.8091   70.4580   -9.5696 C.ar    1  UNL1        0.2626
     23 H          16.8081   70.2984   -9.8566 H       1  UNL1        0.1734
     24 O          21.7981   70.8031   -1.5747 O.3     1  UNL1       -0.2703
     25 P          22.1541   71.0640   -0.0197 P.3     1  UNL1        0.2208
     26 O          23.7435   71.3648   -0.0483 O.co2   1  UNL1       -0.4371
     27 O          21.7516   69.9474    0.8996 O.2     1  UNL1       -0.5170
     28 O          21.4758   72.4884    0.3212 O.3     1  UNL1       -0.2858
     29 O          21.0320   72.1942    2.6306 O.3     1  UNL1       -0.3258
     30 O          20.1160   76.2061    2.2884 O.3     1  UNL1       -0.3794
     31 O          22.5216   75.4112    3.6410 O.3     1  UNL1       -0.3794
     32 O          19.4057   74.3762    0.1609 O.3     1  UNL1       -0.3775
     33 C          20.8335   75.0039    1.9962 C.3     1  UNL1        0.1715
     34 C          21.4799   74.5047    3.2900 C.3     1  UNL1        0.1694
     35 C          19.8605   73.9633    1.4451 C.3     1  UNL1        0.1967
     36 C          22.0410   73.0867    3.1177 C.3     1  UNL1        0.1761
     37 C          20.5037   72.5780    1.3596 C.3     1  UNL1        0.2704
     38 H          20.7282   76.8711    2.6384 H       1  UNL1        0.2105
     39 H          22.1541   76.3029    3.7463 H       1  UNL1        0.2105
     40 H          19.0003   75.2543    0.2285 H       1  UNL1        0.2106
     41 O          21.8289   73.1088    5.4975 O.3     1  UNL1       -0.3794
     42 C          22.5490   72.5085    4.4366 C.3     1  UNL1        0.1693
     43 H          22.1414   72.7501    6.3433 H       1  UNL1        0.2105
@<TRIPOS>UNITY_ATOM_ATTR
2 1
charge -1
26 1
charge -1
@<TRIPOS>BOND
     1    25    28    1
     2    25    24    1
     3    25    26    1
     4    25    27    2
     5     1     4    1
     6     1    24    1
     7     1     2    1
     8     1     3    2
     9     6    11    1
    10     6    12    1
    11    29    36    1
    12    29    37    1
    13     7     9    1
    14     7    13    1
    15     8    10    1
    16     8    14    1
    17    28    37    1
    18     4     5    1
    19    30    33    1
    20    30    38    1
    21    31    34    1
    22    31    39    1
    23    32    35    1
    24    32    40    1
    25    41    42    1
    26    41    43    1
    27    15    19    2
    28    16    22    2
    29    17    12    1
    30    17    19   ar
    31    17    20   ar
    32    18    19   ar
    33    18    22   ar
    34    18    23    1
    35     9    10    1
    36     9    11    1
    37    10    12    1
    38    11     5    1
    39    33    34    1
    40    33    35    1
    41    34    36    1
    42    35    37    1
    43    36    42    1
    44    20    21   ar
    45    21    22   ar
@<TRIPOS>MOLECULE
*****
 43 45 0 0 0
SMALL
GASTEIGER

@<TRIPOS>ATOM
      1 P          23.0752   71.4652   -2.5837 P.3     1  UNL1        0.2189
      2 O          23.1065   73.0357   -2.1963 O.co2   1  UNL1       -0.4371
      3 O          24.3845   70.9018   -3.0525 O.2     1  UNL1       -0.5170
      4 O          21.8452   71.3474   -3.6284 O.3     1  UNL1       -0.3112
      5 C          21.6657   72.3811   -4.5807 C.3     1  UNL1        0.1811
      6 O          20.6337   70.5861   -5.8002 O.3     1  UNL1       -0.3308
      7 O          21.0501   72.2617   -8.2516 O.3     1  UNL1       -0.3794
      8 O          18.4129   72.6725   -7.6917 O.3     1  UNL1       -0.3779
      9 C          20.7202   72.6701   -6.9251 C.3     1  UNL1        0.1713
     10 C          19.2730   72.3450   -6.6194 C.3     1  UNL1        0.1895
     11 C          21.4625   71.7589   -5.9554 C.3     1  UNL1        0.1764
     12 C          19.3348   70.8503   -6.3550 C.3     1  UNL1        0.2383
     13 H          20.5879   72.8295   -8.8888 H       1  UNL1        0.2105
     14 H          18.4078   73.6338   -7.8203 H       1  UNL1        0.2106
     15 O          16.7407   70.0005   -7.0807 O.2     1  UNL1       -0.2464
     16 O          15.5729   69.2119   -2.6926 O.2     1  UNL1       -0.2670
     17 N          18.3326   70.4171   -5.4226 N.ar    1  UNL1       -0.2551
     18 N          16.1614   69.6083   -4.8952 N.ar    1  UNL1       -0.2743
     19 C          17.0610   70.0113   -5.8903 C.ar    1  UNL1        0.3323
     20 C          18.6151   70.3973   -4.0611 C.ar    1  UNL1        0.0869
     21 C          17.7457   70.0115   -3.1248 C.ar    1  UNL1        0.0795
     22 C          16.3947   69.5723   -3.5296 C.ar    1  UNL1        0.2626
     23 H          15.2691   69.3217   -5.1976 H       1  UNL1        0.1734
     24 O          22.4847   70.7730   -1.2477 O.3     1  UNL1       -0.2703
     25 P          21.8383   71.4190    0.0857 P.3     1  UNL1        0.2208
     26 O          21.4230   70.1237    0.9617 O.co2   1  UNL1       -0.4371
     27 O          20.7115   72.3754   -0.1779 O.2     1  UNL1       -0.5170
     28 O          23.0900   72.0616    0.8764 O.3     1  UNL1       -0.2858
     29 O          24.5904   71.5558    2.6398 O.3     1  UNL1       -0.3258
     30 O          23.1337   75.1620    4.0269 O.3     1  UNL1       -0.3794
     31 O          25.8130   75.0144    3.0033 O.3     1  UNL1       -0.3794
     32 O          21.3563   73.2999    2.7028 O.3     1  UNL1       -0.3775
     33 C          23.5563   74.2223    3.0350 C.3     1  UNL1        0.1715
     34 C          25.0206   73.8686    3.3026 C.3     1  UNL1        0.1694
     35 C          22.6776   72.9758    3.1218 C.3     1  UNL1        0.1967
     36 C          25.4665   72.6731    2.4500 C.3     1  UNL1        0.1761
     37 C          23.2364   71.8308    2.2752 C.3     1  UNL1        0.2704
     38 H          23.6873   75.9560    3.9768 H       1  UNL1        0.2105
     39 H          25.5210   75.7622    3.5480 H       1  UNL1        0.2105
     40 H          21.0137   74.0258    3.2466 H       1  UNL1        0.2106
     41 O          26.9941   70.8360    2.4695 O.3     1  UNL1       -0.3794
     42 C          26.8733   72.2038    2.8143 C.3     1  UNL1        0.1693
     43 H          27.8846   70.5236    2.6955 H       1  UNL1        0.2105
@<TRIPOS>UNITY_ATOM_ATTR
2 1
charge -1
26 1
charge -1
@<TRIPOS>BOND
     1    25    28    1
     2    25    24    1
     3    25    26    1
     4    25    27    2
     5     1     4    1
     6     1    24    1
     7     1     2    1
     8     1     3    2
     9     6    11    1
    10     6    12    1
    11    29    36    1
    12    29    37    1
    13     7     9    1
    14     7    13    1
    15     8    10    1
    16     8    14    1
    17    28    37    1
    18     4     5    1
    19    30    33    1
    20    30    38    1
    21    31    34    1
    22    31    39    1
    23    32    35    1
    24    32    40    1
    25    41    42    1
    26    41    43    1
    27    15    19    2
    28    16    22    2
    29    17    12    1
    30    17    19   ar
    31    17    20   ar
    32    18    19   ar
    33    18    22   ar
    34    18    23    1
    35     9    10    1
    36     9    11    1
    37    10    12    1
    38    11     5    1
    39    33    34    1
    40    33    35    1
    41    34    36    1
    42    35    37    1
    43    36    42    1
    44    20    21   ar
    45    21    22   ar
@<TRIPOS>MOLECULE
*****
 43 45 0 0 0
SMALL
GASTEIGER

@<TRIPOS>ATOM
      1 P          20.6478   70.6057   -3.5927 P.3     1  UNL1        0.2189
      2 O          21.2581   71.5520   -4.7544 O.co2   1  UNL1       -0.4371
      3 O          20.3857   69.1866   -4.0037 O.2     1  UNL1       -0.5170
      4 O          19.3637   71.4301   -3.0549 O.3     1  UNL1       -0.3112
      5 C          18.7720   72.3931   -3.9096 C.3     1  UNL1        0.1811
      6 O          16.9759   72.1609   -5.4887 O.3     1  UNL1       -0.3308
      7 O          15.5565   70.5966   -3.3606 O.3     1  UNL1       -0.3794
      8 O          16.5215   68.6379   -4.9942 O.3     1  UNL1       -0.3779
      9 C          16.9474   70.6355   -3.6754 C.3     1  UNL1        0.1713
     10 C          17.2196   69.8657   -4.9509 C.3     1  UNL1        0.1895
     11 C          17.2963   72.0613   -4.0838 C.3     1  UNL1        0.1764
     12 C          16.7501   70.8430   -6.0151 C.3     1  UNL1        0.2383
     13 H          15.3100   69.6958   -3.0965 H       1  UNL1        0.2105
     14 H          16.8562   68.0508   -4.2985 H       1  UNL1        0.2106
     15 O          15.5480   70.6918   -8.5666 O.2     1  UNL1       -0.2464
     16 O          19.6309   70.3014  -10.6688 O.2     1  UNL1       -0.2670
     17 N          17.4752   70.7021   -7.2463 N.ar    1  UNL1       -0.2551
     18 N          17.5820   70.4977   -9.6113 N.ar    1  UNL1       -0.2743
     19 C          16.7760   70.6346   -8.4739 C.ar    1  UNL1        0.3323
     20 C          18.8640   70.6326   -7.2286 C.ar    1  UNL1        0.0869
     21 C          19.6178   70.5007   -8.3220 C.ar    1  UNL1        0.0795
     22 C          18.9654   70.4228   -9.6449 C.ar    1  UNL1        0.2626
     23 H          17.1167   70.4482  -10.4778 H       1  UNL1        0.1734
     24 O          21.7156   70.7716   -2.3905 O.3     1  UNL1       -0.2703
     25 P          23.1035   71.5963   -2.3097 P.3     1  UNL1        0.2208
     26 O          22.7386   73.0067   -3.0133 O.co2   1  UNL1       -0.4371
     27 O          24.2777   70.8859   -2.9185 O.2     1  UNL1       -0.5170
     28 O          23.2758   71.9538   -0.7452 O.3     1  UNL1       -0.2858
     29 O          24.5364   70.9561    0.9961 O.3     1  UNL1       -0.3258
     30 O          21.0819   71.8126    3.0898 O.3     1  UNL1       -0.3794
     31 O          23.4534   73.3585    3.5737 O.3     1  UNL1       -0.3794
     32 O          20.9193   70.8938    0.3495 O.3     1  UNL1       -0.3775
     33 C          22.1013   72.0340    2.1114 C.3     1  UNL1        0.1715
     34 C          23.4453   72.1402    2.8347 C.3     1  UNL1        0.1694
     35 C          22.1111   70.8656    1.1275 C.3     1  UNL1        0.1967
     36 C          24.6135   72.1108    1.8400 C.3     1  UNL1        0.1761
     37 C          23.3397   70.9042    0.2169 C.3     1  UNL1        0.2704
     38 H          21.0700   72.5512    3.7173 H       1  UNL1        0.2105
     39 H          22.7106   73.3645    4.1977 H       1  UNL1        0.2105
     40 H          20.1489   70.8686    0.9374 H       1  UNL1        0.2106
     41 O          26.5898   70.8261    2.2307 O.3     1  UNL1       -0.3794
     42 C          25.9658   72.0567    2.5475 C.3     1  UNL1        0.1693
     43 H          27.4518   70.7778    2.6739 H       1  UNL1        0.2105
@<TRIPOS>UNITY_ATOM_ATTR
2 1
charge -1
26 1
charge -1
@<TRIPOS>BOND
     1    25    28    1
     2    25    24    1
     3    25    26    1
     4    25    27    2
     5     1     4    1
     6     1    24    1
     7     1     2    1
     8     1     3    2
     9     6    11    1
    10     6    12    1
    11    29    36    1
    12    29    37    1
    13     7     9    1
    14     7    13    1
    15     8    10    1
    16     8    14    1
    17    28    37    1
    18     4     5    1
    19    30    33    1
    20    30    38    1
    21    31    34    1
    22    31    39    1
    23    32    35    1
    24    32    40    1
    25    41    42    1
    26    41    43    1
    27    15    19    2
    28    16    22    2
    29    17    12    1
    30    17    19   ar
    31    17    20   ar
    32    18    19   ar
    33    18    22   ar
    34    18    23    1
    35     9    10    1
    36     9    11    1
    37    10    12    1
    38    11     5    1
    39    33    34    1
    40    33    35    1
    41    34    36    1
    42    35    37    1
    43    36    42    1
    44    20    21   ar
    45    21    22   ar
@<TRIPOS>MOLECULE
*****
 43 45 0 0 0
SMALL
GASTEIGER

@<TRIPOS>ATOM
      1 P          22.8953   71.6137   -2.7565 P.3     1  UNL1        0.2189
      2 O          23.1155   73.2164   -2.7376 O.co2   1  UNL1       -0.4371
      3 O          24.1439   70.8046   -2.9508 O.2     1  UNL1       -0.5170
      4 O          21.7362   71.3939   -3.8638 O.3     1  UNL1       -0.3112
      5 C          21.5827   72.3653   -4.8839 C.3     1  UNL1        0.1811
      6 O          20.5583   70.4834   -5.9715 O.3     1  UNL1       -0.3308
      7 O          20.9011   72.0125   -8.5280 O.3     1  UNL1       -0.3794
      8 O          18.2684   72.4158   -7.9426 O.3     1  UNL1       -0.3779
      9 C          20.5892   72.4959   -7.2225 C.3     1  UNL1        0.1713
     10 C          19.1535   72.1678   -6.8693 C.3     1  UNL1        0.1895
     11 C          21.3644   71.6572   -6.2140 C.3     1  UNL1        0.1764
     12 C          19.2451   70.6931   -6.5158 C.3     1  UNL1        0.2383
     13 H          20.4178   72.5331   -9.1893 H       1  UNL1        0.2105
     14 H          18.2448   73.3673   -8.1292 H       1  UNL1        0.2106
     15 O          16.6085   69.8879   -7.1308 O.2     1  UNL1       -0.2464
     16 O          15.5819   69.2169   -2.6881 O.2     1  UNL1       -0.2670
     17 N          18.2677   70.3022   -5.5394 N.ar    1  UNL1       -0.2551
     18 N          16.0996   69.5543   -4.9182 N.ar    1  UNL1       -0.2743
     19 C          16.9715   69.9160   -5.9530 C.ar    1  UNL1        0.3323
     20 C          18.5985   70.3042   -4.1887 C.ar    1  UNL1        0.0869
     21 C          17.7550   69.9577   -3.2141 C.ar    1  UNL1        0.0795
     22 C          16.3809   69.5411   -3.5612 C.ar    1  UNL1        0.2626
     23 H          15.1909   69.2819   -5.1825 H       1  UNL1        0.1734
     24 O          22.1240   71.3364   -1.3632 O.3     1  UNL1       -0.2703
     25 P          22.6849   71.1439    0.1406 P.3     1  UNL1        0.2208
     26 O          24.2342   70.7390   -0.0903 O.co2   1  UNL1       -0.4371
     27 O          21.9051   70.1630    0.9674 O.2     1  UNL1       -0.5170
     28 O          22.7404   72.6373    0.7501 O.3     1  UNL1       -0.2858
     29 O          23.7439   74.6921    0.1278 O.3     1  UNL1       -0.3258
     30 O          24.7675   74.6428    4.1279 O.3     1  UNL1       -0.3794
     31 O          22.7480   76.4635    3.2034 O.3     1  UNL1       -0.3794
     32 O          24.8038   72.1858    2.5977 O.3     1  UNL1       -0.3775
     33 C          23.9321   74.3960    2.9936 C.3     1  UNL1        0.1715
     34 C          23.6118   75.7382    2.3328 C.3     1  UNL1        0.1694
     35 C          24.6707   73.4798    2.0196 C.3     1  UNL1        0.1967
     36 C          22.9459   75.5372    0.9648 C.3     1  UNL1        0.1761
     37 C          23.9497   73.3877    0.6736 C.3     1  UNL1        0.2704
     38 H          24.3042   75.2235    4.7505 H       1  UNL1        0.2105
     39 H          23.1802   76.5831    4.0637 H       1  UNL1        0.2105
     40 H          25.2620   72.2577    3.4490 H       1  UNL1        0.2106
     41 O          21.3801   77.0414   -0.0326 O.3     1  UNL1       -0.3794
     42 C          22.7610   76.8571    0.2193 C.3     1  UNL1        0.1693
     43 H          21.2473   77.8778   -0.5064 H       1  UNL1        0.2105
@<TRIPOS>UNITY_ATOM_ATTR
2 1
charge -1
26 1
charge -1
@<TRIPOS>BOND
     1    25    28    1
     2    25    24    1
     3    25    26    1
     4    25    27    2
     5     1     4    1
     6     1    24    1
     7     1     2    1
     8     1     3    2
     9     6    11    1
    10     6    12    1
    11    29    36    1
    12    29    37    1
    13     7     9    1
    14     7    13    1
    15     8    10    1
    16     8    14    1
    17    28    37    1
    18     4     5    1
    19    30    33    1
    20    30    38    1
    21    31    34    1
    22    31    39    1
    23    32    35    1
    24    32    40    1
    25    41    42    1
    26    41    43    1
    27    15    19    2
    28    16    22    2
    29    17    12    1
    30    17    19   ar
    31    17    20   ar
    32    18    19   ar
    33    18    22   ar
    34    18    23    1
    35     9    10    1
    36     9    11    1
    37    10    12    1
    38    11     5    1
    39    33    34    1
    40    33    35    1
    41    34    36    1
    42    35    37    1
    43    36    42    1
    44    20    21   ar
    45    21    22   ar
@<TRIPOS>MOLECULE
*****
 43 45 0 0 0
SMALL
GASTEIGER

@<TRIPOS>ATOM
      1 P          23.4814   72.0309   -3.3240 P.3     1  UNL1        0.2189
      2 O          24.1430   72.9081   -4.5115 O.co2   1  UNL1       -0.4371
      3 O          24.1939   70.7479   -3.0113 O.2     1  UNL1       -0.5170
      4 O          21.9319   71.8843   -3.7664 O.3     1  UNL1       -0.3112
      5 C          21.4514   72.6947   -4.8247 C.3     1  UNL1        0.1811
      6 O          20.6514   70.6515   -5.8040 O.3     1  UNL1       -0.3308
      7 O          21.0699   71.9797   -8.4595 O.3     1  UNL1       -0.3794
      8 O          18.3785   72.2206   -8.0921 O.3     1  UNL1       -0.3779
      9 C          20.6274   72.5462   -7.2272 C.3     1  UNL1        0.1713
     10 C          19.1973   72.1361   -6.9435 C.3     1  UNL1        0.1895
     11 C          21.3850   71.8608   -6.0969 C.3     1  UNL1        0.1764
     12 C          19.3703   70.7088   -6.4525 C.3     1  UNL1        0.2383
     13 H          20.6002   72.4019   -9.1964 H       1  UNL1        0.2105
     14 H          18.2992   73.1478   -8.3653 H       1  UNL1        0.2106
     15 O          16.8161   69.7400   -7.1703 O.2     1  UNL1       -0.2464
     16 O          15.5533   69.2722   -2.7626 O.2     1  UNL1       -0.2670
     17 N          18.3545   70.3260   -5.5128 N.ar    1  UNL1       -0.2551
     18 N          16.1894   69.5077   -4.9750 N.ar    1  UNL1       -0.2743
     19 C          17.1051   69.8529   -5.9772 C.ar    1  UNL1        0.3323
     20 C          18.6020   70.4211   -4.1477 C.ar    1  UNL1        0.0869
     21 C          17.7177   70.0891   -3.2048 C.ar    1  UNL1        0.0795
     22 C          16.3880   69.5857   -3.6056 C.ar    1  UNL1        0.2626
     23 H          15.3121   69.1759   -5.2749 H       1  UNL1        0.1734
     24 O          23.4107   73.0780   -2.0946 O.3     1  UNL1       -0.2703
     25 P          23.1381   72.8474   -0.5181 P.3     1  UNL1        0.2208
     26 O          21.5541   72.5236   -0.4589 O.co2   1  UNL1       -0.4371
     27 O          23.5696   73.9903    0.3547 O.2     1  UNL1       -0.5170
     28 O          23.8546   71.4409   -0.1811 O.3     1  UNL1       -0.2858
     29 O          24.7600   71.7239    1.9907 O.3     1  UNL1       -0.3258
     30 O          20.7524   72.1610    2.8846 O.3     1  UNL1       -0.3794
     31 O          22.4726   74.4605    2.9222 O.3     1  UNL1       -0.3794
     32 O          21.5890   70.2052    0.9213 O.3     1  UNL1       -0.3775
     33 C          21.9299   72.2876    2.0827 C.3     1  UNL1        0.1715
     34 C          22.9518   73.1201    2.8594 C.3     1  UNL1        0.1694
     35 C          22.4842   70.8953    1.7867 C.3     1  UNL1        0.1967
     36 C          24.3296   73.0762    2.1849 C.3     1  UNL1        0.1761
     37 C          23.8788   70.9637    1.1617 C.3     1  UNL1        0.2704
     38 H          20.3951   73.0415    3.0757 H       1  UNL1        0.2105
     39 H          21.6018   74.4742    3.3497 H       1  UNL1        0.2105
     40 H          20.7099   70.1683    1.3284 H       1  UNL1        0.2106
     41 O          25.9397   74.8394    2.2723 O.3     1  UNL1       -0.3794
     42 C          25.4001   73.7688    3.0253 C.3     1  UNL1        0.1693
     43 H          26.6223   75.2897    2.7948 H       1  UNL1        0.2105
@<TRIPOS>UNITY_ATOM_ATTR
2 1
charge -1
26 1
charge -1
@<TRIPOS>BOND
     1    25    28    1
     2    25    24    1
     3    25    26    1
     4    25    27    2
     5     1     4    1
     6     1    24    1
     7     1     2    1
     8     1     3    2
     9     6    11    1
    10     6    12    1
    11    29    36    1
    12    29    37    1
    13     7     9    1
    14     7    13    1
    15     8    10    1
    16     8    14    1
    17    28    37    1
    18     4     5    1
    19    30    33    1
    20    30    38    1
    21    31    34    1
    22    31    39    1
    23    32    35    1
    24    32    40    1
    25    41    42    1
    26    41    43    1
    27    15    19    2
    28    16    22    2
    29    17    12    1
    30    17    19   ar
    31    17    20   ar
    32    18    19   ar
    33    18    22   ar
    34    18    23    1
    35     9    10    1
    36     9    11    1
    37    10    12    1
    38    11     5    1
    39    33    34    1
    40    33    35    1
    41    34    36    1
    42    35    37    1
    43    36    42    1
    44    20    21   ar
    45    21    22   ar
@<TRIPOS>MOLECULE
*****
 43 45 0 0 0
SMALL
GASTEIGER

@<TRIPOS>ATOM
      1 P          20.3021   71.1927   -1.4053 P.3     1  UNL1        0.2189
      2 O          20.8379   70.4620   -0.0651 O.co2   1  UNL1       -0.4371
      3 O          19.6949   72.5477   -1.1889 O.2     1  UNL1       -0.5170
      4 O          19.3348   70.0903   -2.0886 O.3     1  UNL1       -0.3112
      5 C          19.0444   70.2092   -3.4704 C.3     1  UNL1        0.1811
      6 O          17.4314   71.2939   -4.8830 O.3     1  UNL1       -0.3308
      7 O          15.3486   69.7633   -3.3631 O.3     1  UNL1       -0.3794
      8 O          15.5863   68.3193   -5.6642 O.3     1  UNL1       -0.3779
      9 C          16.6619   69.3608   -3.7486 C.3     1  UNL1        0.1713
     10 C          16.7066   69.0648   -5.2332 C.3     1  UNL1        0.1895
     11 C          17.5760   70.5748   -3.6387 C.3     1  UNL1        0.1764
     12 C          16.7455   70.4606   -5.8318 C.3     1  UNL1        0.2383
     13 H          14.7469   69.0043   -3.4249 H       1  UNL1        0.2105
     14 H          15.6067   67.4396   -5.2563 H       1  UNL1        0.2106
     15 O          15.4977   70.6020   -8.3617 O.2     1  UNL1       -0.2464
     16 O          19.5472   70.6080  -10.5623 O.2     1  UNL1       -0.2670
     17 N          17.4496   70.5008   -7.0824 N.ar    1  UNL1       -0.2551
     18 N          17.5150   70.6051   -9.4554 N.ar    1  UNL1       -0.2743
     19 C          16.7283   70.5704   -8.2970 C.ar    1  UNL1        0.3323
     20 C          18.8399   70.4715   -7.0962 C.ar    1  UNL1        0.0869
     21 C          19.5752   70.5039   -8.2095 C.ar    1  UNL1        0.0795
     22 C          18.8991   70.5769   -9.5208 C.ar    1  UNL1        0.2626
     23 H          17.0342   70.6533  -10.3135 H       1  UNL1        0.1734
     24 O          21.6005   71.1835   -2.3682 O.3     1  UNL1       -0.2703
     25 P          23.1386   71.5884   -2.0801 P.3     1  UNL1        0.2208
     26 O          23.1267   73.2016   -2.2024 O.co2   1  UNL1       -0.4371
     27 O          24.1325   70.9069   -2.9754 O.2     1  UNL1       -0.5170
     28 O          23.3489   71.3005   -0.5060 O.3     1  UNL1       -0.2858
     29 O          23.3072   73.4412    0.5100 O.3     1  UNL1       -0.3258
     30 O          23.8354   71.1199    3.8839 O.3     1  UNL1       -0.3794
     31 O          21.2933   72.3673    3.4048 O.3     1  UNL1       -0.3794
     32 O          25.1870   70.4180    1.4221 O.3     1  UNL1       -0.3775
     33 C          23.3336   71.4297    2.5809 C.3     1  UNL1        0.1715
     34 C          22.4785   72.6941    2.6845 C.3     1  UNL1        0.1694
     35 C          24.5104   71.6527    1.6328 C.3     1  UNL1        0.1967
     36 C          22.1256   73.2397    1.2942 C.3     1  UNL1        0.1761
     37 C          24.0554   72.2427    0.2968 C.3     1  UNL1        0.2704
     38 H          23.0932   70.9767    4.4906 H       1  UNL1        0.2105
     39 H          21.5301   72.0236    4.2806 H       1  UNL1        0.2105
     40 H          25.4702   70.0550    2.2753 H       1  UNL1        0.2106
     41 O          20.7243   74.8023    0.1524 O.3     1  UNL1       -0.3794
     42 C          21.4077   74.5853    1.3732 C.3     1  UNL1        0.1693
     43 H          20.2625   75.6550    0.1883 H       1  UNL1        0.2105
@<TRIPOS>UNITY_ATOM_ATTR
2 1
charge -1
26 1
charge -1
@<TRIPOS>BOND
     1    25    28    1
     2    25    24    1
     3    25    26    1
     4    25    27    2
     5     1     4    1
     6     1    24    1
     7     1     2    1
     8     1     3    2
     9     6    11    1
    10     6    12    1
    11    29    36    1
    12    29    37    1
    13     7     9    1
    14     7    13    1
    15     8    10    1
    16     8    14    1
    17    28    37    1
    18     4     5    1
    19    30    33    1
    20    30    38    1
    21    31    34    1
    22    31    39    1
    23    32    35    1
    24    32    40    1
    25    41    42    1
    26    41    43    1
    27    15    19    2
    28    16    22    2
    29    17    12    1
    30    17    19   ar
    31    17    20   ar
    32    18    19   ar
    33    18    22   ar
    34    18    23    1
    35     9    10    1
    36     9    11    1
    37    10    12    1
    38    11     5    1
    39    33    34    1
    40    33    35    1
    41    34    36    1
    42    35    37    1
    43    36    42    1
    44    20    21   ar
    45    21    22   ar
@<TRIPOS>MOLECULE
*****
 43 45 0 0 0
SMALL
GASTEIGER

@<TRIPOS>ATOM
      1 P          22.8629   71.4444   -2.4080 P.3     1  UNL1        0.2189
      2 O          22.4730   72.8636   -3.0797 O.co2   1  UNL1       -0.4371
      3 O          24.0960   70.7966   -2.9659 O.2     1  UNL1       -0.5170
      4 O          21.5021   70.5759   -2.5177 O.3     1  UNL1       -0.3112
      5 C          20.7999   70.5719   -3.7484 C.3     1  UNL1        0.1811
      6 O          18.8698   71.6413   -4.6997 O.3     1  UNL1       -0.3308
      7 O          17.2977   70.3378   -2.5042 O.3     1  UNL1       -0.3794
      8 O          16.7834   68.7246   -4.6419 O.3     1  UNL1       -0.3779
      9 C          18.4198   69.8379   -3.2297 C.3     1  UNL1        0.1713
     10 C          18.0042   69.4361   -4.6295 C.3     1  UNL1        0.1895
     11 C          19.3615   71.0047   -3.4999 C.3     1  UNL1        0.1764
     12 C          17.9036   70.7822   -5.3268 C.3     1  UNL1        0.2383
     13 H          16.6821   69.6105   -2.3196 H       1  UNL1        0.2105
     14 H          16.8989   67.8760   -4.1867 H       1  UNL1        0.2106
     15 O          16.0027   70.1552   -7.3197 O.2     1  UNL1       -0.2464
     16 O          19.1446   70.4769  -10.6762 O.2     1  UNL1       -0.2670
     17 N          18.1974   70.6956   -6.7295 N.ar    1  UNL1       -0.2551
     18 N          17.5686   70.3161   -8.9894 N.ar    1  UNL1       -0.2743
     19 C          17.1709   70.3730   -7.6475 C.ar    1  UNL1        0.3323
     20 C          19.4913   70.9298   -7.1822 C.ar    1  UNL1        0.0869
     21 C          19.8545   70.8703   -8.4651 C.ar    1  UNL1        0.0795
     22 C          18.8421   70.5394   -9.4886 C.ar    1  UNL1        0.2626
     23 H          16.8704   70.0927   -9.6469 H       1  UNL1        0.1734
     24 O          22.9425   71.7975   -0.8326 O.3     1  UNL1       -0.2703
     25 P          21.8636   71.6018    0.3550 P.3     1  UNL1        0.2208
     26 O          22.4957   72.4559    1.5751 O.co2   1  UNL1       -0.4371
     27 O          21.5701   70.1680    0.6896 O.2     1  UNL1       -0.5170
     28 O          20.5775   72.4553   -0.1167 O.3     1  UNL1       -0.2858
     29 O          20.4147   74.4706   -1.3530 O.3     1  UNL1       -0.3258
     30 O          17.3403   75.0938    1.3322 O.3     1  UNL1       -0.3794
     31 O          16.7290   74.4984   -1.4100 O.3     1  UNL1       -0.3794
     32 O          19.7846   73.8136    2.2074 O.3     1  UNL1       -0.3775
     33 C          18.1871   74.3205    0.4776 C.3     1  UNL1        0.1715
     34 C          18.0330   74.8444   -0.9516 C.3     1  UNL1        0.1694
     35 C          19.6335   74.4608    0.9485 C.3     1  UNL1        0.1967
     36 C          19.1009   74.2480   -1.8784 C.3     1  UNL1        0.1761
     37 C          20.6174   73.8792   -0.0681 C.3     1  UNL1        0.2704
     38 H          16.4204   75.0087    1.0389 H       1  UNL1        0.2105
     39 H          16.0641   74.8806   -0.8159 H       1  UNL1        0.2105
     40 H          19.1565   74.1909    2.8423 H       1  UNL1        0.2106
     41 O          20.1498   74.3629   -4.0221 O.3     1  UNL1       -0.3794
     42 C          19.0650   74.8751   -3.2704 C.3     1  UNL1        0.1693
     43 H          20.1395   74.7531   -4.9106 H       1  UNL1        0.2105
@<TRIPOS>UNITY_ATOM_ATTR
2 1
charge -1
26 1
charge -1
@<TRIPOS>BOND
     1    25    28    1
     2    25    24    1
     3    25    26    1
     4    25    27    2
     5     1     4    1
     6     1    24    1
     7     1     2    1
     8     1     3    2
     9     6    11    1
    10     6    12    1
    11    29    36    1
    12    29    37    1
    13     7     9    1
    14     7    13    1
    15     8    10    1
    16     8    14    1
    17    28    37    1
    18     4     5    1
    19    30    33    1
    20    30    38    1
    21    31    34    1
    22    31    39    1
    23    32    35    1
    24    32    40    1
    25    41    42    1
    26    41    43    1
    27    15    19    2
    28    16    22    2
    29    17    12    1
    30    17    19   ar
    31    17    20   ar
    32    18    19   ar
    33    18    22   ar
    34    18    23    1
    35     9    10    1
    36     9    11    1
    37    10    12    1
    38    11     5    1
    39    33    34    1
    40    33    35    1
    41    34    36    1
    42    35    37    1
    43    36    42    1
    44    20    21   ar
    45    21    22   ar
@<TRIPOS>MOLECULE
*****
 43 45 0 0 0
SMALL
GASTEIGER

@<TRIPOS>ATOM
      1 P          21.0164   71.3014   -1.3872 P.3     1  UNL1        0.2189
      2 O          20.6123   72.7680   -1.9379 O.co2   1  UNL1       -0.4371
      3 O          22.3703   70.8151   -1.8138 O.2     1  UNL1       -0.5170
      4 O          19.7669   70.3674   -1.8167 O.3     1  UNL1       -0.3112
      5 C          19.3703   70.3521   -3.1769 C.3     1  UNL1        0.1811
      6 O          17.6661   71.4153   -4.4957 O.3     1  UNL1       -0.3308
      7 O          15.6939   69.8392   -2.8778 O.3     1  UNL1       -0.3794
      8 O          15.8352   68.4122   -5.1974 O.3     1  UNL1       -0.3779
      9 C          16.9919   69.4625   -3.3346 C.3     1  UNL1        0.1713
     10 C          16.9634   69.1754   -4.8213 C.3     1  UNL1        0.1895
     11 C          17.8889   70.6922   -3.2653 C.3     1  UNL1        0.1764
     12 C          16.9459   70.5750   -5.4122 C.3     1  UNL1        0.2383
     13 H          15.1033   69.0699   -2.9126 H       1  UNL1        0.2105
     14 H          15.8927   67.5308   -4.7967 H       1  UNL1        0.2106
     15 O          15.6109   70.1960   -7.8723 O.2     1  UNL1       -0.2464
     16 O          19.4885   70.8250  -10.2827 O.2     1  UNL1       -0.2670
     17 N          17.5821   70.6346   -6.6979 N.ar    1  UNL1       -0.2551
     18 N          17.5427   70.5097   -9.0705 N.ar    1  UNL1       -0.2743
     19 C          16.8215   70.4289   -7.8725 C.ar    1  UNL1        0.3323
     20 C          18.9453   70.8951   -6.7851 C.ar    1  UNL1        0.0869
     21 C          19.6184   70.9676   -7.9353 C.ar    1  UNL1        0.0795
     22 C          18.8979   70.7647   -9.2087 C.ar    1  UNL1        0.2626
     23 H          17.0336   70.3694   -9.9017 H       1  UNL1        0.1734
     24 O          20.8274   71.4486    0.2114 O.3     1  UNL1       -0.2703
     25 P          21.0926   72.6989    1.2010 P.3     1  UNL1        0.2208
     26 O          20.1410   72.3768    2.4691 O.co2   1  UNL1       -0.4371
     27 O          20.8545   74.0418    0.5734 O.2     1  UNL1       -0.5170
     28 O          22.5936   72.4739    1.7502 O.3     1  UNL1       -0.2858
     29 O          24.3387   73.7781    0.8173 O.3     1  UNL1       -0.3258
     30 O          26.5946   70.7311    2.4535 O.3     1  UNL1       -0.3794
     31 O          26.6199   73.3288    3.6779 O.3     1  UNL1       -0.3794
     32 O          24.0487   70.1358    1.2109 O.3     1  UNL1       -0.3775
     33 C          25.5034   71.6532    2.3869 C.3     1  UNL1        0.1715
     34 C          26.0743   73.0726    2.3867 C.3     1  UNL1        0.1694
     35 C          24.7077   71.3935    1.1091 C.3     1  UNL1        0.1967
     36 C          24.9905   74.1056    2.0500 C.3     1  UNL1        0.1761
     37 C          23.6909   72.5047    0.8413 C.3     1  UNL1        0.2704
     38 H          27.1036   70.8902    3.2628 H       1  UNL1        0.2105
     39 H          27.3025   72.6693    3.8784 H       1  UNL1        0.2105
     40 H          24.7031   69.4408    1.3802 H       1  UNL1        0.2106
     41 O          25.8436   76.0325    3.1761 O.3     1  UNL1       -0.3794
     42 C          25.5690   75.5098    1.8894 C.3     1  UNL1        0.1693
     43 H          26.2127   76.9258    3.0895 H       1  UNL1        0.2105
@<TRIPOS>UNITY_ATOM_ATTR
2 1
charge -1
26 1
charge -1
@<TRIPOS>BOND
     1    25    28    1
     2    25    24    1
     3    25    26    1
     4    25    27    2
     5     1     4    1
     6     1    24    1
     7     1     2    1
     8     1     3    2
     9     6    11    1
    10     6    12    1
    11    29    36    1
    12    29    37    1
    13     7     9    1
    14     7    13    1
    15     8    10    1
    16     8    14    1
    17    28    37    1
    18     4     5    1
    19    30    33    1
    20    30    38    1
    21    31    34    1
    22    31    39    1
    23    32    35    1
    24    32    40    1
    25    41    42    1
    26    41    43    1
    27    15    19    2
    28    16    22    2
    29    17    12    1
    30    17    19   ar
    31    17    20   ar
    32    18    19   ar
    33    18    22   ar
    34    18    23    1
    35     9    10    1
    36     9    11    1
    37    10    12    1
    38    11     5    1
    39    33    34    1
    40    33    35    1
    41    34    36    1
    42    35    37    1
    43    36    42    1
    44    20    21   ar
    45    21    22   ar
@<TRIPOS>MOLECULE
*****
 43 45 0 0 0
SMALL
GASTEIGER

@<TRIPOS>ATOM
      1 P          20.7948   71.1197   -1.8071 P.3     1  UNL1        0.2189
      2 O          21.7664   70.4768   -2.9296 O.co2   1  UNL1       -0.4371
      3 O          21.0494   70.6507   -0.4047 O.2     1  UNL1       -0.5170
      4 O          19.3063   70.8472   -2.3797 O.3     1  UNL1       -0.3112
      5 C          18.8908   71.5440   -3.5415 C.3     1  UNL1        0.1811
      6 O          17.0591   71.7016   -5.0888 O.3     1  UNL1       -0.3308
      7 O          15.5649   69.9009   -3.2138 O.3     1  UNL1       -0.3794
      8 O          16.3643   68.1841   -5.1760 O.3     1  UNL1       -0.3779
      9 C          16.9502   69.8986   -3.5547 C.3     1  UNL1        0.1713
     10 C          17.1480   69.3375   -4.9474 C.3     1  UNL1        0.1895
     11 C          17.3928   71.3461   -3.7291 C.3     1  UNL1        0.1764
     12 C          16.7328   70.5090   -5.8210 C.3     1  UNL1        0.2383
     13 H          15.2593   68.9871   -3.0969 H       1  UNL1        0.2105
     14 H          16.6671   67.4673   -4.5969 H       1  UNL1        0.2106
     15 O          15.4672   70.6492   -8.3422 O.2     1  UNL1       -0.2464
     16 O          19.4988   70.5762  -10.5744 O.2     1  UNL1       -0.2670
     17 N          17.4275   70.5286   -7.0774 N.ar    1  UNL1       -0.2551
     18 N          17.4756   70.6129   -9.4516 N.ar    1  UNL1       -0.2743
     19 C          16.6977   70.5995   -8.2869 C.ar    1  UNL1        0.3323
     20 C          18.8170   70.4780   -7.1018 C.ar    1  UNL1        0.0869
     21 C          19.5439   70.4904   -8.2211 C.ar    1  UNL1        0.0795
     22 C          18.8586   70.5632   -9.5276 C.ar    1  UNL1        0.2626
     23 H          16.9888   70.6616  -10.3063 H       1  UNL1        0.1734
     24 O          20.9844   72.7095   -2.0297 O.3     1  UNL1       -0.2703
     25 P          22.3176   73.6026   -2.2240 P.3     1  UNL1        0.2208
     26 O          23.4876   72.6575   -1.6277 O.co2   1  UNL1       -0.4371
     27 O          22.2424   74.9649   -1.5976 O.2     1  UNL1       -0.5170
     28 O          22.5741   73.6124   -3.8175 O.3     1  UNL1       -0.2858
     29 O          21.5307   75.3296   -5.0742 O.3     1  UNL1       -0.3258
     30 O          22.4099   72.7085   -8.1414 O.3     1  UNL1       -0.3794
     31 O          23.9109   75.1433   -7.8828 O.3     1  UNL1       -0.3794
     32 O          21.5350   71.6892   -5.5772 O.3     1  UNL1       -0.3775
     33 C          22.6299   73.3798   -6.8979 C.3     1  UNL1        0.1715
     34 C          22.7042   74.8834   -7.1711 C.3     1  UNL1        0.1694
     35 C          21.4764   73.0623   -5.9482 C.3     1  UNL1        0.1967
     36 C          22.6713   75.6863   -5.8637 C.3     1  UNL1        0.1761
     37 C          21.5094   73.9499   -4.7028 C.3     1  UNL1        0.2704
     38 H          23.1391   72.9056   -8.7488 H       1  UNL1        0.2105
     39 H          23.9193   74.6299   -8.7059 H       1  UNL1        0.2105
     40 H          21.5131   71.1378   -6.3743 H       1  UNL1        0.2106
     41 O          23.5864   77.8330   -5.3509 O.3     1  UNL1       -0.3794
     42 C          22.5854   77.1897   -6.1179 C.3     1  UNL1        0.1693
     43 H          23.5439   78.7905   -5.5028 H       1  UNL1        0.2105
@<TRIPOS>UNITY_ATOM_ATTR
2 1
charge -1
26 1
charge -1
@<TRIPOS>BOND
     1    25    28    1
     2    25    24    1
     3    25    26    1
     4    25    27    2
     5     1     4    1
     6     1    24    1
     7     1     2    1
     8     1     3    2
     9     6    11    1
    10     6    12    1
    11    29    36    1
    12    29    37    1
    13     7     9    1
    14     7    13    1
    15     8    10    1
    16     8    14    1
    17    28    37    1
    18     4     5    1
    19    30    33    1
    20    30    38    1
    21    31    34    1
    22    31    39    1
    23    32    35    1
    24    32    40    1
    25    41    42    1
    26    41    43    1
    27    15    19    2
    28    16    22    2
    29    17    12    1
    30    17    19   ar
    31    17    20   ar
    32    18    19   ar
    33    18    22   ar
    34    18    23    1
    35     9    10    1
    36     9    11    1
    37    10    12    1
    38    11     5    1
    39    33    34    1
    40    33    35    1
    41    34    36    1
    42    35    37    1
    43    36    42    1
    44    20    21   ar
    45    21    22   ar
@<TRIPOS>MOLECULE
*****
 43 45 0 0 0
SMALL
GASTEIGER

@<TRIPOS>ATOM
      1 P          20.7497   73.4491   -1.9139 P.3     1  UNL1        0.2189
      2 O          19.4278   74.3640   -1.7327 O.co2   1  UNL1       -0.4371
      3 O          21.8030   74.0282   -2.8119 O.2     1  UNL1       -0.5170
      4 O          20.1658   72.0061   -2.3553 O.3     1  UNL1       -0.3112
      5 C          19.7089   71.8400   -3.6862 C.3     1  UNL1        0.1811
      6 O          17.7061   71.9993   -5.0043 O.3     1  UNL1       -0.3308
      7 O          16.3856   70.3801   -2.8536 O.3     1  UNL1       -0.3794
      8 O          16.8623   68.5201   -4.7901 O.3     1  UNL1       -0.3779
      9 C          17.7161   70.2920   -3.3609 C.3     1  UNL1        0.1713
     10 C          17.7150   69.6453   -4.7303 C.3     1  UNL1        0.1895
     11 C          18.1924   71.7044   -3.6765 C.3     1  UNL1        0.1764
     12 C          17.2422   70.7850   -5.6166 C.3     1  UNL1        0.2383
     13 H          16.0599   69.4901   -2.6444 H       1  UNL1        0.2105
     14 H          17.2055   67.8229   -4.2096 H       1  UNL1        0.2106
     15 O          15.6789   70.4174   -7.9402 O.2     1  UNL1       -0.2464
     16 O          19.3923   70.4759  -10.6694 O.2     1  UNL1       -0.2670
     17 N          17.7744   70.7010   -6.9474 N.ar    1  UNL1       -0.2551
     18 N          17.5291   70.4470   -9.2973 N.ar    1  UNL1       -0.2743
     19 C          16.9033   70.5145   -8.0460 C.ar    1  UNL1        0.3323
     20 C          19.1459   70.8036   -7.1530 C.ar    1  UNL1        0.0869
     21 C          19.7271   70.7359   -8.3525 C.ar    1  UNL1        0.0795
     22 C          18.8880   70.5422   -9.5527 C.ar    1  UNL1        0.2626
     23 H          16.9422   70.3170  -10.0772 H       1  UNL1        0.1734
     24 O          21.2287   73.1968   -0.3908 O.3     1  UNL1       -0.2703
     25 P          22.5230   72.4310    0.2019 P.3     1  UNL1        0.2208
     26 O          23.7635   73.2546   -0.4309 O.co2   1  UNL1       -0.4371
     27 O          22.5493   70.9570   -0.0817 O.2     1  UNL1       -0.5170
     28 O          22.5395   72.8107    1.7705 O.3     1  UNL1       -0.2858
     29 O          21.5113   74.6278    2.8919 O.3     1  UNL1       -0.3258
     30 O          24.9658   74.3375    5.1354 O.3     1  UNL1       -0.3794
     31 O          22.4660   73.4863    6.2645 O.3     1  UNL1       -0.3794
     32 O          25.0651   73.9267    2.2717 O.3     1  UNL1       -0.3775
     33 C          23.8697   73.8432    4.3610 C.3     1  UNL1        0.1715
     34 C          22.5693   74.2424    5.0612 C.3     1  UNL1        0.1694
     35 C          23.9344   74.4496    2.9605 C.3     1  UNL1        0.1967
     36 C          21.3535   73.9833    4.1613 C.3     1  UNL1        0.1761
     37 C          22.6561   74.1749    2.1665 C.3     1  UNL1        0.2704
     38 H          24.9309   73.9558    6.0257 H       1  UNL1        0.2105
     39 H          23.2400   73.6586    6.8235 H       1  UNL1        0.2105
     40 H          25.8679   74.1074    2.7843 H       1  UNL1        0.2106
     41 O          19.7613   73.7529    5.9280 O.3     1  UNL1       -0.3794
     42 C          20.0623   74.5190    4.7762 C.3     1  UNL1        0.1693
     43 H          18.9421   74.0828    6.3300 H       1  UNL1        0.2105
@<TRIPOS>UNITY_ATOM_ATTR
2 1
charge -1
26 1
charge -1
@<TRIPOS>BOND
     1    25    28    1
     2    25    24    1
     3    25    26    1
     4    25    27    2
     5     1     4    1
     6     1    24    1
     7     1     2    1
     8     1     3    2
     9     6    11    1
    10     6    12    1
    11    29    36    1
    12    29    37    1
    13     7     9    1
    14     7    13    1
    15     8    10    1
    16     8    14    1
    17    28    37    1
    18     4     5    1
    19    30    33    1
    20    30    38    1
    21    31    34    1
    22    31    39    1
    23    32    35    1
    24    32    40    1
    25    41    42    1
    26    41    43    1
    27    15    19    2
    28    16    22    2
    29    17    12    1
    30    17    19   ar
    31    17    20   ar
    32    18    19   ar
    33    18    22   ar
    34    18    23    1
    35     9    10    1
    36     9    11    1
    37    10    12    1
    38    11     5    1
    39    33    34    1
    40    33    35    1
    41    34    36    1
    42    35    37    1
    43    36    42    1
    44    20    21   ar
    45    21    22   ar
@<TRIPOS>MOLECULE
*****
 43 45 0 0 0
SMALL
GASTEIGER

@<TRIPOS>ATOM
      1 P          21.3630   72.1559   -3.3066 P.3     1  UNL1        0.2189
      2 O          19.7754   71.8588   -3.2124 O.co2   1  UNL1       -0.4371
      3 O          22.2154   70.9577   -3.6050 O.2     1  UNL1       -0.5170
      4 O          21.6962   72.9286   -1.9246 O.3     1  UNL1       -0.3112
      5 C          20.9889   72.5565   -0.7545 C.3     1  UNL1        0.1811
      6 O          19.6333   73.5478    0.9641 O.3     1  UNL1       -0.3308
      7 O          19.3167   75.8812   -0.8921 O.3     1  UNL1       -0.3794
      8 O          21.2162   76.7642    0.8539 O.3     1  UNL1       -0.3779
      9 C          20.4515   75.0424   -0.6829 C.3     1  UNL1        0.1713
     10 C          21.1119   75.3714    0.6397 C.3     1  UNL1        0.1895
     11 C          19.9489   73.6241   -0.4433 C.3     1  UNL1        0.1764
     12 C          20.1821   74.6951    1.6329 C.3     1  UNL1        0.2383
     13 H          19.6126   76.7924   -1.0477 H       1  UNL1        0.2105
     14 H          21.8182   77.1482    0.1975 H       1  UNL1        0.2106
     15 O          20.6377   71.9916    2.3122 O.2     1  UNL1       -0.2464
     16 O          22.8237   73.1467    6.2017 O.2     1  UNL1       -0.2670
     17 N          20.8681   74.2608    2.8171 N.ar    1  UNL1       -0.2551
     18 N          21.7259   72.5689    4.2482 N.ar    1  UNL1       -0.2743
     19 C          21.0433   72.8794    3.0652 C.ar    1  UNL1        0.3323
     20 C          21.3590   75.2000    3.7174 C.ar    1  UNL1        0.0869
     21 C          22.0068   74.8876    4.8417 C.ar    1  UNL1        0.0795
     22 C          22.2317   73.4663    5.1754 C.ar    1  UNL1        0.2626
     23 H          21.8594   71.6127    4.4421 H       1  UNL1        0.1734
     24 O          21.4475   73.3335   -4.4107 O.3     1  UNL1       -0.2703
     25 P          21.4775   73.2742   -6.0258 P.3     1  UNL1        0.2208
     26 O          22.7057   72.2683   -6.3375 O.co2   1  UNL1       -0.4371
     27 O          21.5926   74.6162   -6.6888 O.2     1  UNL1       -0.5170
     28 O          20.1555   72.4404   -6.4285 O.3     1  UNL1       -0.2858
     29 O          19.3059   70.2367   -6.2317 O.3     1  UNL1       -0.3258
     30 O          18.7707   70.7903  -10.2885 O.3     1  UNL1       -0.3794
     31 O          16.4888   70.7867   -8.5447 O.3     1  UNL1       -0.3794
     32 O          21.1355   71.8372   -8.9880 O.3     1  UNL1       -0.3775
     33 C          18.8180   71.1850   -8.9147 C.3     1  UNL1        0.1715
     34 C          17.7872   70.3591   -8.1427 C.3     1  UNL1        0.1694
     35 C          20.2235   70.9345   -8.3715 C.3     1  UNL1        0.1967
     36 C          17.9613   70.5315   -6.6278 C.3     1  UNL1        0.1761
     37 C          20.2761   71.0843   -6.8500 C.3     1  UNL1        0.2704
     38 H          17.8810   70.9473  -10.6396 H       1  UNL1        0.2105
     39 H          16.3920   70.6730   -9.5033 H       1  UNL1        0.2105
     40 H          21.0929   71.7323   -9.9508 H       1  UNL1        0.2106
     41 O          15.8513   69.4120   -6.5700 O.3     1  UNL1       -0.3794
     42 C          17.0483   69.5970   -5.8370 C.3     1  UNL1        0.1693
     43 H          15.2606   68.8190   -6.0789 H       1  UNL1        0.2105
@<TRIPOS>UNITY_ATOM_ATTR
2 1
charge -1
26 1
charge -1
@<TRIPOS>BOND
     1    25    28    1
     2    25    24    1
     3    25    26    1
     4    25    27    2
     5     1     4    1
     6     1    24    1
     7     1     2    1
     8     1     3    2
     9     6    11    1
    10     6    12    1
    11    29    36    1
    12    29    37    1
    13     7     9    1
    14     7    13    1
    15     8    10    1
    16     8    14    1
    17    28    37    1
    18     4     5    1
    19    30    33    1
    20    30    38    1
    21    31    34    1
    22    31    39    1
    23    32    35    1
    24    32    40    1
    25    41    42    1
    26    41    43    1
    27    15    19    2
    28    16    22    2
    29    17    12    1
    30    17    19   ar
    31    17    20   ar
    32    18    19   ar
    33    18    22   ar
    34    18    23    1
    35     9    10    1
    36     9    11    1
    37    10    12    1
    38    11     5    1
    39    33    34    1
    40    33    35    1
    41    34    36    1
    42    35    37    1
    43    36    42    1
    44    20    21   ar
    45    21    22   ar
@<TRIPOS>MOLECULE
*****
 43 45 0 0 0
SMALL
GASTEIGER

@<TRIPOS>ATOM
      1 P          20.5929   71.0618   -1.4689 P.3     1  UNL1        0.2189
      2 O          21.7724   71.0072   -2.5749 O.co2   1  UNL1       -0.4371
      3 O          21.0056   70.6643   -0.0821 O.2     1  UNL1       -0.5170
      4 O          19.4029   70.1847   -2.1265 O.3     1  UNL1       -0.3112
      5 C          19.1100   70.3653   -3.5010 C.3     1  UNL1        0.1811
      6 O          17.4413   71.3426   -4.9273 O.3     1  UNL1       -0.3308
      7 O          15.4300   69.8334   -3.2941 O.3     1  UNL1       -0.3794
      8 O          15.6580   68.2900   -5.5307 O.3     1  UNL1       -0.3779
      9 C          16.7451   69.4461   -3.6887 C.3     1  UNL1        0.1713
     10 C          16.7673   69.0824   -5.1587 C.3     1  UNL1        0.1895
     11 C          17.6296   70.6862   -3.6545 C.3     1  UNL1        0.1764
     12 C          16.7580   70.4493   -5.8216 C.3     1  UNL1        0.2383
     13 H          14.8468   69.0577   -3.3079 H       1  UNL1        0.2105
     14 H          15.7094   67.4311   -5.0832 H       1  UNL1        0.2106
     15 O          15.4687   70.7074   -8.3214 O.2     1  UNL1       -0.2464
     16 O          19.4576   70.4317  -10.6134 O.2     1  UNL1       -0.2670
     17 N          17.4353   70.4486   -7.0876 N.ar    1  UNL1       -0.2551
     18 N          17.4559   70.5701   -9.4606 N.ar    1  UNL1       -0.2743
     19 C          16.6946   70.5834   -8.2849 C.ar    1  UNL1        0.3323
     20 C          18.8189   70.3157   -7.1332 C.ar    1  UNL1        0.0869
     21 C          19.5298   70.3036   -8.2627 C.ar    1  UNL1        0.0795
     22 C          18.8322   70.4392   -9.5577 C.ar    1  UNL1        0.2626
     23 H          16.9612   70.6621  -10.3071 H       1  UNL1        0.1734
     24 O          20.0426   72.5762   -1.5989 O.3     1  UNL1       -0.2703
     25 P          20.8070   73.9964   -1.4915 P.3     1  UNL1        0.2208
     26 O          22.3134   73.5765   -1.0767 O.co2   1  UNL1       -0.4371
     27 O          20.1576   74.9757   -0.5571 O.2     1  UNL1       -0.5170
     28 O          20.9322   74.5093   -3.0167 O.3     1  UNL1       -0.2858
     29 O          22.4113   73.5259   -4.5857 O.3     1  UNL1       -0.3258
     30 O          22.1144   77.3000   -6.2345 O.3     1  UNL1       -0.3794
     31 O          20.8211   75.0836   -7.5240 O.3     1  UNL1       -0.3794
     32 O          22.2103   76.9841   -3.3587 O.3     1  UNL1       -0.3775
     33 C          21.6448   76.1399   -5.5425 C.3     1  UNL1        0.1715
     34 C          21.7776   74.9367   -6.4782 C.3     1  UNL1        0.1694
     35 C          22.4843   75.9363   -4.2826 C.3     1  UNL1        0.1967
     36 C          21.5469   73.6202   -5.7240 C.3     1  UNL1        0.1761
     37 C          22.2136   74.5761   -3.6371 C.3     1  UNL1        0.2704
     38 H          21.5853   77.4352   -7.0353 H       1  UNL1        0.2105
     39 H          20.9775   75.9189   -7.9919 H       1  UNL1        0.2105
     40 H          22.3858   77.8399   -3.7791 H       1  UNL1        0.2106
     41 O          23.2300   72.2811   -6.7646 O.3     1  UNL1       -0.3794
     42 C          21.8290   72.4020   -6.6005 C.3     1  UNL1        0.1693
     43 H          23.4245   71.5096   -7.3202 H       1  UNL1        0.2105
@<TRIPOS>UNITY_ATOM_ATTR
2 1
charge -1
26 1
charge -1
@<TRIPOS>BOND
     1    25    28    1
     2    25    24    1
     3    25    26    1
     4    25    27    2
     5     1     4    1
     6     1    24    1
     7     1     2    1
     8     1     3    2
     9     6    11    1
    10     6    12    1
    11    29    36    1
    12    29    37    1
    13     7     9    1
    14     7    13    1
    15     8    10    1
    16     8    14    1
    17    28    37    1
    18     4     5    1
    19    30    33    1
    20    30    38    1
    21    31    34    1
    22    31    39    1
    23    32    35    1
    24    32    40    1
    25    41    42    1
    26    41    43    1
    27    15    19    2
    28    16    22    2
    29    17    12    1
    30    17    19   ar
    31    17    20   ar
    32    18    19   ar
    33    18    22   ar
    34    18    23    1
    35     9    10    1
    36     9    11    1
    37    10    12    1
    38    11     5    1
    39    33    34    1
    40    33    35    1
    41    34    36    1
    42    35    37    1
    43    36    42    1
    44    20    21   ar
    45    21    22   ar
@<TRIPOS>MOLECULE
*****
 43 45 0 0 0
SMALL
GASTEIGER

@<TRIPOS>ATOM
      1 P          21.8825   71.8949   -3.6787 P.3     1  UNL1        0.2189
      2 O          20.8013   73.0467   -4.0278 O.co2   1  UNL1       -0.4371
      3 O          23.1741   71.9874   -4.4367 O.2     1  UNL1       -0.5170
      4 O          21.0556   70.5167   -3.8650 O.3     1  UNL1       -0.3112
      5 C          19.8644   70.5413   -4.6320 C.3     1  UNL1        0.1811
      6 O          17.7118   71.4075   -4.0077 O.3     1  UNL1       -0.3308
      7 O          17.2360   68.7572   -2.6885 O.3     1  UNL1       -0.3794
      8 O          15.8551   68.5134   -5.0273 O.3     1  UNL1       -0.3779
      9 C          17.9383   69.0513   -3.8950 C.3     1  UNL1        0.1713
     10 C          16.9623   69.3911   -5.0020 C.3     1  UNL1        0.1895
     11 C          18.6716   70.3727   -3.7009 C.3     1  UNL1        0.1764
     12 C          16.5707   70.8163   -4.6505 C.3     1  UNL1        0.2383
     13 H          16.7601   67.9172   -2.7882 H       1  UNL1        0.2105
     14 H          16.1557   67.6199   -5.2556 H       1  UNL1        0.2106
     15 O          17.4262   70.2198   -7.2754 O.2     1  UNL1       -0.2464
     16 O          15.2179   73.8694   -9.0206 O.2     1  UNL1       -0.2670
     17 N          16.2338   71.5935   -5.8097 N.ar    1  UNL1       -0.2551
     18 N          16.3258   72.0374   -8.1423 N.ar    1  UNL1       -0.2743
     19 C          16.7156   71.2085   -7.0825 C.ar    1  UNL1        0.3323
     20 C          15.4338   72.7233   -5.6779 C.ar    1  UNL1        0.0869
     21 C          15.0722   73.5039   -6.6983 C.ar    1  UNL1        0.0795
     22 C          15.5333   73.1714   -8.0618 C.ar    1  UNL1        0.2626
     23 H          16.6499   71.7889   -9.0384 H       1  UNL1        0.1734
     24 O          22.0343   72.0134   -2.0738 O.3     1  UNL1       -0.2703
     25 P          20.9204   72.0925   -0.9051 P.3     1  UNL1        0.2208
     26 O          20.5438   70.5405   -0.6458 O.co2   1  UNL1       -0.4371
     27 O          19.7459   72.9683   -1.2327 O.2     1  UNL1       -0.5170
     28 O          21.7406   72.5384    0.4115 O.3     1  UNL1       -0.2858
     29 O          22.9714   71.0827    1.8197 O.3     1  UNL1       -0.3258
     30 O          21.9152   73.9504    4.5967 O.3     1  UNL1       -0.3794
     31 O          24.6339   73.7934    3.6844 O.3     1  UNL1       -0.3794
     32 O          20.0297   73.1620    2.5467 O.3     1  UNL1       -0.3775
     33 C          22.2952   73.4632    3.3069 C.3     1  UNL1        0.1715
     34 C          23.6601   72.7838    3.4339 C.3     1  UNL1        0.1694
     35 C          21.2431   72.4692    2.8189 C.3     1  UNL1        0.1967
     36 C          24.0126   72.0061    2.1586 C.3     1  UNL1        0.1761
     37 C          21.7134   71.7145    1.5742 C.3     1  UNL1        0.2704
     38 H          22.5789   74.5825    4.9121 H       1  UNL1        0.2105
     39 H          24.3993   74.2772    4.4919 H       1  UNL1        0.2105
     40 H          19.7423   73.6354    3.3424 H       1  UNL1        0.2106
     41 O          24.9478   69.8251    2.4370 O.3     1  UNL1       -0.3794
     42 C          25.2948   71.1927    2.3208 C.3     1  UNL1        0.1693
     43 H          25.7541   69.2952    2.5405 H       1  UNL1        0.2105
@<TRIPOS>UNITY_ATOM_ATTR
2 1
charge -1
26 1
charge -1
@<TRIPOS>BOND
     1    25    28    1
     2    25    24    1
     3    25    26    1
     4    25    27    2
     5     1     4    1
     6     1    24    1
     7     1     2    1
     8     1     3    2
     9     6    11    1
    10     6    12    1
    11    29    36    1
    12    29    37    1
    13     7     9    1
    14     7    13    1
    15     8    10    1
    16     8    14    1
    17    28    37    1
    18     4     5    1
    19    30    33    1
    20    30    38    1
    21    31    34    1
    22    31    39    1
    23    32    35    1
    24    32    40    1
    25    41    42    1
    26    41    43    1
    27    15    19    2
    28    16    22    2
    29    17    12    1
    30    17    19   ar
    31    17    20   ar
    32    18    19   ar
    33    18    22   ar
    34    18    23    1
    35     9    10    1
    36     9    11    1
    37    10    12    1
    38    11     5    1
    39    33    34    1
    40    33    35    1
    41    34    36    1
    42    35    37    1
    43    36    42    1
    44    20    21   ar
    45    21    22   ar
@<TRIPOS>MOLECULE
*****
 43 45 0 0 0
SMALL
GASTEIGER

@<TRIPOS>ATOM
      1 P          23.0495   73.3619   -4.4087 P.3     1  UNL1        0.2189
      2 O          23.3855   74.4259   -5.5803 O.co2   1  UNL1       -0.4371
      3 O          24.1792   72.4450   -4.0422 O.2     1  UNL1       -0.5170
      4 O          21.6945   72.6389   -4.9176 O.3     1  UNL1       -0.3112
      5 C          21.1781   71.5595   -4.1586 C.3     1  UNL1        0.1811
      6 O          19.0406   72.2125   -5.0410 O.3     1  UNL1       -0.3308
      7 O          17.8669   71.0912   -2.5199 O.3     1  UNL1       -0.3794
      8 O          17.3979   69.1049   -4.3286 O.3     1  UNL1       -0.3779
      9 C          18.9797   70.6259   -3.2818 C.3     1  UNL1        0.1713
     10 C          18.5030   69.9563   -4.5538 C.3     1  UNL1        0.1895
     11 C          19.7206   71.8430   -3.8215 C.3     1  UNL1        0.1764
     12 C          18.1532   71.1499   -5.4262 C.3     1  UNL1        0.2383
     13 H          17.3783   70.3316   -2.1646 H       1  UNL1        0.2105
     14 H          17.6712   68.3614   -3.7689 H       1  UNL1        0.2106
     15 O          16.0401   70.8665   -7.2789 O.2     1  UNL1       -0.2464
     16 O          18.9558   70.1032  -10.7656 O.2     1  UNL1       -0.2670
     17 N          18.3315   70.8773   -6.8245 N.ar    1  UNL1       -0.2551
     18 N          17.4936   70.4869   -9.0135 N.ar    1  UNL1       -0.2743
     19 C          17.2039   70.7525   -7.6691 C.ar    1  UNL1        0.3323
     20 C          19.6133   70.7369   -7.3452 C.ar    1  UNL1        0.0869
     21 C          19.8726   70.4824   -8.6294 C.ar    1  UNL1        0.0795
     22 C          18.7502   70.3374   -9.5787 C.ar    1  UNL1        0.2626
     23 H          16.7236   70.3955   -9.6206 H       1  UNL1        0.1734
     24 O          22.5281   74.3027   -3.2020 O.3     1  UNL1       -0.2703
     25 P          23.2822   74.8508   -1.8814 P.3     1  UNL1        0.2208
     26 O          22.6159   76.3070   -1.6512 O.co2   1  UNL1       -0.4371
     27 O          24.7796   74.8649   -1.9891 O.2     1  UNL1       -0.5170
     28 O          22.7068   73.9441   -0.6765 O.3     1  UNL1       -0.2858
     29 O          23.7895   73.5727    1.3986 O.3     1  UNL1       -0.3258
     30 O          21.6894   70.0294    1.1067 O.3     1  UNL1       -0.3794
     31 O          20.8555   72.0200    3.0016 O.3     1  UNL1       -0.3794
     32 O          22.8754   71.2040   -1.2583 O.3     1  UNL1       -0.3775
     33 C          21.9079   71.4324    0.9356 C.3     1  UNL1        0.1715
     34 C          22.1048   72.0591    2.3174 C.3     1  UNL1        0.1694
     35 C          23.1478   71.6423    0.0684 C.3     1  UNL1        0.1967
     36 C          22.6066   73.5049    2.2035 C.3     1  UNL1        0.1761
     37 C          23.5916   73.1063    0.0625 C.3     1  UNL1        0.2704
     38 H          20.9032   69.8892    1.6561 H       1  UNL1        0.2105
     39 H          20.5496   71.1016    3.0663 H       1  UNL1        0.2105
     40 H          22.5958   70.2759   -1.2410 H       1  UNL1        0.2106
     41 O          21.7577   74.4069    4.2467 O.3     1  UNL1       -0.3794
     42 C          22.9598   74.0967    3.5663 C.3     1  UNL1        0.1693
     43 H          21.9670   74.7842    5.1160 H       1  UNL1        0.2105
@<TRIPOS>UNITY_ATOM_ATTR
2 1
charge -1
26 1
charge -1
@<TRIPOS>BOND
     1    25    28    1
     2    25    24    1
     3    25    26    1
     4    25    27    2
     5     1     4    1
     6     1    24    1
     7     1     2    1
     8     1     3    2
     9     6    11    1
    10     6    12    1
    11    29    36    1
    12    29    37    1
    13     7     9    1
    14     7    13    1
    15     8    10    1
    16     8    14    1
    17    28    37    1
    18     4     5    1
    19    30    33    1
    20    30    38    1
    21    31    34    1
    22    31    39    1
    23    32    35    1
    24    32    40    1
    25    41    42    1
    26    41    43    1
    27    15    19    2
    28    16    22    2
    29    17    12    1
    30    17    19   ar
    31    17    20   ar
    32    18    19   ar
    33    18    22   ar
    34    18    23    1
    35     9    10    1
    36     9    11    1
    37    10    12    1
    38    11     5    1
    39    33    34    1
    40    33    35    1
    41    34    36    1
    42    35    37    1
    43    36    42    1
    44    20    21   ar
    45    21    22   ar
@<TRIPOS>MOLECULE
*****
 43 45 0 0 0
SMALL
GASTEIGER

@<TRIPOS>ATOM
      1 P          20.8624   71.4814   -1.9936 P.3     1  UNL1        0.2189
      2 O          20.6019   72.4935   -3.2286 O.co2   1  UNL1       -0.4371
      3 O          22.3023   71.1380   -1.7484 O.2     1  UNL1       -0.5170
      4 O          19.8846   70.2302   -2.3039 O.3     1  UNL1       -0.3112
      5 C          19.4059   70.0580   -3.6264 C.3     1  UNL1        0.1811
      6 O          17.7399   71.2209   -4.9094 O.3     1  UNL1       -0.3308
      7 O          15.7127   69.7592   -3.2527 O.3     1  UNL1       -0.3794
      8 O          15.7235   68.3307   -5.5756 O.3     1  UNL1       -0.3779
      9 C          16.9771   69.3085   -3.7361 C.3     1  UNL1        0.1713
     10 C          16.9016   69.0263   -5.2221 C.3     1  UNL1        0.1895
     11 C          17.9452   70.4838   -3.6843 C.3     1  UNL1        0.1764
     12 C          16.9535   70.4256   -5.8116 C.3     1  UNL1        0.2383
     13 H          15.0777   69.0256   -3.2760 H       1  UNL1        0.2105
     14 H          15.7378   67.4467   -5.1768 H       1  UNL1        0.2106
     15 O          15.5273   70.5518   -8.2463 O.2     1  UNL1       -0.2464
     16 O          19.4077   70.5146  -10.7328 O.2     1  UNL1       -0.2670
     17 N          17.5659   70.4505   -7.1100 N.ar    1  UNL1       -0.2551
     18 N          17.4606   70.5333   -9.4824 N.ar    1  UNL1       -0.2743
     19 C          16.7593   70.5136   -8.2701 C.ar    1  UNL1        0.3323
     20 C          18.9513   70.4130   -7.2236 C.ar    1  UNL1        0.0869
     21 C          19.6047   70.4312   -8.3872 C.ar    1  UNL1        0.0795
     22 C          18.8362   70.4965   -9.6470 C.ar    1  UNL1        0.2626
     23 H          16.9195   70.5767  -10.3040 H       1  UNL1        0.1734
     24 O          20.1269   72.2194   -0.7576 O.3     1  UNL1       -0.2703
     25 P          20.2559   73.7288   -0.1937 P.3     1  UNL1        0.2208
     26 O          18.8601   73.9513    0.5935 O.co2   1  UNL1       -0.4371
     27 O          20.5426   74.7575   -1.2489 O.2     1  UNL1       -0.5170
     28 O          21.3701   73.6361    0.9704 O.3     1  UNL1       -0.2858
     29 O          22.2420   71.5182    1.5791 O.3     1  UNL1       -0.3258
     30 O          23.1969   73.6315    4.9956 O.3     1  UNL1       -0.3794
     31 O          25.2781   72.8809    3.1645 O.3     1  UNL1       -0.3794
     32 O          20.6837   74.1261    3.6469 O.3     1  UNL1       -0.3775
     33 C          22.9938   73.4465    3.5921 C.3     1  UNL1        0.1715
     34 C          23.9539   72.3580    3.1080 C.3     1  UNL1        0.1694
     35 C          21.5440   73.0321    3.3479 C.3     1  UNL1        0.1967
     36 C          23.6145   71.9159    1.6782 C.3     1  UNL1        0.1761
     37 C          21.3253   72.5638    1.9081 C.3     1  UNL1        0.2704
     38 H          24.1154   73.8953    5.1575 H       1  UNL1        0.2105
     39 H          25.4796   73.1568    4.0725 H       1  UNL1        0.2105
     40 H          20.8316   74.4130    4.5611 H       1  UNL1        0.2106
     41 O          24.8709   70.0102    2.3842 O.3     1  UNL1       -0.3794
     42 C          24.4578   70.7231    1.2330 C.3     1  UNL1        0.1693
     43 H          25.4084   69.2479    2.1162 H       1  UNL1        0.2105
@<TRIPOS>UNITY_ATOM_ATTR
2 1
charge -1
26 1
charge -1
@<TRIPOS>BOND
     1    25    28    1
     2    25    24    1
     3    25    26    1
     4    25    27    2
     5     1     4    1
     6     1    24    1
     7     1     2    1
     8     1     3    2
     9     6    11    1
    10     6    12    1
    11    29    36    1
    12    29    37    1
    13     7     9    1
    14     7    13    1
    15     8    10    1
    16     8    14    1
    17    28    37    1
    18     4     5    1
    19    30    33    1
    20    30    38    1
    21    31    34    1
    22    31    39    1
    23    32    35    1
    24    32    40    1
    25    41    42    1
    26    41    43    1
    27    15    19    2
    28    16    22    2
    29    17    12    1
    30    17    19   ar
    31    17    20   ar
    32    18    19   ar
    33    18    22   ar
    34    18    23    1
    35     9    10    1
    36     9    11    1
    37    10    12    1
    38    11     5    1
    39    33    34    1
    40    33    35    1
    41    34    36    1
    42    35    37    1
    43    36    42    1
    44    20    21   ar
    45    21    22   ar
@<TRIPOS>MOLECULE
*****
 43 45 0 0 0
SMALL
GASTEIGER

@<TRIPOS>ATOM
      1 P          21.8632   72.4768   -5.6589 P.3     1  UNL1        0.2189
      2 O          21.1772   73.9155   -5.3812 O.co2   1  UNL1       -0.4371
      3 O          23.1279   72.5228   -6.4651 O.2     1  UNL1       -0.5170
      4 O          20.6637   71.5886   -6.2834 O.3     1  UNL1       -0.3112
      5 C          20.1294   71.9629   -7.5412 C.3     1  UNL1        0.1811
      6 O          18.9015   69.9388   -7.1299 O.3     1  UNL1       -0.3308
      7 O          18.1397   70.0333  -10.0285 O.3     1  UNL1       -0.3794
      8 O          15.9061   70.9961   -8.7951 O.3     1  UNL1       -0.3779
      9 C          18.3149   71.1076   -9.1062 C.3     1  UNL1        0.1713
     10 C          17.1477   71.1695   -8.1431 C.3     1  UNL1        0.1895
     11 C          19.4714   70.7484   -8.1817 C.3     1  UNL1        0.1764
     12 C          17.4688   70.0345   -7.1856 C.3     1  UNL1        0.2383
     13 H          17.4064   70.2400  -10.6298 H       1  UNL1        0.2105
     14 H          15.7475   71.7433   -9.3928 H       1  UNL1        0.2106
     15 O          16.2929   68.0612   -5.5420 O.2     1  UNL1       -0.2464
     16 O          15.5728   71.0727   -2.1283 O.2     1  UNL1       -0.2670
     17 N          16.9658   70.2752   -5.8626 N.ar    1  UNL1       -0.2551
     18 N          15.9355   69.5623   -3.8435 N.ar    1  UNL1       -0.2743
     19 C          16.3931   69.2156   -5.1212 C.ar    1  UNL1        0.3323
     20 C          17.0432   71.5503   -5.3131 C.ar    1  UNL1        0.0869
     21 C          16.6011   71.8648   -4.0938 C.ar    1  UNL1        0.0795
     22 C          15.9890   70.8152   -3.2536 C.ar    1  UNL1        0.2626
     23 H          15.5323   68.8403   -3.3088 H       1  UNL1        0.1734
     24 O          22.0345   71.8630   -4.1733 O.3     1  UNL1       -0.2703
     25 P          23.2473   71.9772   -3.1108 P.3     1  UNL1        0.2208
     26 O          23.9245   73.4013   -3.4725 O.co2   1  UNL1       -0.4371
     27 O          24.1980   70.8155   -3.1350 O.2     1  UNL1       -0.5170
     28 O          22.5233   72.2195   -1.6889 O.3     1  UNL1       -0.2858
     29 O          22.3370   74.0588   -0.2060 O.3     1  UNL1       -0.3258
     30 O          23.1042   71.0723    2.5404 O.3     1  UNL1       -0.3794
     31 O          20.4657   72.1924    2.3637 O.3     1  UNL1       -0.3794
     32 O          24.4592   71.0645   -0.0176 O.3     1  UNL1       -0.3775
     33 C          22.5559   71.6332    1.3445 C.3     1  UNL1        0.1715
     34 C          21.6087   72.7685    1.7377 C.3     1  UNL1        0.1694
     35 C          23.6943   72.1603    0.4728 C.3     1  UNL1        0.1967
     36 C          21.1892   73.5898    0.5112 C.3     1  UNL1        0.1761
     37 C          23.1706   73.0042   -0.6906 C.3     1  UNL1        0.2704
     38 H          22.3867   70.7353    3.0981 H       1  UNL1        0.2105
     39 H          20.7444   71.6761    3.1363 H       1  UNL1        0.2105
     40 H          24.7853   70.5383    0.7284 H       1  UNL1        0.2106
     41 O          20.6312   75.1217    2.2579 O.3     1  UNL1       -0.3794
     42 C          20.3721   74.8203    0.8991 C.3     1  UNL1        0.1693
     43 H          20.1181   75.9030    2.5186 H       1  UNL1        0.2105
@<TRIPOS>UNITY_ATOM_ATTR
2 1
charge -1
26 1
charge -1
@<TRIPOS>BOND
     1    25    28    1
     2    25    24    1
     3    25    26    1
     4    25    27    2
     5     1     4    1
     6     1    24    1
     7     1     2    1
     8     1     3    2
     9     6    11    1
    10     6    12    1
    11    29    36    1
    12    29    37    1
    13     7     9    1
    14     7    13    1
    15     8    10    1
    16     8    14    1
    17    28    37    1
    18     4     5    1
    19    30    33    1
    20    30    38    1
    21    31    34    1
    22    31    39    1
    23    32    35    1
    24    32    40    1
    25    41    42    1
    26    41    43    1
    27    15    19    2
    28    16    22    2
    29    17    12    1
    30    17    19   ar
    31    17    20   ar
    32    18    19   ar
    33    18    22   ar
    34    18    23    1
    35     9    10    1
    36     9    11    1
    37    10    12    1
    38    11     5    1
    39    33    34    1
    40    33    35    1
    41    34    36    1
    42    35    37    1
    43    36    42    1
    44    20    21   ar
    45    21    22   ar
@<TRIPOS>MOLECULE
*****
 43 45 0 0 0
SMALL
GASTEIGER

@<TRIPOS>ATOM
      1 P          20.1424   72.0223   -1.8260 P.3     1  UNL1        0.2189
      2 O          20.3523   70.6505   -0.9944 O.co2   1  UNL1       -0.4371
      3 O          18.9863   72.8660   -1.3754 O.2     1  UNL1       -0.5170
      4 O          20.0996   71.5383   -3.3693 O.3     1  UNL1       -0.3112
      5 C          19.3552   70.3769   -3.6932 C.3     1  UNL1        0.1811
      6 O          17.6974   71.3908   -5.1065 O.3     1  UNL1       -0.3308
      7 O          15.6624   69.9892   -3.4080 O.3     1  UNL1       -0.3794
      8 O          15.7890   68.3977   -5.6188 O.3     1  UNL1       -0.3779
      9 C          16.9541   69.5450   -3.8195 C.3     1  UNL1        0.1713
     10 C          16.9343   69.1540   -5.2825 C.3     1  UNL1        0.1895
     11 C          17.8852   70.7510   -3.8252 C.3     1  UNL1        0.1764
     12 C          16.9638   70.5079   -5.9710 C.3     1  UNL1        0.2383
     13 H          15.0502   69.2361   -3.3963 H       1  UNL1        0.2105
     14 H          15.8165   67.5457   -5.1561 H       1  UNL1        0.2106
     15 O          15.6263   70.6782   -8.4529 O.2     1  UNL1       -0.2464
     16 O          19.5687   70.3049  -10.8107 O.2     1  UNL1       -0.2670
     17 N          17.6161   70.4584   -7.2490 N.ar    1  UNL1       -0.2551
     18 N          17.5904   70.4924   -9.6249 N.ar    1  UNL1       -0.2743
     19 C          16.8524   70.5515   -8.4358 C.ar    1  UNL1        0.3323
     20 C          18.9981   70.3192   -7.3168 C.ar    1  UNL1        0.0869
     21 C          19.6867   70.2632   -8.4587 C.ar    1  UNL1        0.0795
     22 C          18.9642   70.3534   -9.7439 C.ar    1  UNL1        0.2626
     23 H          17.0794   70.5549  -10.4644 H       1  UNL1        0.1734
     24 O          21.5854   72.7417   -1.7107 O.3     1  UNL1       -0.2703
     25 P          22.5330   73.0212   -0.4313 P.3     1  UNL1        0.2208
     26 O          21.5093   72.9212    0.8175 O.co2   1  UNL1       -0.4371
     27 O          23.2987   74.3106   -0.5027 O.2     1  UNL1       -0.5170
     28 O          23.4547   71.7018   -0.3096 O.3     1  UNL1       -0.2858
     29 O          24.8802   72.1139    1.5383 O.3     1  UNL1       -0.3258
     30 O          21.2391   72.1875    3.4846 O.3     1  UNL1       -0.3794
     31 O          22.6748   74.6399    3.0694 O.3     1  UNL1       -0.3794
     32 O          21.7007   70.2799    1.3568 O.3     1  UNL1       -0.3775
     33 C          22.1388   72.4086    2.3951 C.3     1  UNL1        0.1715
     34 C          23.2468   73.3500    2.8716 C.3     1  UNL1        0.1694
     35 C          22.7249   71.0693    1.9521 C.3     1  UNL1        0.1967
     36 C          24.3892   73.4230    1.8495 C.3     1  UNL1        0.1761
     37 C          23.8859   71.2567    0.9738 C.3     1  UNL1        0.2704
     38 H          20.8631   73.0339    3.7703 H       1  UNL1        0.2105
     39 H          21.9545   74.5798    3.7164 H       1  UNL1        0.2105
     40 H          20.9717   70.1683    1.9861 H       1  UNL1        0.2106
     41 O          26.6465   73.3423    2.6287 O.3     1  UNL1       -0.3794
     42 C          25.5745   74.2310    2.3734 C.3     1  UNL1        0.1693
     43 H          27.4080   73.8427    2.9624 H       1  UNL1        0.2105
@<TRIPOS>UNITY_ATOM_ATTR
2 1
charge -1
26 1
charge -1
@<TRIPOS>BOND
     1    25    28    1
     2    25    24    1
     3    25    26    1
     4    25    27    2
     5     1     4    1
     6     1    24    1
     7     1     2    1
     8     1     3    2
     9     6    11    1
    10     6    12    1
    11    29    36    1
    12    29    37    1
    13     7     9    1
    14     7    13    1
    15     8    10    1
    16     8    14    1
    17    28    37    1
    18     4     5    1
    19    30    33    1
    20    30    38    1
    21    31    34    1
    22    31    39    1
    23    32    35    1
    24    32    40    1
    25    41    42    1
    26    41    43    1
    27    15    19    2
    28    16    22    2
    29    17    12    1
    30    17    19   ar
    31    17    20   ar
    32    18    19   ar
    33    18    22   ar
    34    18    23    1
    35     9    10    1
    36     9    11    1
    37    10    12    1
    38    11     5    1
    39    33    34    1
    40    33    35    1
    41    34    36    1
    42    35    37    1
    43    36    42    1
    44    20    21   ar
    45    21    22   ar
@<TRIPOS>MOLECULE
*****
 43 45 0 0 0
SMALL
GASTEIGER

@<TRIPOS>ATOM
      1 P          22.8037   71.1147    1.0419 P.3     1  UNL1        0.2189
      2 O          24.1884   70.4193    1.5072 O.co2   1  UNL1       -0.4371
      3 O          21.6227   70.1917    0.9736 O.2     1  UNL1       -0.5170
      4 O          23.1903   71.8645   -0.3387 O.3     1  UNL1       -0.3112
      5 C          22.1763   72.0598   -1.3089 C.3     1  UNL1        0.1811
      6 O          21.8889   70.4972   -3.1116 O.3     1  UNL1       -0.3308
      7 O          23.5229   72.3910   -4.7652 O.3     1  UNL1       -0.3794
      8 O          20.9762   72.9491   -5.5648 O.3     1  UNL1       -0.3779
      9 C          22.5667   72.6775   -3.7460 C.3     1  UNL1        0.1713
     10 C          21.1624   72.4387   -4.2603 C.3     1  UNL1        0.1895
     11 C          22.6963   71.6094   -2.6672 C.3     1  UNL1        0.1764
     12 C          21.0601   70.9239   -4.2051 C.3     1  UNL1        0.2383
     13 H          23.4594   73.0601   -5.4653 H       1  UNL1        0.2105
     14 H          21.0506   73.9160   -5.5475 H       1  UNL1        0.2106
     15 O          19.1310   70.5550   -6.2351 O.2     1  UNL1       -0.2464
     16 O          15.9357   69.1947   -3.2052 O.2     1  UNL1       -0.2670
     17 N          19.7163   70.4738   -3.9750 N.ar    1  UNL1       -0.2551
     18 N          17.5416   69.8778   -4.7248 N.ar    1  UNL1       -0.2743
     19 C          18.8260   70.3224   -5.0636 C.ar    1  UNL1        0.3323
     20 C          19.2933   70.1873   -2.6816 C.ar    1  UNL1        0.0869
     21 C          18.0647   69.7654   -2.3752 C.ar    1  UNL1        0.0795
     22 C          17.0733   69.5812   -3.4546 C.ar    1  UNL1        0.2626
     23 H          16.9041   69.7654   -5.4669 H       1  UNL1        0.1734
     24 O          22.6422   72.3376    2.0866 O.3     1  UNL1       -0.2703
     25 P          21.4231   73.3703    2.3318 P.3     1  UNL1        0.2208
     26 O          20.2305   72.4164    2.8659 O.co2   1  UNL1       -0.4371
     27 O          21.0647   74.1957    1.1300 O.2     1  UNL1       -0.5170
     28 O          21.8684   74.2286    3.6241 O.3     1  UNL1       -0.2858
     29 O          23.9411   75.2820    4.0830 O.3     1  UNL1       -0.3258
     30 O          22.9302   74.1181    7.9137 O.3     1  UNL1       -0.3794
     31 O          22.7846   76.8936    7.1901 O.3     1  UNL1       -0.3794
     32 O          22.3525   72.3757    5.6754 O.3     1  UNL1       -0.3775
     33 C          22.6802   74.5821    6.5842 C.3     1  UNL1        0.1715
     34 C          23.4253   75.9041    6.3896 C.3     1  UNL1        0.1694
     35 C          23.1748   73.5345    5.5886 C.3     1  UNL1        0.1967
     36 C          23.4255   76.3280    4.9147 C.3     1  UNL1        0.1761
     37 C          23.1811   74.0742    4.1572 C.3     1  UNL1        0.2704
     38 H          22.6179   74.7785    8.5508 H       1  UNL1        0.2105
     39 H          22.7908   76.6135    8.1189 H       1  UNL1        0.2105
     40 H          22.3572   72.0436    6.5861 H       1  UNL1        0.2106
     41 O          23.6545   78.6826    5.2495 O.3     1  UNL1       -0.3794
     42 C          24.2957   77.5595    4.6736 C.3     1  UNL1        0.1693
     43 H          24.1972   79.4739    5.1041 H       1  UNL1        0.2105
@<TRIPOS>UNITY_ATOM_ATTR
2 1
charge -1
26 1
charge -1
@<TRIPOS>BOND
     1    25    28    1
     2    25    24    1
     3    25    26    1
     4    25    27    2
     5     1     4    1
     6     1    24    1
     7     1     2    1
     8     1     3    2
     9     6    11    1
    10     6    12    1
    11    29    36    1
    12    29    37    1
    13     7     9    1
    14     7    13    1
    15     8    10    1
    16     8    14    1
    17    28    37    1
    18     4     5    1
    19    30    33    1
    20    30    38    1
    21    31    34    1
    22    31    39    1
    23    32    35    1
    24    32    40    1
    25    41    42    1
    26    41    43    1
    27    15    19    2
    28    16    22    2
    29    17    12    1
    30    17    19   ar
    31    17    20   ar
    32    18    19   ar
    33    18    22   ar
    34    18    23    1
    35     9    10    1
    36     9    11    1
    37    10    12    1
    38    11     5    1
    39    33    34    1
    40    33    35    1
    41    34    36    1
    42    35    37    1
    43    36    42    1
    44    20    21   ar
    45    21    22   ar
