@<TRIPOS>MOLECULE
UD1
 46 48 0 0 0
SMALL
GASTEIGER

@<TRIPOS>ATOM
      1 P          21.0597   70.9239   -3.4442 P.3     1  UNL1        0.2189
      2 O          20.5950   69.6691   -4.0753 O.2     1  UNL1       -0.5170
      3 O          21.6300   70.6053   -1.9725 O.3     1  UNL1       -0.4371
      4 O          19.8279   71.9546   -3.3297 O.3     1  UNL1       -0.3112
      5 C          18.7911   71.2825   -2.6129 C.3     1  UNL1        0.1811
      6 C          17.1124   70.6878   -5.7363 C.3     1  UNL1        0.2383
      7 C          17.1725   69.2968   -5.0569 C.3     1  UNL1        0.1895
      8 O          16.0512   68.4959   -5.4319 O.3     1  UNL1       -0.3779
      9 C          17.1100   69.6664   -3.5520 C.3     1  UNL1        0.1713
     10 C          17.5602   71.1395   -3.5093 C.3     1  UNL1        0.1764
     11 O          17.8871   71.5280   -4.8545 O.3     1  UNL1       -0.3308
     12 O          15.7757   69.5298   -3.0583 O.3     1  UNL1       -0.3794
     13 H          16.1486   67.6475   -4.9779 H       1  UNL1        0.2106
     14 H          15.5315   68.6010   -3.1668 H       1  UNL1        0.2105
     15 N          17.7166   70.6419   -7.0683 N.ar    1  UNL1       -0.2551
     16 C          16.9355   70.4690   -8.1487 C.ar    1  UNL1        0.3323
     17 N          17.4636   70.4267   -9.3863 N.ar    1  UNL1       -0.2743
     18 C          18.7949   70.5488   -9.5615 C.ar    1  UNL1        0.2626
     19 C          19.6295   70.7254   -8.4323 C.ar    1  UNL1        0.0795
     20 C          19.0729   70.7694   -7.2028 C.ar    1  UNL1        0.0869
     21 O          15.7330   70.3574   -8.0069 O.2     1  UNL1       -0.2464
     22 O          19.2739   70.5060  -10.6795 O.2     1  UNL1       -0.2670
     23 H          16.8847   70.3061  -10.1547 H       1  UNL1        0.1734
     24 O          22.2241   71.5772   -4.3422 O.3     1  UNL1       -0.2703
     25 P          23.3967   72.0195   -3.3329 P.3     1  UNL1        0.2208
     26 O          24.2928   72.9826   -4.0099 O.2     1  UNL1       -0.5170
     27 O          24.2412   70.7227   -2.8888 O.3     1  UNL1       -0.4371
     28 O          22.7526   72.7107   -2.0298 O.3     1  UNL1       -0.2865
     29 C          23.5675   73.8410   -1.7145 C.3     1  UNL1        0.2611
     30 C          23.5617   74.0613   -0.2008 C.3     1  UNL1        0.1582
     31 C          22.1196   74.2865    0.2674 C.3     1  UNL1        0.1625
     32 C          21.5077   75.4225   -0.5592 C.3     1  UNL1        0.1686
     33 C          21.6658   75.0979   -2.0461 C.3     1  UNL1        0.1760
     34 O          22.1153   74.6410    1.6515 O.3     1  UNL1       -0.3801
     35 O          20.1205   75.5511   -0.2415 O.3     1  UNL1       -0.3794
     36 O          23.0512   74.9958   -2.3727 O.3     1  UNL1       -0.3263
     37 H          21.1909   74.7726    1.9034 H       1  UNL1        0.2105
     38 H          19.7754   76.2749   -0.7833 H       1  UNL1        0.2105
     39 C          24.8898   73.0284    1.5609 C.2     1  UNL1        0.2231
     40 C          25.4608   71.8146    2.2486 C.3     1  UNL1        0.0946
     41 N          24.1162   72.8825    0.4680 N.am    1  UNL1       -0.2994
     42 O          25.1275   74.1369    1.9910 O.2     1  UNL1       -0.2751
     43 H          23.9260   71.9955    0.1234 H       1  UNL1        0.1496
     44 C          21.0287   76.2111   -2.8804 C.3     1  UNL1        0.1693
     45 O          21.1628   77.4574   -2.1942 O.3     1  UNL1       -0.3794
     46 H          20.7494   78.1300   -2.7521 H       1  UNL1        0.2105
@<TRIPOS>BOND
     1    29    30    1
     2    29    28    1
     3    29    36    1
     4    30    31    1
     5    30    41    1
     6    31    32    1
     7    31    34    1
     8    32    33    1
     9    32    35    1
    10    33    44    1
    11    33    36    1
    12    44    45    1
    13    39    40    1
    14    39    41   am
    15    39    42    2
    16    41    43    1
    17    28    25    1
    18    34    37    1
    19    35    38    1
    20    45    46    1
    21    15    16   ar
    22    15    20   ar
    23    15     6    1
    24    16    17   ar
    25    16    21    2
    26    17    18   ar
    27    17    23    1
    28    18    19   ar
    29    18    22    2
    30    19    20   ar
    31     6     7    1
    32     6    11    1
    33     7     8    1
    34     7     9    1
    35     8    13    1
    36     9    10    1
    37     9    12    1
    38    10    11    1
    39    10     5    1
    40    12    14    1
    41     5     4    1
    42     4     1    1
    43     1     2    2
    44     1     3    1
    45     1    24    1
    46    24    25    1
    47    25    26    2
    48    25    27    1
@<TRIPOS>MOLECULE
UD1
 46 48 0 0 0
SMALL
GASTEIGER

@<TRIPOS>ATOM
      1 P          20.3280   71.0549   -1.8020 P.3     1  UNL1        0.2189
      2 O          20.3281   72.5259   -1.9599 O.2     1  UNL1       -0.5170
      3 O          21.4899   70.4169   -2.7161 O.3     1  UNL1       -0.4371
      4 O          18.9013   70.4665   -2.2612 O.3     1  UNL1       -0.3112
      5 C          18.0829   71.5859   -2.6043 C.3     1  UNL1        0.1811
      6 C          16.8226   70.5216   -5.7990 C.3     1  UNL1        0.2383
      7 C          17.1357   69.2039   -5.0467 C.3     1  UNL1        0.1895
      8 O          16.2512   68.1597   -5.4547 O.3     1  UNL1       -0.3779
      9 C          16.8774   69.6026   -3.5703 C.3     1  UNL1        0.1713
     10 C          16.9867   71.1396   -3.5730 C.3     1  UNL1        0.1764
     11 O          17.3225   71.5441   -4.9113 O.3     1  UNL1       -0.3308
     12 O          15.5722   69.1881   -3.1612 O.3     1  UNL1       -0.3794
     13 H          16.4981   67.3710   -4.9523 H       1  UNL1        0.2106
     14 H          15.5481   68.2250   -3.2382 H       1  UNL1        0.2105
     15 N          17.5229   70.5654   -7.0832 N.ar    1  UNL1       -0.2551
     16 C          16.8206   70.5004   -8.2276 C.ar    1  UNL1        0.3323
     17 N          17.4381   70.5425   -9.4231 N.ar    1  UNL1       -0.2743
     18 C          18.7810   70.6421   -9.4912 C.ar    1  UNL1        0.2626
     19 C          19.5331   70.7054   -8.2940 C.ar    1  UNL1        0.0795
     20 C          18.8878   70.6665   -7.1085 C.ar    1  UNL1        0.0869
     21 O          15.6088   70.4105   -8.1827 O.2     1  UNL1       -0.2464
     22 O          19.3406   70.6754  -10.5715 O.2     1  UNL1       -0.2670
     23 H          16.9154   70.4992  -10.2387 H       1  UNL1        0.1734
     24 O          20.5912   70.6808   -0.2594 O.3     1  UNL1       -0.2703
     25 P          22.0236   71.3010    0.1315 P.3     1  UNL1        0.2208
     26 O          22.8483   71.4447   -1.0883 O.2     1  UNL1       -0.5170
     27 O          22.7683   70.3211    1.1695 O.3     1  UNL1       -0.4371
     28 O          21.8170   72.7446    0.8126 O.3     1  UNL1       -0.2865
     29 C          20.7672   72.6041    1.7714 C.3     1  UNL1        0.2611
     30 C          19.9210   73.8784    1.7841 C.3     1  UNL1        0.1582
     31 C          20.8172   75.0717    2.1340 C.3     1  UNL1        0.1625
     32 C          21.5535   74.7648    3.4424 C.3     1  UNL1        0.1686
     33 C          22.2791   73.4249    3.3033 C.3     1  UNL1        0.1760
     34 O          20.0143   76.2424    2.2958 O.3     1  UNL1       -0.3801
     35 O          22.5028   75.7985    3.7104 O.3     1  UNL1       -0.3794
     36 O          21.3310   72.3858    3.0628 O.3     1  UNL1       -0.3263
     37 H          20.6170   76.9666    2.5141 H       1  UNL1        0.2105
     38 H          22.9431   75.5656    4.5401 H       1  UNL1        0.2105
     39 C          18.0252   74.4218    0.3541 C.2     1  UNL1        0.2231
     40 C          17.4115   74.6325   -1.0065 C.3     1  UNL1        0.0946
     41 N          19.3245   74.0837    0.4626 N.am    1  UNL1       -0.2994
     42 O          17.3490   74.5561    1.3516 O.2     1  UNL1       -0.2751
     43 H          19.8658   73.9759   -0.3355 H       1  UNL1        0.1496
     44 C          23.0444   73.1245    4.5938 C.3     1  UNL1        0.1693
     45 O          22.1228   72.7405    5.6162 O.3     1  UNL1       -0.3794
     46 H          22.6445   72.5609    6.4101 H       1  UNL1        0.2105
@<TRIPOS>BOND
     1    29    30    1
     2    29    28    1
     3    29    36    1
     4    30    31    1
     5    30    41    1
     6    31    32    1
     7    31    34    1
     8    32    33    1
     9    32    35    1
    10    33    44    1
    11    33    36    1
    12    44    45    1
    13    39    40    1
    14    39    41   am
    15    39    42    2
    16    41    43    1
    17    28    25    1
    18    34    37    1
    19    35    38    1
    20    45    46    1
    21    15    16   ar
    22    15    20   ar
    23    15     6    1
    24    16    17   ar
    25    16    21    2
    26    17    18   ar
    27    17    23    1
    28    18    19   ar
    29    18    22    2
    30    19    20   ar
    31     6     7    1
    32     6    11    1
    33     7     8    1
    34     7     9    1
    35     8    13    1
    36     9    10    1
    37     9    12    1
    38    10    11    1
    39    10     5    1
    40    12    14    1
    41     5     4    1
    42     4     1    1
    43     1     2    2
    44     1     3    1
    45     1    24    1
    46    24    25    1
    47    25    26    2
    48    25    27    1
@<TRIPOS>MOLECULE
UD1
 46 48 0 0 0
SMALL
GASTEIGER

@<TRIPOS>ATOM
      1 P          20.7123   71.2303   -3.1502 P.3     1  UNL1        0.2189
      2 O          20.2046   72.5753   -2.8012 O.2     1  UNL1       -0.5170
      3 O          21.3212   71.2565   -4.6405 O.3     1  UNL1       -0.4371
      4 O          19.5046   70.1674   -3.0835 O.3     1  UNL1       -0.3112
      5 C          18.3866   70.8467   -2.5098 C.3     1  UNL1        0.1811
      6 C          16.8859   70.5244   -5.7612 C.3     1  UNL1        0.2383
      7 C          16.8619   69.0891   -5.1785 C.3     1  UNL1        0.1895
      8 O          15.7420   68.3548   -5.6745 O.3     1  UNL1       -0.3779
      9 C          16.7182   69.3573   -3.6578 C.3     1  UNL1        0.1713
     10 C          17.2094   70.8076   -3.4854 C.3     1  UNL1        0.1764
     11 O          17.6300   71.2753   -4.7783 O.3     1  UNL1       -0.3308
     12 O          15.3525   69.2335   -3.2548 O.3     1  UNL1       -0.3794
     13 H          15.7855   67.4745   -5.2761 H       1  UNL1        0.2106
     14 H          15.0874   68.3232   -3.4424 H       1  UNL1        0.2105
     15 N          17.5693   70.5484   -7.0549 N.ar    1  UNL1       -0.2551
     16 C          16.8499   70.4962   -8.1895 C.ar    1  UNL1        0.3323
     17 N          17.4516   70.5206   -9.3935 N.ar    1  UNL1       -0.2743
     18 C          18.7954   70.5891   -9.4802 C.ar    1  UNL1        0.2626
     19 C          19.5652   70.6386   -8.2937 C.ar    1  UNL1        0.0795
     20 C          18.9356   70.6180   -7.0993 C.ar    1  UNL1        0.0869
     21 O          15.6371   70.4343   -8.1276 O.2     1  UNL1       -0.2464
     22 O          19.3407   70.6064  -10.5682 O.2     1  UNL1       -0.2670
     23 H          16.9169   70.4870  -10.2016 H       1  UNL1        0.1734
     24 O          21.8610   70.8031   -2.1076 O.3     1  UNL1       -0.2703
     25 P          23.1279   71.7521   -2.3971 P.3     1  UNL1        0.2208
     26 O          22.7481   72.7978   -3.3723 O.2     1  UNL1       -0.5170
     27 O          24.3332   70.8705   -2.9988 O.3     1  UNL1       -0.4371
     28 O          23.6051   72.4456   -1.0253 O.3     1  UNL1       -0.2865
     29 C          22.7600   71.9408    0.0102 C.3     1  UNL1        0.2611
     30 C          22.1135   73.1129    0.7507 C.3     1  UNL1        0.1582
     31 C          23.2144   74.0040    1.3369 C.3     1  UNL1        0.1625
     32 C          24.1501   73.1343    2.1833 C.3     1  UNL1        0.1686
     33 C          24.6454   71.9622    1.3335 C.3     1  UNL1        0.1760
     34 O          22.6258   75.0166    2.1551 O.3     1  UNL1       -0.3801
     35 O          25.2645   73.9153    2.6188 O.3     1  UNL1       -0.3794
     36 O          23.5370   71.1645    0.9196 O.3     1  UNL1       -0.3263
     37 H          23.3521   75.5526    2.5021 H       1  UNL1        0.2105
     38 H          25.8269   73.3303    3.1462 H       1  UNL1        0.2105
     39 C          21.8044   74.9960   -0.7634 C.2     1  UNL1        0.2231
     40 C          20.9634   75.7977   -1.7237 C.3     1  UNL1        0.0946
     41 N          21.2971   73.8917   -0.1827 N.am    1  UNL1       -0.2994
     42 O          22.9381   75.3456   -0.5127 O.2     1  UNL1       -0.2751
     43 H          20.3898   73.6118   -0.3830 H       1  UNL1        0.1496
     44 C          25.6066   71.1052    2.1599 C.3     1  UNL1        0.1693
     45 O          24.9152   69.9574    2.6564 O.3     1  UNL1       -0.3794
     46 H          25.5548   69.4460    3.1703 H       1  UNL1        0.2105
@<TRIPOS>BOND
     1    29    30    1
     2    29    28    1
     3    29    36    1
     4    30    31    1
     5    30    41    1
     6    31    32    1
     7    31    34    1
     8    32    33    1
     9    32    35    1
    10    33    44    1
    11    33    36    1
    12    44    45    1
    13    39    40    1
    14    39    41   am
    15    39    42    2
    16    41    43    1
    17    28    25    1
    18    34    37    1
    19    35    38    1
    20    45    46    1
    21    15    16   ar
    22    15    20   ar
    23    15     6    1
    24    16    17   ar
    25    16    21    2
    26    17    18   ar
    27    17    23    1
    28    18    19   ar
    29    18    22    2
    30    19    20   ar
    31     6     7    1
    32     6    11    1
    33     7     8    1
    34     7     9    1
    35     8    13    1
    36     9    10    1
    37     9    12    1
    38    10    11    1
    39    10     5    1
    40    12    14    1
    41     5     4    1
    42     4     1    1
    43     1     2    2
    44     1     3    1
    45     1    24    1
    46    24    25    1
    47    25    26    2
    48    25    27    1
@<TRIPOS>MOLECULE
UD1
 46 48 0 0 0
SMALL
GASTEIGER

@<TRIPOS>ATOM
      1 P          21.0661   71.1119   -2.4713 P.3     1  UNL1        0.2189
      2 O          21.4718   69.9488   -3.2906 O.2     1  UNL1       -0.5170
      3 O          20.9168   70.6592   -0.9333 O.3     1  UNL1       -0.4371
      4 O          19.6548   71.6761   -3.0031 O.3     1  UNL1       -0.3112
      5 C          18.6390   70.8384   -2.4491 C.3     1  UNL1        0.1811
      6 C          17.0192   70.5426   -5.6453 C.3     1  UNL1        0.2383
      7 C          16.9925   69.1074   -5.0623 C.3     1  UNL1        0.1895
      8 O          15.8440   68.3917   -5.5184 O.3     1  UNL1       -0.3779
      9 C          16.9071   69.3770   -3.5374 C.3     1  UNL1        0.1713
     10 C          17.4275   70.8190   -3.3824 C.3     1  UNL1        0.1764
     11 O          17.8097   71.2807   -4.6894 O.3     1  UNL1       -0.3308
     12 O          15.5547   69.2750   -3.0863 O.3     1  UNL1       -0.3794
     13 H          15.8873   67.5106   -5.1218 H       1  UNL1        0.2106
     14 H          15.2684   68.3693   -3.2646 H       1  UNL1        0.2105
     15 N          17.6566   70.5564   -6.9625 N.ar    1  UNL1       -0.2551
     16 C          16.8981   70.4904   -8.0705 C.ar    1  UNL1        0.3323
     17 N          17.4571   70.5052   -9.2950 N.ar    1  UNL1       -0.2743
     18 C          18.7967   70.5776   -9.4296 C.ar    1  UNL1        0.2626
     19 C          19.6075   70.6415   -8.2714 C.ar    1  UNL1        0.0795
     20 C          19.0203   70.6304   -7.0555 C.ar    1  UNL1        0.0869
     21 O          15.6884   70.4248   -7.9655 O.2     1  UNL1       -0.2464
     22 O          19.3035   70.5862  -10.5362 O.2     1  UNL1       -0.2670
     23 H          16.8945   70.4617  -10.0835 H       1  UNL1        0.1734
     24 O          22.1824   72.2650   -2.5864 O.3     1  UNL1       -0.2703
     25 P          22.4279   72.5193   -4.1562 P.3     1  UNL1        0.2208
     26 O          21.8129   71.4224   -4.9356 O.2     1  UNL1       -0.5170
     27 O          24.0099   72.5655   -4.4521 O.3     1  UNL1       -0.4371
     28 O          21.7622   73.9207   -4.5846 O.3     1  UNL1       -0.2865
     29 C          21.7155   73.9380   -6.0125 C.3     1  UNL1        0.2611
     30 C          22.2911   75.2610   -6.5206 C.3     1  UNL1        0.1582
     31 C          21.4738   76.4197   -5.9384 C.3     1  UNL1        0.1625
     32 C          19.9940   76.1861   -6.2603 C.3     1  UNL1        0.1686
     33 C          19.5909   74.7942   -5.7689 C.3     1  UNL1        0.1760
     34 O          21.9056   77.6507   -6.5214 O.3     1  UNL1       -0.3801
     35 O          19.1999   77.1752   -5.6025 O.3     1  UNL1       -0.3794
     36 O          20.3632   73.8021   -6.4440 O.3     1  UNL1       -0.3263
     37 H          21.3667   78.3505   -6.1275 H       1  UNL1        0.2105
     38 H          18.2777   76.9908   -5.8310 H       1  UNL1        0.2105
     39 C          23.9924   76.0481   -4.9648 C.2     1  UNL1        0.2231
     40 C          25.4297   76.1741   -4.5282 C.3     1  UNL1        0.0946
     41 N          23.6872   75.3833   -6.0957 N.am    1  UNL1       -0.2994
     42 O          23.1104   76.5460   -4.2982 O.2     1  UNL1       -0.2751
     43 H          24.3929   74.9849   -6.6295 H       1  UNL1        0.1496
     44 C          18.1059   74.5634   -6.0565 C.3     1  UNL1        0.1693
     45 O          17.9582   73.9516   -7.3395 O.3     1  UNL1       -0.3794
     46 H          17.0105   73.8243   -7.4813 H       1  UNL1        0.2105
@<TRIPOS>BOND
     1    29    30    1
     2    29    28    1
     3    29    36    1
     4    30    31    1
     5    30    41    1
     6    31    32    1
     7    31    34    1
     8    32    33    1
     9    32    35    1
    10    33    44    1
    11    33    36    1
    12    44    45    1
    13    39    40    1
    14    39    41   am
    15    39    42    2
    16    41    43    1
    17    28    25    1
    18    34    37    1
    19    35    38    1
    20    45    46    1
    21    15    16   ar
    22    15    20   ar
    23    15     6    1
    24    16    17   ar
    25    16    21    2
    26    17    18   ar
    27    17    23    1
    28    18    19   ar
    29    18    22    2
    30    19    20   ar
    31     6     7    1
    32     6    11    1
    33     7     8    1
    34     7     9    1
    35     8    13    1
    36     9    10    1
    37     9    12    1
    38    10    11    1
    39    10     5    1
    40    12    14    1
    41     5     4    1
    42     4     1    1
    43     1     2    2
    44     1     3    1
    45     1    24    1
    46    24    25    1
    47    25    26    2
    48    25    27    1
@<TRIPOS>MOLECULE
UD1
 46 48 0 0 0
SMALL
GASTEIGER

@<TRIPOS>ATOM
      1 P          20.8615   71.2765   -1.9367 P.3     1  UNL1        0.2189
      2 O          21.3684   70.3402   -2.9639 O.2     1  UNL1       -0.5170
      3 O          21.0338   70.6174   -0.4778 O.3     1  UNL1       -0.4371
      4 O          19.3031   71.5773   -2.2079 O.3     1  UNL1       -0.3112
      5 C          18.6731   70.3171   -2.4430 C.3     1  UNL1        0.1811
      6 C          17.0518   70.4662   -5.6487 C.3     1  UNL1        0.2383
      7 C          16.8586   69.0010   -5.1837 C.3     1  UNL1        0.1895
      8 O          15.6395   68.4595   -5.6935 O.3     1  UNL1       -0.3779
      9 C          16.7940   69.1545   -3.6419 C.3     1  UNL1        0.1713
     10 C          17.4735   70.5108   -3.3718 C.3     1  UNL1        0.1764
     11 O          17.9144   71.0301   -4.6380 O.3     1  UNL1       -0.3308
     12 O          15.4358   69.1707   -3.1972 O.3     1  UNL1       -0.3794
     13 H          15.5799   67.5501   -5.3697 H       1  UNL1        0.2106
     14 H          15.0498   68.3207   -3.4475 H       1  UNL1        0.2105
     15 N          17.6956   70.5138   -6.9619 N.ar    1  UNL1       -0.2551
     16 C          16.9417   70.4910   -8.0748 C.ar    1  UNL1        0.3323
     17 N          17.5066   70.5376   -9.2958 N.ar    1  UNL1       -0.2743
     18 C          18.8476   70.5990   -9.4222 C.ar    1  UNL1        0.2626
     19 C          19.6535   70.6177   -8.2590 C.ar    1  UNL1        0.0795
     20 C          19.0605   70.5753   -7.0466 C.ar    1  UNL1        0.0869
     21 O          15.7309   70.4358   -7.9772 O.2     1  UNL1       -0.2464
     22 O          19.3596   70.6364  -10.5257 O.2     1  UNL1       -0.2670
     23 H          16.9473   70.5250  -10.0877 H       1  UNL1        0.1734
     24 O          21.6934   72.6520   -2.0069 O.3     1  UNL1       -0.2703
     25 P          23.0712   72.4029   -1.2137 P.3     1  UNL1        0.2208
     26 O          23.9469   73.5860   -1.3629 O.2     1  UNL1       -0.5170
     27 O          23.8126   71.1078   -1.8179 O.3     1  UNL1       -0.4371
     28 O          22.7576   72.1609    0.3463 O.3     1  UNL1       -0.2865
     29 C          23.0602   73.3816    1.0242 C.3     1  UNL1        0.2611
     30 C          23.4337   73.0742    2.4754 C.3     1  UNL1        0.1582
     31 C          22.2618   72.3551    3.1530 C.3     1  UNL1        0.1625
     32 C          20.9966   73.2002    2.9703 C.3     1  UNL1        0.1686
     33 C          20.8053   73.4955    1.4812 C.3     1  UNL1        0.1760
     34 O          22.5383   72.1961    4.5457 O.3     1  UNL1       -0.3801
     35 O          19.8657   72.4807    3.4654 O.3     1  UNL1       -0.3794
     36 O          21.9206   74.2379    0.9898 O.3     1  UNL1       -0.3263
     37 H          21.7775   71.7404    4.9314 H       1  UNL1        0.2105
     38 H          19.0928   73.0472    3.3304 H       1  UNL1        0.2105
     39 C          25.8271   72.7419    2.7843 C.2     1  UNL1        0.2231
     40 C          27.0474   71.8573    2.8139 C.3     1  UNL1        0.0946
     41 N          24.6193   72.2152    2.5048 N.am    1  UNL1       -0.2994
     42 O          25.9326   73.9282    3.0115 O.2     1  UNL1       -0.2751
     43 H          24.5347   71.2659    2.3227 H       1  UNL1        0.1496
     44 C          19.5262   74.3118    1.2846 C.3     1  UNL1        0.1693
     45 O          19.3099   75.1418    2.4277 O.3     1  UNL1       -0.3794
     46 H          18.4964   75.6376    2.2636 H       1  UNL1        0.2105
@<TRIPOS>BOND
     1    29    30    1
     2    29    28    1
     3    29    36    1
     4    30    31    1
     5    30    41    1
     6    31    32    1
     7    31    34    1
     8    32    33    1
     9    32    35    1
    10    33    44    1
    11    33    36    1
    12    44    45    1
    13    39    40    1
    14    39    41   am
    15    39    42    2
    16    41    43    1
    17    28    25    1
    18    34    37    1
    19    35    38    1
    20    45    46    1
    21    15    16   ar
    22    15    20   ar
    23    15     6    1
    24    16    17   ar
    25    16    21    2
    26    17    18   ar
    27    17    23    1
    28    18    19   ar
    29    18    22    2
    30    19    20   ar
    31     6     7    1
    32     6    11    1
    33     7     8    1
    34     7     9    1
    35     8    13    1
    36     9    10    1
    37     9    12    1
    38    10    11    1
    39    10     5    1
    40    12    14    1
    41     5     4    1
    42     4     1    1
    43     1     2    2
    44     1     3    1
    45     1    24    1
    46    24    25    1
    47    25    26    2
    48    25    27    1
@<TRIPOS>MOLECULE
UD1
 46 48 0 0 0
SMALL
GASTEIGER

@<TRIPOS>ATOM
      1 P          23.1991   71.8520   -2.3615 P.3     1  UNL1        0.2189
      2 O          23.2053   73.2533   -1.8870 O.2     1  UNL1       -0.5170
      3 O          24.0064   71.7523   -3.7510 O.3     1  UNL1       -0.4371
      4 O          21.6797   71.3697   -2.5889 O.3     1  UNL1       -0.3112
      5 C          20.9415   72.5153   -3.0168 C.3     1  UNL1        0.1811
      6 C          18.4213   71.1871   -5.2103 C.3     1  UNL1        0.2383
      7 C          18.9097   69.9639   -4.3946 C.3     1  UNL1        0.1895
      8 O          17.8587   69.0130   -4.2205 O.3     1  UNL1       -0.3779
      9 C          19.3008   70.6107   -3.0404 C.3     1  UNL1        0.1713
     10 C          19.5169   72.0972   -3.3840 C.3     1  UNL1        0.1764
     11 O          19.3136   72.2448   -4.7997 O.3     1  UNL1       -0.3308
     12 O          18.2444   70.4587   -2.0898 O.3     1  UNL1       -0.3794
     13 H          18.2264   68.2797   -3.7080 H       1  UNL1        0.2106
     14 H          18.1178   69.5090   -1.9625 H       1  UNL1        0.2105
     15 N          18.5445   70.9363   -6.6467 N.ar    1  UNL1       -0.2551
     16 C          17.5025   70.4260   -7.3258 C.ar    1  UNL1        0.3323
     17 N          17.5863   70.1888   -8.6483 N.ar    1  UNL1       -0.2743
     18 C          18.7281   70.4529   -9.3150 C.ar    1  UNL1        0.2626
     19 C          19.8348   70.9847   -8.6112 C.ar    1  UNL1        0.0795
     20 C          19.7217   71.2180   -7.2861 C.ar    1  UNL1        0.0869
     21 O          16.4660   70.1827   -6.7385 O.2     1  UNL1       -0.2464
     22 O          18.8065   70.2344  -10.5098 O.2     1  UNL1       -0.2670
     23 H          16.8233   69.8249   -9.1232 H       1  UNL1        0.1734
     24 O          23.9021   70.9101   -1.2626 O.3     1  UNL1       -0.2703
     25 P          23.3860   71.4105    0.1771 P.3     1  UNL1        0.2208
     26 O          22.7952   70.2709    0.9126 O.2     1  UNL1       -0.5170
     27 O          22.2724   72.5565   -0.0198 O.3     1  UNL1       -0.4371
     28 O          24.6243   72.0060    1.0153 O.3     1  UNL1       -0.2865
     29 C          24.5456   71.4443    2.3265 C.3     1  UNL1        0.2611
     30 C          24.0633   72.5152    3.3066 C.3     1  UNL1        0.1582
     31 C          25.0415   73.6951    3.2811 C.3     1  UNL1        0.1625
     32 C          26.4558   73.1647    3.5390 C.3     1  UNL1        0.1686
     33 C          26.7588   72.0467    2.5392 C.3     1  UNL1        0.1760
     34 O          24.6858   74.6340    4.2977 O.3     1  UNL1       -0.3801
     35 O          27.4007   74.2239    3.3746 O.3     1  UNL1       -0.3794
     36 O          25.8337   70.9752    2.7192 O.3     1  UNL1       -0.3263
     37 H          25.3252   75.3577    4.2456 H       1  UNL1        0.2105
     38 H          28.2757   73.8471    3.5448 H       1  UNL1        0.2105
     39 C          21.8097   73.2611    3.8538 C.2     1  UNL1        0.2231
     40 C          20.4371   73.7337    3.4478 C.3     1  UNL1        0.0946
     41 N          22.7299   72.9749    2.9127 N.am    1  UNL1       -0.2994
     42 O          22.0857   73.1377    5.0280 O.2     1  UNL1       -0.2751
     43 H          22.5091   73.0733    1.9729 H       1  UNL1        0.1496
     44 C          28.1816   71.5321    2.7673 C.3     1  UNL1        0.1693
     45 O          28.6221   71.9111    4.0728 O.3     1  UNL1       -0.3794
     46 H          29.5203   71.5686    4.1754 H       1  UNL1        0.2105
@<TRIPOS>BOND
     1    29    30    1
     2    29    28    1
     3    29    36    1
     4    30    31    1
     5    30    41    1
     6    31    32    1
     7    31    34    1
     8    32    33    1
     9    32    35    1
    10    33    44    1
    11    33    36    1
    12    44    45    1
    13    39    40    1
    14    39    41   am
    15    39    42    2
    16    41    43    1
    17    28    25    1
    18    34    37    1
    19    35    38    1
    20    45    46    1
    21    15    16   ar
    22    15    20   ar
    23    15     6    1
    24    16    17   ar
    25    16    21    2
    26    17    18   ar
    27    17    23    1
    28    18    19   ar
    29    18    22    2
    30    19    20   ar
    31     6     7    1
    32     6    11    1
    33     7     8    1
    34     7     9    1
    35     8    13    1
    36     9    10    1
    37     9    12    1
    38    10    11    1
    39    10     5    1
    40    12    14    1
    41     5     4    1
    42     4     1    1
    43     1     2    2
    44     1     3    1
    45     1    24    1
    46    24    25    1
    47    25    26    2
    48    25    27    1
@<TRIPOS>MOLECULE
UD1
 46 48 0 0 0
SMALL
GASTEIGER

@<TRIPOS>ATOM
      1 P          16.2663   69.6205   -2.7655 P.3     1  UNL1        0.2189
      2 O          15.9558   69.1209   -4.1230 O.2     1  UNL1       -0.5170
      3 O          17.0024   68.4627   -1.9228 O.3     1  UNL1       -0.4371
      4 O          14.9001   70.0378   -2.0223 O.3     1  UNL1       -0.3112
      5 C          14.7748   69.1896   -0.8798 C.3     1  UNL1        0.1811
      6 C          12.0429   68.0422    1.1567 C.3     1  UNL1        0.2383
      7 C          12.3423   69.4702    1.6776 C.3     1  UNL1        0.1895
      8 O          11.1559   70.0936    2.1707 O.3     1  UNL1       -0.3779
      9 C          12.8515   70.1834    0.3981 C.3     1  UNL1        0.1713
     10 C          13.2965   69.0300   -0.5216 C.3     1  UNL1        0.1764
     11 O          13.0983   67.8031    0.2014 O.3     1  UNL1       -0.3308
     12 O          11.7986   70.9369   -0.2073 O.3     1  UNL1       -0.3794
     13 H          11.4097   70.9746    2.4787 H       1  UNL1        0.2106
     14 H          11.5242   71.6018    0.4383 H       1  UNL1        0.2105
     15 N          12.1033   67.0682    2.2471 N.ar    1  UNL1       -0.2551
     16 C          13.2956   66.6079    2.6641 C.ar    1  UNL1        0.3323
     17 N          13.3813   65.7147    3.6676 N.ar    1  UNL1       -0.2743
     18 C          12.2639   65.2577    4.2679 C.ar    1  UNL1        0.2626
     19 C          11.0018   65.7294    3.8348 C.ar    1  UNL1        0.0795
     20 C          10.9449   66.6293    2.8297 C.ar    1  UNL1        0.0869
     21 O          14.3124   67.0106    2.1327 O.2     1  UNL1       -0.2464
     22 O          12.3400   64.4465    5.1721 O.2     1  UNL1       -0.2670
     23 H          14.2500   65.3970    3.9588 H       1  UNL1        0.1734
     24 O          17.2316   70.9033   -2.8734 O.3     1  UNL1       -0.2703
     25 P          18.7199   70.3453   -3.1238 P.3     1  UNL1        0.2208
     26 O          18.6489   68.9438   -3.5926 O.2     1  UNL1       -0.5170
     27 O          19.5559   70.4088   -1.7493 O.3     1  UNL1       -0.4371
     28 O          19.4522   71.2471   -4.2377 O.3     1  UNL1       -0.2865
     29 C          20.5623   70.4886   -4.7210 C.3     1  UNL1        0.2611
     30 C          21.8486   71.2918   -4.5203 C.3     1  UNL1        0.1582
     31 C          21.7322   72.6212   -5.2745 C.3     1  UNL1        0.1625
     32 C          21.3684   72.3267   -6.7336 C.3     1  UNL1        0.1686
     33 C          20.1163   71.4478   -6.7674 C.3     1  UNL1        0.1760
     34 O          22.9806   73.3139   -5.2193 O.3     1  UNL1       -0.3801
     35 O          21.1113   73.5537   -7.4191 O.3     1  UNL1       -0.3794
     36 O          20.3782   70.2099   -6.1073 O.3     1  UNL1       -0.3263
     37 H          22.8623   74.1421   -5.7045 H       1  UNL1        0.2105
     38 H          20.8859   73.3226   -8.3314 H       1  UNL1        0.2105
     39 C          23.2489   71.3391   -2.5275 C.2     1  UNL1        0.2231
     40 C          23.4507   71.6078   -1.0580 C.3     1  UNL1        0.0946
     41 N          22.0452   71.5532   -3.0929 N.am    1  UNL1       -0.2994
     42 O          24.1701   70.9293   -3.2010 O.2     1  UNL1       -0.2751
     43 H          21.3078   71.8808   -2.5541 H       1  UNL1        0.1496
     44 C          19.7255   71.1746   -8.2213 C.3     1  UNL1        0.1693
     45 O          18.4165   71.6917   -8.4683 O.3     1  UNL1       -0.3794
     46 H          18.2093   71.4989   -9.3927 H       1  UNL1        0.2105
@<TRIPOS>BOND
     1    29    30    1
     2    29    28    1
     3    29    36    1
     4    30    31    1
     5    30    41    1
     6    31    32    1
     7    31    34    1
     8    32    33    1
     9    32    35    1
    10    33    44    1
    11    33    36    1
    12    44    45    1
    13    39    40    1
    14    39    41   am
    15    39    42    2
    16    41    43    1
    17    28    25    1
    18    34    37    1
    19    35    38    1
    20    45    46    1
    21    15    16   ar
    22    15    20   ar
    23    15     6    1
    24    16    17   ar
    25    16    21    2
    26    17    18   ar
    27    17    23    1
    28    18    19   ar
    29    18    22    2
    30    19    20   ar
    31     6     7    1
    32     6    11    1
    33     7     8    1
    34     7     9    1
    35     8    13    1
    36     9    10    1
    37     9    12    1
    38    10    11    1
    39    10     5    1
    40    12    14    1
    41     5     4    1
    42     4     1    1
    43     1     2    2
    44     1     3    1
    45     1    24    1
    46    24    25    1
    47    25    26    2
    48    25    27    1
@<TRIPOS>MOLECULE
UD1
 46 48 0 0 0
SMALL
GASTEIGER

@<TRIPOS>ATOM
      1 P          21.0698   71.1809   -2.4049 P.3     1  UNL1        0.2189
      2 O          21.5971   70.0822   -3.2437 O.2     1  UNL1       -0.5170
      3 O          20.8625   70.6534   -0.8978 O.3     1  UNL1       -0.4371
      4 O          19.6574   71.6774   -2.9977 O.3     1  UNL1       -0.3112
      5 C          18.6535   70.8255   -2.4436 C.3     1  UNL1        0.1811
      6 C          17.0175   70.5313   -5.6317 C.3     1  UNL1        0.2383
      7 C          17.0069   69.0931   -5.0558 C.3     1  UNL1        0.1895
      8 O          15.8621   68.3696   -5.5087 O.3     1  UNL1       -0.3779
      9 C          16.9281   69.3543   -3.5291 C.3     1  UNL1        0.1713
     10 C          17.4367   70.8001   -3.3699 C.3     1  UNL1        0.1764
     11 O          17.8071   71.2716   -4.6767 O.3     1  UNL1       -0.3308
     12 O          15.5793   69.2383   -3.0706 O.3     1  UNL1       -0.3794
     13 H          15.9154   67.4869   -5.1169 H       1  UNL1        0.2106
     14 H          15.2999   68.3309   -3.2517 H       1  UNL1        0.2105
     15 N          17.6470   70.5573   -6.9525 N.ar    1  UNL1       -0.2551
     16 C          16.8836   70.4767   -8.0562 C.ar    1  UNL1        0.3323
     17 N          17.4352   70.5021   -9.2839 N.ar    1  UNL1       -0.2743
     18 C          18.7724   70.6003   -9.4261 C.ar    1  UNL1        0.2626
     19 C          19.5884   70.6798   -8.2726 C.ar    1  UNL1        0.0795
     20 C          19.0085   70.6575   -7.0533 C.ar    1  UNL1        0.0869
     21 O          15.6760   70.3878   -7.9442 O.2     1  UNL1       -0.2464
     22 O          19.2726   70.6185  -10.5356 O.2     1  UNL1       -0.2670
     23 H          16.8690   70.4478  -10.0692 H       1  UNL1        0.1734
     24 O          22.1129   72.4059   -2.4071 O.3     1  UNL1       -0.2703
     25 P          22.5171   72.6695   -3.9422 P.3     1  UNL1        0.2208
     26 O          21.6117   71.9060   -4.8287 O.2     1  UNL1       -0.5170
     27 O          24.0352   72.1926   -4.1876 O.3     1  UNL1       -0.4371
     28 O          22.3900   74.2402   -4.2698 O.3     1  UNL1       -0.2865
     29 C          23.3240   74.9165   -3.4263 C.3     1  UNL1        0.2611
     30 C          22.6044   76.0350   -2.6708 C.3     1  UNL1        0.1582
     31 C          21.9869   77.0068   -3.6827 C.3     1  UNL1        0.1625
     32 C          23.0830   77.4719   -4.6473 C.3     1  UNL1        0.1686
     33 C          23.7646   76.2446   -5.2562 C.3     1  UNL1        0.1760
     34 O          21.4415   78.1332   -2.9935 O.3     1  UNL1       -0.3801
     35 O          22.5017   78.2620   -5.6862 O.3     1  UNL1       -0.3794
     36 O          24.3700   75.4675   -4.2237 O.3     1  UNL1       -0.3263
     37 H          21.0644   78.7167   -3.6664 H       1  UNL1        0.2105
     38 H          23.2247   78.5326   -6.2698 H       1  UNL1        0.2105
     39 C          21.7491   75.2949   -0.5132 C.2     1  UNL1        0.2231
     40 C          20.6617   74.7032    0.3469 C.3     1  UNL1        0.0946
     41 N          21.5481   75.4608   -1.8347 N.am    1  UNL1       -0.2994
     42 O          22.8056   75.6212   -0.0157 O.2     1  UNL1       -0.2751
     43 H          20.7029   75.1995   -2.2332 H       1  UNL1        0.1496
     44 C          24.8396   76.6984   -6.2459 C.3     1  UNL1        0.1693
     45 O          25.4190   77.9234   -5.7921 O.3     1  UNL1       -0.3794
     46 H          26.0891   78.1738   -6.4424 H       1  UNL1        0.2105
@<TRIPOS>BOND
     1    29    30    1
     2    29    28    1
     3    29    36    1
     4    30    31    1
     5    30    41    1
     6    31    32    1
     7    31    34    1
     8    32    33    1
     9    32    35    1
    10    33    44    1
    11    33    36    1
    12    44    45    1
    13    39    40    1
    14    39    41   am
    15    39    42    2
    16    41    43    1
    17    28    25    1
    18    34    37    1
    19    35    38    1
    20    45    46    1
    21    15    16   ar
    22    15    20   ar
    23    15     6    1
    24    16    17   ar
    25    16    21    2
    26    17    18   ar
    27    17    23    1
    28    18    19   ar
    29    18    22    2
    30    19    20   ar
    31     6     7    1
    32     6    11    1
    33     7     8    1
    34     7     9    1
    35     8    13    1
    36     9    10    1
    37     9    12    1
    38    10    11    1
    39    10     5    1
    40    12    14    1
    41     5     4    1
    42     4     1    1
    43     1     2    2
    44     1     3    1
    45     1    24    1
    46    24    25    1
    47    25    26    2
    48    25    27    1
@<TRIPOS>MOLECULE
UD1
 46 48 0 0 0
SMALL
GASTEIGER

@<TRIPOS>ATOM
      1 P          20.5193   71.0545   -2.2035 P.3     1  UNL1        0.2189
      2 O          20.6094   70.6563   -0.7815 O.2     1  UNL1       -0.5170
      3 O          20.4432   72.6595   -2.3076 O.3     1  UNL1       -0.4371
      4 O          19.1955   70.4120   -2.8574 O.3     1  UNL1       -0.3112
      5 C          18.1282   71.3307   -2.6186 C.3     1  UNL1        0.1811
      6 C          16.7802   70.5472   -5.8584 C.3     1  UNL1        0.2383
      7 C          16.9028   69.1763   -5.1471 C.3     1  UNL1        0.1895
      8 O          15.8915   68.2744   -5.5977 O.3     1  UNL1       -0.3779
      9 C          16.6802   69.5596   -3.6609 C.3     1  UNL1        0.1713
     10 C          16.9953   71.0671   -3.6118 C.3     1  UNL1        0.1764
     11 O          17.4008   71.4645   -4.9328 O.3     1  UNL1       -0.3308
     12 O          15.3256   69.3123   -3.2779 O.3     1  UNL1       -0.3794
     13 H          16.0232   67.4442   -5.1193 H       1  UNL1        0.2106
     14 H          15.1733   68.3641   -3.3869 H       1  UNL1        0.2105
     15 N          17.4976   70.5366   -7.1338 N.ar    1  UNL1       -0.2551
     16 C          16.8065   70.5374   -8.2870 C.ar    1  UNL1        0.3323
     17 N          17.4401   70.5317   -9.4747 N.ar    1  UNL1       -0.2743
     18 C          18.7874   70.5158   -9.5261 C.ar    1  UNL1        0.2626
     19 C          19.5272   70.5088   -8.3197 C.ar    1  UNL1        0.0795
     20 C          18.8663   70.5201   -7.1422 C.ar    1  UNL1        0.0869
     21 O          15.5910   70.5517   -8.2571 O.2     1  UNL1       -0.2464
     22 O          19.3612   70.5059  -10.5994 O.2     1  UNL1       -0.2670
     23 H          16.9258   70.5372  -10.2967 H       1  UNL1        0.1734
     24 O          21.8181   70.5257   -2.9923 O.3     1  UNL1       -0.2703
     25 P          23.0747   71.3589   -2.4302 P.3     1  UNL1        0.2208
     26 O          24.3278   70.7827   -2.9655 O.2     1  UNL1       -0.5170
     27 O          23.0940   71.2827   -0.8221 O.3     1  UNL1       -0.4371
     28 O          22.9508   72.8959   -2.8917 O.3     1  UNL1       -0.2865
     29 C          24.0361   73.1490   -3.7857 C.3     1  UNL1        0.2611
     30 C          24.4010   74.6335   -3.7295 C.3     1  UNL1        0.1582
     31 C          23.1743   75.4662   -4.1183 C.3     1  UNL1        0.1625
     32 C          22.6565   74.9729   -5.4735 C.3     1  UNL1        0.1686
     33 C          22.4203   73.4630   -5.3971 C.3     1  UNL1        0.1760
     34 O          23.5416   76.8436   -4.2148 O.3     1  UNL1       -0.3801
     35 O          21.4294   75.6348   -5.7860 O.3     1  UNL1       -0.3794
     36 O          23.6495   72.7965   -5.1122 O.3     1  UNL1       -0.3263
     37 H          22.7422   77.3294   -4.4604 H       1  UNL1        0.2105
     38 H          21.1389   75.2950   -6.6443 H       1  UNL1        0.2105
     39 C          23.9200   75.4505   -1.4855 C.2     1  UNL1        0.2231
     40 C          24.3531   75.8113   -0.0875 C.3     1  UNL1        0.0946
     41 N          24.8212   74.9836   -2.3711 N.am    1  UNL1       -0.2994
     42 O          22.7601   75.5812   -1.8136 O.2     1  UNL1       -0.2751
     43 H          25.7495   74.8792   -2.1088 H       1  UNL1        0.1496
     44 C          21.8720   72.9655   -6.7362 C.3     1  UNL1        0.1693
     45 O          22.9528   72.7676   -7.6499 O.3     1  UNL1       -0.3794
     46 H          22.5650   72.4553   -8.4786 H       1  UNL1        0.2105
@<TRIPOS>BOND
     1    29    30    1
     2    29    28    1
     3    29    36    1
     4    30    31    1
     5    30    41    1
     6    31    32    1
     7    31    34    1
     8    32    33    1
     9    32    35    1
    10    33    44    1
    11    33    36    1
    12    44    45    1
    13    39    40    1
    14    39    41   am
    15    39    42    2
    16    41    43    1
    17    28    25    1
    18    34    37    1
    19    35    38    1
    20    45    46    1
    21    15    16   ar
    22    15    20   ar
    23    15     6    1
    24    16    17   ar
    25    16    21    2
    26    17    18   ar
    27    17    23    1
    28    18    19   ar
    29    18    22    2
    30    19    20   ar
    31     6     7    1
    32     6    11    1
    33     7     8    1
    34     7     9    1
    35     8    13    1
    36     9    10    1
    37     9    12    1
    38    10    11    1
    39    10     5    1
    40    12    14    1
    41     5     4    1
    42     4     1    1
    43     1     2    2
    44     1     3    1
    45     1    24    1
    46    24    25    1
    47    25    26    2
    48    25    27    1
@<TRIPOS>MOLECULE
UD1
 46 48 0 0 0
SMALL
GASTEIGER

@<TRIPOS>ATOM
      1 P          21.6809   72.8302   -1.4487 P.3     1  UNL1        0.2189
      2 O          20.4217   73.2389   -0.7882 O.2     1  UNL1       -0.5170
      3 O          22.8239   73.9237   -1.1485 O.3     1  UNL1       -0.4371
      4 O          21.4433   72.7262   -3.0379 O.3     1  UNL1       -0.3112
      5 C          21.5652   71.3460   -3.3852 C.3     1  UNL1        0.1811
      6 C          20.4051   71.1886   -6.7847 C.3     1  UNL1        0.2383
      7 C          20.7339   72.6852   -6.5557 C.3     1  UNL1        0.1895
      8 O          21.1613   73.3060   -7.7685 O.3     1  UNL1       -0.3779
      9 C          21.8972   72.6101   -5.5327 C.3     1  UNL1        0.1713
     10 C          21.7480   71.2139   -4.8979 C.3     1  UNL1        0.1764
     11 O          20.5851   70.5998   -5.4792 O.3     1  UNL1       -0.3308
     12 O          23.1566   72.7327   -6.1973 O.3     1  UNL1       -0.3794
     13 H          21.3489   74.2314   -7.5586 H       1  UNL1        0.2106
     14 H          23.1644   73.6003   -6.6229 H       1  UNL1        0.2105
     15 N          19.0239   71.0240   -7.2392 N.ar    1  UNL1       -0.2551
     16 C          18.7659   70.8900   -8.5518 C.ar    1  UNL1        0.3323
     17 N          17.5055   70.7331   -8.9979 N.ar    1  UNL1       -0.2743
     18 C          16.4743   70.7171   -8.1294 C.ar    1  UNL1        0.2626
     19 C          16.7312   70.8630   -6.7453 C.ar    1  UNL1        0.0795
     20 C          18.0054   71.0135   -6.3247 C.ar    1  UNL1        0.0869
     21 O          19.6853   70.9024   -9.3475 O.2     1  UNL1       -0.2464
     22 O          15.3339   70.5801   -8.5321 O.2     1  UNL1       -0.2670
     23 H          17.3381   70.6331   -9.9477 H       1  UNL1        0.1734
     24 O          22.1445   71.3979   -0.8808 O.3     1  UNL1       -0.2703
     25 P          21.6843   71.3377    0.6599 P.3     1  UNL1        0.2208
     26 O          21.8988   69.9715    1.1856 O.2     1  UNL1       -0.5170
     27 O          20.1229   71.7149    0.7695 O.3     1  UNL1       -0.4371
     28 O          22.5499   72.3861    1.5213 O.3     1  UNL1       -0.2865
     29 C          22.6912   71.8305    2.8300 C.3     1  UNL1        0.2611
     30 C          22.2521   72.8649    3.8679 C.3     1  UNL1        0.1582
     31 C          23.1151   74.1229    3.7180 C.3     1  UNL1        0.1625
     32 C          24.5908   73.7159    3.7869 C.3     1  UNL1        0.1686
     33 C          24.8542   72.6193    2.7528 C.3     1  UNL1        0.1760
     34 O          22.8171   75.0367    4.7751 O.3     1  UNL1       -0.3801
     35 O          25.4129   74.8496    3.5032 O.3     1  UNL1       -0.3794
     36 O          24.0546   71.4750    3.0493 O.3     1  UNL1       -0.3263
     37 H          23.3806   75.8114    4.6419 H       1  UNL1        0.2105
     38 H          26.3314   74.5494    3.5564 H       1  UNL1        0.2105
     39 C          20.5170   74.2684    2.8912 C.2     1  UNL1        0.2231
     40 C          19.0679   74.6206    2.6711 C.3     1  UNL1        0.0946
     41 N          20.8446   73.2072    3.6533 N.am    1  UNL1       -0.2994
     42 O          21.3883   74.9408    2.3827 O.2     1  UNL1       -0.2751
     43 H          20.1474   72.6690    4.0606 H       1  UNL1        0.1496
     44 C          26.3330   72.2285    2.7910 C.3     1  UNL1        0.1693
     45 O          26.4920   70.9117    2.2591 O.3     1  UNL1       -0.3794
     46 H          27.4354   70.7048    2.3016 H       1  UNL1        0.2105
@<TRIPOS>BOND
     1    29    30    1
     2    29    28    1
     3    29    36    1
     4    30    31    1
     5    30    41    1
     6    31    32    1
     7    31    34    1
     8    32    33    1
     9    32    35    1
    10    33    44    1
    11    33    36    1
    12    44    45    1
    13    39    40    1
    14    39    41   am
    15    39    42    2
    16    41    43    1
    17    28    25    1
    18    34    37    1
    19    35    38    1
    20    45    46    1
    21    15    16   ar
    22    15    20   ar
    23    15     6    1
    24    16    17   ar
    25    16    21    2
    26    17    18   ar
    27    17    23    1
    28    18    19   ar
    29    18    22    2
    30    19    20   ar
    31     6     7    1
    32     6    11    1
    33     7     8    1
    34     7     9    1
    35     8    13    1
    36     9    10    1
    37     9    12    1
    38    10    11    1
    39    10     5    1
    40    12    14    1
    41     5     4    1
    42     4     1    1
    43     1     2    2
    44     1     3    1
    45     1    24    1
    46    24    25    1
    47    25    26    2
    48    25    27    1
@<TRIPOS>MOLECULE
UD1
 46 48 0 0 0
SMALL
GASTEIGER

@<TRIPOS>ATOM
      1 P          20.3802   71.3115   -0.8744 P.3     1  UNL1        0.2189
      2 O          20.1000   72.6904   -0.4176 O.2     1  UNL1       -0.5170
      3 O          21.3654   71.3575   -2.1472 O.3     1  UNL1       -0.4371
      4 O          19.0001   70.5940   -1.2910 O.3     1  UNL1       -0.3112
      5 C          19.1767   70.0959   -2.6180 C.3     1  UNL1        0.1811
      6 C          17.3140   70.3990   -5.6784 C.3     1  UNL1        0.2383
      7 C          17.0547   68.9457   -5.2084 C.3     1  UNL1        0.1895
      8 O          15.7623   68.4985   -5.6195 O.3     1  UNL1       -0.3779
      9 C          17.1274   69.0845   -3.6655 C.3     1  UNL1        0.1713
     10 C          17.9223   70.3858   -3.4437 C.3     1  UNL1        0.1764
     11 O          18.2945   70.8878   -4.7386 O.3     1  UNL1       -0.3308
     12 O          15.8147   69.1917   -3.1104 O.3     1  UNL1       -0.3794
     13 H          15.6642   67.5916   -5.2977 H       1  UNL1        0.2106
     14 H          15.3495   68.3744   -3.3335 H       1  UNL1        0.2105
     15 N          17.8501   70.4168   -7.0398 N.ar    1  UNL1       -0.2551
     16 C          17.0078   70.4386   -8.0874 C.ar    1  UNL1        0.3323
     17 N          17.4730   70.4593   -9.3505 N.ar    1  UNL1       -0.2743
     18 C          18.8005   70.4492   -9.5860 C.ar    1  UNL1        0.2626
     19 C          19.6984   70.4203   -8.4925 C.ar    1  UNL1        0.0795
     20 C          19.2049   70.4053   -7.2357 C.ar    1  UNL1        0.0869
     21 O          15.8078   70.4481   -7.8912 O.2     1  UNL1       -0.2464
     22 O          19.2221   70.4630  -10.7277 O.2     1  UNL1       -0.2670
     23 H          16.8510   70.4797  -10.0941 H       1  UNL1        0.1734
     24 O          21.0775   70.4831    0.3156 O.3     1  UNL1       -0.2703
     25 P          21.7207   71.5638    1.3195 P.3     1  UNL1        0.2208
     26 O          22.7819   70.9192    2.1240 O.2     1  UNL1       -0.5170
     27 O          20.5774   72.1342    2.2992 O.3     1  UNL1       -0.4371
     28 O          22.3526   72.7768    0.4711 O.3     1  UNL1       -0.2865
     29 C          23.7456   72.4968    0.3221 C.3     1  UNL1        0.2611
     30 C          24.5583   73.6117    0.9828 C.3     1  UNL1        0.1582
     31 C          24.2018   74.9494    0.3246 C.3     1  UNL1        0.1625
     32 C          24.3895   74.8157   -1.1903 C.3     1  UNL1        0.1686
     33 C          23.5869   73.6116   -1.6876 C.3     1  UNL1        0.1760
     34 O          25.0601   75.9746    0.8282 O.3     1  UNL1       -0.3801
     35 O          23.9236   76.0021   -1.8361 O.3     1  UNL1       -0.3794
     36 O          24.0680   72.4211   -1.0649 O.3     1  UNL1       -0.3263
     37 H          24.8013   76.7964    0.3889 H       1  UNL1        0.2105
     38 H          24.0592   75.8752   -2.7859 H       1  UNL1        0.2105
     39 C          23.3109   74.5307    2.8625 C.2     1  UNL1        0.2231
     40 C          22.9857   74.5887    4.3333 C.3     1  UNL1        0.0946
     41 N          24.2417   73.6681    2.4114 N.am    1  UNL1       -0.2994
     42 O          22.7348   75.2613    2.0850 O.2     1  UNL1       -0.2751
     43 H          24.7030   73.0834    3.0334 H       1  UNL1        0.1496
     44 C          23.7416   73.4886   -3.2048 C.3     1  UNL1        0.1693
     45 O          24.1382   72.1565   -3.5372 O.3     1  UNL1       -0.3794
     46 H          24.2245   72.1221   -4.4995 H       1  UNL1        0.2105
@<TRIPOS>BOND
     1    29    30    1
     2    29    28    1
     3    29    36    1
     4    30    31    1
     5    30    41    1
     6    31    32    1
     7    31    34    1
     8    32    33    1
     9    32    35    1
    10    33    44    1
    11    33    36    1
    12    44    45    1
    13    39    40    1
    14    39    41   am
    15    39    42    2
    16    41    43    1
    17    28    25    1
    18    34    37    1
    19    35    38    1
    20    45    46    1
    21    15    16   ar
    22    15    20   ar
    23    15     6    1
    24    16    17   ar
    25    16    21    2
    26    17    18   ar
    27    17    23    1
    28    18    19   ar
    29    18    22    2
    30    19    20   ar
    31     6     7    1
    32     6    11    1
    33     7     8    1
    34     7     9    1
    35     8    13    1
    36     9    10    1
    37     9    12    1
    38    10    11    1
    39    10     5    1
    40    12    14    1
    41     5     4    1
    42     4     1    1
    43     1     2    2
    44     1     3    1
    45     1    24    1
    46    24    25    1
    47    25    26    2
    48    25    27    1
@<TRIPOS>MOLECULE
UD1
 46 48 0 0 0
SMALL
GASTEIGER

@<TRIPOS>ATOM
      1 P          21.7359   72.2986   -6.2482 P.3     1  UNL1        0.2189
      2 O          20.7497   73.3364   -6.6213 O.2     1  UNL1       -0.5170
      3 O          23.2125   72.7869   -6.6649 O.3     1  UNL1       -0.4371
      4 O          21.3882   70.9275   -7.0176 O.3     1  UNL1       -0.3112
      5 C          20.5590   71.2745   -8.1277 C.3     1  UNL1        0.1811
      6 C          17.3898   70.0815   -6.9194 C.3     1  UNL1        0.2383
      7 C          17.0236   71.1362   -7.9936 C.3     1  UNL1        0.1895
      8 O          15.7898   70.8074   -8.6330 O.3     1  UNL1       -0.3779
      9 C          18.2100   71.0164   -8.9852 C.3     1  UNL1        0.1713
     10 C          19.3301   70.3643   -8.1519 C.3     1  UNL1        0.1764
     11 O          18.8256   70.1884   -6.8170 O.3     1  UNL1       -0.3308
     12 O          17.8541   70.1866  -10.0932 O.3     1  UNL1       -0.3794
     13 H          15.6198   71.4998   -9.2866 H       1  UNL1        0.2106
     14 H          17.1119   70.6174  -10.5377 H       1  UNL1        0.2105
     15 N          16.7558   70.4016   -5.6399 N.ar    1  UNL1       -0.2551
     16 C          16.3718   69.4081   -4.8196 C.ar    1  UNL1        0.3323
     17 N          15.7899   69.6732   -3.6350 N.ar    1  UNL1       -0.2743
     18 C          15.5734   70.9485   -3.2546 C.ar    1  UNL1        0.2626
     19 C          15.9673   72.0040   -4.1112 C.ar    1  UNL1        0.0795
     20 C          16.5537   71.7098   -5.2914 C.ar    1  UNL1        0.0869
     21 O          16.5604   68.2528   -5.1486 O.2     1  UNL1       -0.2464
     22 O          15.0430   71.1892   -2.1859 O.2     1  UNL1       -0.2670
     23 H          15.5236   68.9443   -3.0537 H       1  UNL1        0.1734
     24 O          21.6797   72.0513   -4.6594 O.3     1  UNL1       -0.2703
     25 P          22.6641   73.1313   -3.9857 P.3     1  UNL1        0.2208
     26 O          22.5109   74.4334   -4.6713 O.2     1  UNL1       -0.5170
     27 O          24.1877   72.6292   -4.1235 O.3     1  UNL1       -0.4371
     28 O          22.2944   73.2982   -2.4282 O.3     1  UNL1       -0.2865
     29 C          23.1655   72.4309   -1.7001 C.3     1  UNL1        0.2611
     30 C          22.3335   71.5354   -0.7804 C.3     1  UNL1        0.1582
     31 C          21.5226   72.4159    0.1770 C.3     1  UNL1        0.1625
     32 C          22.4810   73.3740    0.8924 C.3     1  UNL1        0.1686
     33 C          23.2999   74.1331   -0.1539 C.3     1  UNL1        0.1760
     34 O          20.8576   71.5930    1.1372 O.3     1  UNL1       -0.3801
     35 O          21.7309   74.3013    1.6792 O.3     1  UNL1       -0.3794
     36 O          24.0714   73.2118   -0.9236 O.3     1  UNL1       -0.3263
     37 H          20.3607   72.1863    1.7173 H       1  UNL1        0.2105
     38 H          22.3715   74.8846    2.1104 H       1  UNL1        0.2105
     39 C          20.1476   71.1100   -1.7680 C.2     1  UNL1        0.2231
     40 C          19.2108   70.2679   -2.5959 C.3     1  UNL1        0.0946
     41 N          21.4232   70.7179   -1.5850 N.am    1  UNL1       -0.2994
     42 O          19.7529   72.1406   -1.2658 O.2     1  UNL1       -0.2751
     43 H          21.7392   69.8931   -1.9866 H       1  UNL1        0.1496
     44 C          24.2376   75.1164    0.5495 C.3     1  UNL1        0.1693
     45 O          25.1361   74.3961    1.3957 O.3     1  UNL1       -0.3794
     46 H          25.7076   75.0510    1.8190 H       1  UNL1        0.2105
@<TRIPOS>BOND
     1    29    30    1
     2    29    28    1
     3    29    36    1
     4    30    31    1
     5    30    41    1
     6    31    32    1
     7    31    34    1
     8    32    33    1
     9    32    35    1
    10    33    44    1
    11    33    36    1
    12    44    45    1
    13    39    40    1
    14    39    41   am
    15    39    42    2
    16    41    43    1
    17    28    25    1
    18    34    37    1
    19    35    38    1
    20    45    46    1
    21    15    16   ar
    22    15    20   ar
    23    15     6    1
    24    16    17   ar
    25    16    21    2
    26    17    18   ar
    27    17    23    1
    28    18    19   ar
    29    18    22    2
    30    19    20   ar
    31     6     7    1
    32     6    11    1
    33     7     8    1
    34     7     9    1
    35     8    13    1
    36     9    10    1
    37     9    12    1
    38    10    11    1
    39    10     5    1
    40    12    14    1
    41     5     4    1
    42     4     1    1
    43     1     2    2
    44     1     3    1
    45     1    24    1
    46    24    25    1
    47    25    26    2
    48    25    27    1
@<TRIPOS>MOLECULE
UD1
 46 48 0 0 0
SMALL
GASTEIGER

@<TRIPOS>ATOM
      1 P          22.7190   71.3336   -2.8446 P.3     1  UNL1        0.2189
      2 O          24.1098   70.8731   -3.0503 O.2     1  UNL1       -0.5170
      3 O          22.5921   72.8749   -3.2926 O.3     1  UNL1       -0.4371
      4 O          22.3332   71.1950   -1.2874 O.3     1  UNL1       -0.3112
      5 C          22.5393   72.4779   -0.6941 C.3     1  UNL1        0.1811
      6 C          24.1885   72.6088    2.4981 C.3     1  UNL1        0.2383
      7 C          23.8933   71.1043    2.2751 C.3     1  UNL1        0.1895
      8 O          24.8854   70.2905    2.9017 O.3     1  UNL1       -0.3779
      9 C          23.9721   70.9825    0.7310 C.3     1  UNL1        0.1713
     10 C          23.7566   72.4238    0.2303 C.3     1  UNL1        0.1764
     11 O          23.5310   73.2505    1.3848 O.3     1  UNL1       -0.3308
     12 O          25.2547   70.4940    0.3324 O.3     1  UNL1       -0.3794
     13 H          24.6443   69.3703    2.7266 H       1  UNL1        0.2106
     14 H          25.3536   69.6163    0.7250 H       1  UNL1        0.2105
     15 N          23.6207   73.0670    3.7667 N.ar    1  UNL1       -0.2551
     16 C          22.3511   72.7549    4.0798 C.ar    1  UNL1        0.3323
     17 N          21.8042   73.1596    5.2414 N.ar    1  UNL1       -0.2743
     18 C          22.5239   73.8972    6.1108 C.ar    1  UNL1        0.2626
     19 C          23.8598   74.2379    5.7911 C.ar    1  UNL1        0.0795
     20 C          24.3852   73.8144    4.6215 C.ar    1  UNL1        0.0869
     21 O          21.6892   72.0902    3.3060 O.2     1  UNL1       -0.2464
     22 O          22.0289   74.2677    7.1592 O.2     1  UNL1       -0.2670
     23 H          20.8884   72.9213    5.4531 H       1  UNL1        0.1734
     24 O          21.7194   70.4331   -3.7270 O.3     1  UNL1       -0.2703
     25 P          20.2251   70.9119   -3.3706 P.3     1  UNL1        0.2208
     26 O          20.2044   72.3821   -3.2059 O.2     1  UNL1       -0.5170
     27 O          19.7491   70.2125   -2.0008 O.3     1  UNL1       -0.4371
     28 O          19.2270   70.4913   -4.5612 O.3     1  UNL1       -0.2865
     29 C          18.6674   71.6995   -5.0792 C.3     1  UNL1        0.2611
     30 C          17.1800   71.4852   -5.3649 C.3     1  UNL1        0.1582
     31 C          17.0229   70.3407   -6.3723 C.3     1  UNL1        0.1625
     32 C          17.8852   70.6475   -7.6012 C.3     1  UNL1        0.1686
     33 C          19.3204   70.9220   -7.1469 C.3     1  UNL1        0.1760
     34 O          15.6524   70.2293   -6.7606 O.3     1  UNL1       -0.3801
     35 O          17.8692   69.5274   -8.4881 O.3     1  UNL1       -0.3794
     36 O          19.3437   72.0572   -6.2825 O.3     1  UNL1       -0.3263
     37 H          15.5995   69.4992   -7.3926 H       1  UNL1        0.2105
     38 H          18.4236   69.7624   -9.2456 H       1  UNL1        0.2105
     39 C          16.3117   69.8517   -3.7799 C.2     1  UNL1        0.2231
     40 C          15.5975   69.4998   -2.4999 C.3     1  UNL1        0.0946
     41 N          16.4866   71.1429   -4.1213 N.am    1  UNL1       -0.2994
     42 O          16.7286   68.9723   -4.5031 O.2     1  UNL1       -0.2751
     43 H          16.1529   71.8469   -3.5429 H       1  UNL1        0.1496
     44 C          20.1972   71.1978   -8.3701 C.3     1  UNL1        0.1693
     45 O          21.0187   72.3400   -8.1201 O.3     1  UNL1       -0.3794
     46 H          21.5536   72.4790   -8.9133 H       1  UNL1        0.2105
@<TRIPOS>BOND
     1    29    30    1
     2    29    28    1
     3    29    36    1
     4    30    31    1
     5    30    41    1
     6    31    32    1
     7    31    34    1
     8    32    33    1
     9    32    35    1
    10    33    44    1
    11    33    36    1
    12    44    45    1
    13    39    40    1
    14    39    41   am
    15    39    42    2
    16    41    43    1
    17    28    25    1
    18    34    37    1
    19    35    38    1
    20    45    46    1
    21    15    16   ar
    22    15    20   ar
    23    15     6    1
    24    16    17   ar
    25    16    21    2
    26    17    18   ar
    27    17    23    1
    28    18    19   ar
    29    18    22    2
    30    19    20   ar
    31     6     7    1
    32     6    11    1
    33     7     8    1
    34     7     9    1
    35     8    13    1
    36     9    10    1
    37     9    12    1
    38    10    11    1
    39    10     5    1
    40    12    14    1
    41     5     4    1
    42     4     1    1
    43     1     2    2
    44     1     3    1
    45     1    24    1
    46    24    25    1
    47    25    26    2
    48    25    27    1
@<TRIPOS>MOLECULE
UD1
 46 48 0 0 0
SMALL
GASTEIGER

@<TRIPOS>ATOM
      1 P          17.4270   69.3936   -2.7317 P.3     1  UNL1        0.2189
      2 O          17.9374   68.3647   -3.6642 O.2     1  UNL1       -0.5170
      3 O          18.6490   69.9898   -1.8692 O.3     1  UNL1       -0.4371
      4 O          16.3456   68.7297   -1.7405 O.3     1  UNL1       -0.3112
      5 C          15.5375   69.7943   -1.2366 C.3     1  UNL1        0.1811
      6 C          12.8344   68.2305    0.5452 C.3     1  UNL1        0.2383
      7 C          12.7004   69.7370    0.8808 C.3     1  UNL1        0.1895
      8 O          11.3349   70.0919    1.1018 O.3     1  UNL1       -0.3779
      9 C          13.2448   70.4073   -0.4075 C.3     1  UNL1        0.1713
     10 C          14.0971   69.3077   -1.0700 C.3     1  UNL1        0.1764
     11 O          14.0658   68.1599   -0.2047 O.3     1  UNL1       -0.3308
     12 O          12.1676   70.7974   -1.2621 O.3     1  UNL1       -0.3794
     13 H          11.3206   71.0374    1.3055 H       1  UNL1        0.2106
     14 H          11.6391   71.4396   -0.7698 H       1  UNL1        0.2105
     15 N          12.9283   67.4323    1.7681 N.ar    1  UNL1       -0.2551
     16 C          12.4799   66.1650    1.7727 C.ar    1  UNL1        0.3323
     17 N          12.5572   65.4063    2.8821 N.ar    1  UNL1       -0.2743
     18 C          13.0811   65.9129    4.0165 C.ar    1  UNL1        0.2626
     19 C          13.5515   67.2476    4.0273 C.ar    1  UNL1        0.0795
     20 C          13.4668   67.9846    2.8990 C.ar    1  UNL1        0.0869
     21 O          12.0048   65.6939    0.7573 O.2     1  UNL1       -0.2464
     22 O          13.1471   65.2294    5.0214 O.2     1  UNL1       -0.2670
     23 H          12.2332   64.4926    2.8661 H       1  UNL1        0.1734
     24 O          16.7311   70.5786   -3.5686 O.3     1  UNL1       -0.2703
     25 P          17.3183   70.4980   -5.0646 P.3     1  UNL1        0.2208
     26 O          16.6269   71.4878   -5.9197 O.2     1  UNL1       -0.5170
     27 O          17.0804   69.0196   -5.6564 O.3     1  UNL1       -0.4371
     28 O          18.8955   70.8178   -5.0414 O.3     1  UNL1       -0.2865
     29 C          19.0367   72.2231   -5.2563 C.3     1  UNL1        0.2611
     30 C          20.0071   72.4620   -6.4145 C.3     1  UNL1        0.1582
     31 C          21.3604   71.8281   -6.0734 C.3     1  UNL1        0.1625
     32 C          21.8233   72.3628   -4.7140 C.3     1  UNL1        0.1686
     33 C          20.7169   72.1286   -3.6833 C.3     1  UNL1        0.1760
     34 O          22.3168   72.1716   -7.0777 O.3     1  UNL1       -0.3801
     35 O          23.0090   71.6760   -4.3089 O.3     1  UNL1       -0.3794
     36 O          19.5395   72.8357   -4.0709 O.3     1  UNL1       -0.3263
     37 H          23.1509   71.7529   -6.8241 H       1  UNL1        0.2105
     38 H          23.2648   72.0421   -3.4504 H       1  UNL1        0.2105
     39 C          19.8829   70.6256   -8.0103 C.2     1  UNL1        0.2231
     40 C          19.3337   69.9988   -9.2664 C.3     1  UNL1        0.0946
     41 N          19.4734   71.8525   -7.6344 N.am    1  UNL1       -0.2994
     42 O          20.6942   70.0255   -7.3381 O.2     1  UNL1       -0.2751
     43 H          18.8243   72.3330   -8.1723 H       1  UNL1        0.1496
     44 C          21.1822   72.6299   -2.3146 C.3     1  UNL1        0.1693
     45 O          21.0136   71.5940   -1.3449 O.3     1  UNL1       -0.3794
     46 H          21.3175   71.9502   -0.4991 H       1  UNL1        0.2105
@<TRIPOS>BOND
     1    29    30    1
     2    29    28    1
     3    29    36    1
     4    30    31    1
     5    30    41    1
     6    31    32    1
     7    31    34    1
     8    32    33    1
     9    32    35    1
    10    33    44    1
    11    33    36    1
    12    44    45    1
    13    39    40    1
    14    39    41   am
    15    39    42    2
    16    41    43    1
    17    28    25    1
    18    34    37    1
    19    35    38    1
    20    45    46    1
    21    15    16   ar
    22    15    20   ar
    23    15     6    1
    24    16    17   ar
    25    16    21    2
    26    17    18   ar
    27    17    23    1
    28    18    19   ar
    29    18    22    2
    30    19    20   ar
    31     6     7    1
    32     6    11    1
    33     7     8    1
    34     7     9    1
    35     8    13    1
    36     9    10    1
    37     9    12    1
    38    10    11    1
    39    10     5    1
    40    12    14    1
    41     5     4    1
    42     4     1    1
    43     1     2    2
    44     1     3    1
    45     1    24    1
    46    24    25    1
    47    25    26    2
    48    25    27    1
@<TRIPOS>MOLECULE
UD1
 46 48 0 0 0
SMALL
GASTEIGER

@<TRIPOS>ATOM
      1 P          20.5373   72.1009   -0.5978 P.3     1  UNL1        0.2189
      2 O          20.3386   70.6847   -0.2189 O.2     1  UNL1       -0.5170
      3 O          19.4889   73.0232    0.2039 O.3     1  UNL1       -0.4371
      4 O          20.2987   72.2708   -2.1812 O.3     1  UNL1       -0.3112
      5 C          19.9527   70.9811   -2.6883 C.3     1  UNL1        0.1811
      6 C          17.7356   70.7254   -5.5073 C.3     1  UNL1        0.2383
      7 C          17.6796   69.3276   -4.8413 C.3     1  UNL1        0.1895
      8 O          16.4011   68.7210   -5.0329 O.3     1  UNL1       -0.3779
      9 C          17.9114   69.6696   -3.3465 C.3     1  UNL1        0.1713
     10 C          18.5903   71.0525   -3.3797 C.3     1  UNL1        0.1764
     11 O          18.7612   71.4141   -4.7608 O.3     1  UNL1       -0.3308
     12 O          16.6656   69.7333   -2.6488 O.3     1  UNL1       -0.3794
     13 H          16.4323   67.8581   -4.5972 H       1  UNL1        0.2106
     14 H          16.2635   68.8569   -2.7147 H       1  UNL1        0.2105
     15 N          18.1101   70.6142   -6.9175 N.ar    1  UNL1       -0.2551
     16 C          17.1523   70.5093   -7.8550 C.ar    1  UNL1        0.3323
     17 N          17.4677   70.4096   -9.1600 N.ar    1  UNL1       -0.2743
     18 C          18.7588   70.4041   -9.5485 C.ar    1  UNL1        0.2626
     19 C          19.7773   70.5078   -8.5714 C.ar    1  UNL1        0.0795
     20 C          19.4328   70.6120   -7.2700 C.ar    1  UNL1        0.0869
     21 O          15.9833   70.5129   -7.5203 O.2     1  UNL1       -0.2464
     22 O          19.0451   70.3092  -10.7277 O.2     1  UNL1       -0.2670
     23 H          16.7638   70.3396   -9.8231 H       1  UNL1        0.1734
     24 O          22.0383   72.5492   -0.2305 O.3     1  UNL1       -0.2703
     25 P          22.3298   72.0196    1.2608 P.3     1  UNL1        0.2208
     26 O          23.1103   70.7645    1.1946 O.2     1  UNL1       -0.5170
     27 O          20.9346   71.7439    2.0154 O.3     1  UNL1       -0.4371
     28 O          23.1666   73.1297    2.0719 O.3     1  UNL1       -0.2865
     29 C          22.2610   74.1926    2.3741 C.3     1  UNL1        0.2611
     30 C          22.8881   75.5242    1.9578 C.3     1  UNL1        0.1582
     31 C          24.2116   75.7113    2.7081 C.3     1  UNL1        0.1625
     32 C          23.9500   75.5550    4.2098 C.3     1  UNL1        0.1686
     33 C          23.2454   74.2194    4.4566 C.3     1  UNL1        0.1760
     34 O          24.7325   77.0150    2.4425 O.3     1  UNL1       -0.3801
     35 O          25.1917   75.5796    4.9163 O.3     1  UNL1       -0.3794
     36 O          21.9921   74.2022    3.7745 O.3     1  UNL1       -0.3263
     37 H          25.5630   77.0892    2.9325 H       1  UNL1        0.2105
     38 H          24.9813   75.4777    5.8554 H       1  UNL1        0.2105
     39 C          24.3570   75.1900    0.0434 C.2     1  UNL1        0.2231
     40 C          24.6146   75.1842   -1.4418 C.3     1  UNL1        0.0946
     41 N          23.1387   75.5179    0.5150 N.am    1  UNL1       -0.2994
     42 O          25.2470   74.9002    0.8142 O.2     1  UNL1       -0.2751
     43 H          22.4264   75.7502   -0.1016 H       1  UNL1        0.1496
     44 C          23.0086   74.0387    5.9574 C.3     1  UNL1        0.1693
     45 O          22.4629   72.7407    6.2011 O.3     1  UNL1       -0.3794
     46 H          22.3289   72.6682    7.1558 H       1  UNL1        0.2105
@<TRIPOS>BOND
     1    29    30    1
     2    29    28    1
     3    29    36    1
     4    30    31    1
     5    30    41    1
     6    31    32    1
     7    31    34    1
     8    32    33    1
     9    32    35    1
    10    33    44    1
    11    33    36    1
    12    44    45    1
    13    39    40    1
    14    39    41   am
    15    39    42    2
    16    41    43    1
    17    28    25    1
    18    34    37    1
    19    35    38    1
    20    45    46    1
    21    15    16   ar
    22    15    20   ar
    23    15     6    1
    24    16    17   ar
    25    16    21    2
    26    17    18   ar
    27    17    23    1
    28    18    19   ar
    29    18    22    2
    30    19    20   ar
    31     6     7    1
    32     6    11    1
    33     7     8    1
    34     7     9    1
    35     8    13    1
    36     9    10    1
    37     9    12    1
    38    10    11    1
    39    10     5    1
    40    12    14    1
    41     5     4    1
    42     4     1    1
    43     1     2    2
    44     1     3    1
    45     1    24    1
    46    24    25    1
    47    25    26    2
    48    25    27    1
@<TRIPOS>MOLECULE
UD1
 46 48 0 0 0
SMALL
GASTEIGER

@<TRIPOS>ATOM
      1 P          20.6436   71.2458   -0.8384 P.3     1  UNL1        0.2189
      2 O          19.5164   70.5000   -1.4398 O.2     1  UNL1       -0.5170
      3 O          20.1308   72.6919   -0.3501 O.3     1  UNL1       -0.4371
      4 O          21.8084   71.4325   -1.9344 O.3     1  UNL1       -0.3112
      5 C          21.2624   72.2287   -2.9871 C.3     1  UNL1        0.1811
      6 C          20.4134   71.0586   -6.2791 C.3     1  UNL1        0.2383
      7 C          20.9472   72.4955   -6.5036 C.3     1  UNL1        0.1895
      8 O          21.5765   72.6134   -7.7800 O.3     1  UNL1       -0.3779
      9 C          21.9845   72.6400   -5.3597 C.3     1  UNL1        0.1713
     10 C          21.5625   71.5699   -4.3344 C.3     1  UNL1        0.1764
     11 O          20.3778   70.9324   -4.8416 O.3     1  UNL1       -0.3308
     12 O          23.3040   72.3838   -5.8456 O.3     1  UNL1       -0.3794
     13 H          21.8848   73.5270   -7.8571 H       1  UNL1        0.2106
     14 H          23.4857   73.0480   -6.5238 H       1  UNL1        0.2105
     15 N          19.0717   70.9087   -6.8437 N.ar    1  UNL1       -0.2551
     16 C          18.9178   70.3482   -8.0559 C.ar    1  UNL1        0.3323
     17 N          17.6953   70.1941   -8.5982 N.ar    1  UNL1       -0.2743
     18 C          16.5993   70.6112   -7.9327 C.ar    1  UNL1        0.2626
     19 C          16.7475   71.2085   -6.6583 C.ar    1  UNL1        0.0795
     20 C          17.9849   71.3459   -6.1356 C.ar    1  UNL1        0.0869
     21 O          19.8966   69.9669   -8.6684 O.2     1  UNL1       -0.2464
     22 O          15.4940   70.4768   -8.4241 O.2     1  UNL1       -0.2670
     23 H          17.6024   69.7833   -9.4715 H       1  UNL1        0.1734
     24 O          21.2185   70.4259    0.4210 O.3     1  UNL1       -0.2703
     25 P          22.4515   71.2778    1.0068 P.3     1  UNL1        0.2208
     26 O          22.8410   72.3177    0.0291 O.2     1  UNL1       -0.5170
     27 O          23.7016   70.2993    1.2749 O.3     1  UNL1       -0.4371
     28 O          22.0136   71.9776    2.3885 O.3     1  UNL1       -0.2865
     29 C          22.3329   73.3651    2.2698 C.3     1  UNL1        0.2611
     30 C          23.3721   73.7366    3.3291 C.3     1  UNL1        0.1582
     31 C          22.8033   73.4291    4.7189 C.3     1  UNL1        0.1625
     32 C          21.4485   74.1311    4.8602 C.3     1  UNL1        0.1686
     33 C          20.5532   73.7274    3.6868 C.3     1  UNL1        0.1760
     34 O          23.7017   73.9089    5.7209 O.3     1  UNL1       -0.3801
     35 O          20.8335   73.7400    6.0891 O.3     1  UNL1       -0.3794
     36 O          21.1516   74.1410    2.4591 O.3     1  UNL1       -0.3263
     37 H          23.3058   73.6947    6.5768 H       1  UNL1        0.2105
     38 H          19.9851   74.2031    6.1372 H       1  UNL1        0.2105
     39 C          25.7988   73.5293    3.2786 C.2     1  UNL1        0.2231
     40 C          27.0539   72.7244    3.0568 C.3     1  UNL1        0.0946
     41 N          24.5916   72.9549    3.1143 N.am    1  UNL1       -0.2994
     42 O          25.8756   74.6947    3.6044 O.2     1  UNL1       -0.2751
     43 H          24.5299   72.0223    2.8533 H       1  UNL1        0.1496
     44 C          19.1860   74.3978    3.8359 C.3     1  UNL1        0.1693
     45 O          18.3878   73.6531    4.7581 O.3     1  UNL1       -0.3794
     46 H          17.5371   74.1079    4.8227 H       1  UNL1        0.2105
@<TRIPOS>BOND
     1    29    30    1
     2    29    28    1
     3    29    36    1
     4    30    31    1
     5    30    41    1
     6    31    32    1
     7    31    34    1
     8    32    33    1
     9    32    35    1
    10    33    44    1
    11    33    36    1
    12    44    45    1
    13    39    40    1
    14    39    41   am
    15    39    42    2
    16    41    43    1
    17    28    25    1
    18    34    37    1
    19    35    38    1
    20    45    46    1
    21    15    16   ar
    22    15    20   ar
    23    15     6    1
    24    16    17   ar
    25    16    21    2
    26    17    18   ar
    27    17    23    1
    28    18    19   ar
    29    18    22    2
    30    19    20   ar
    31     6     7    1
    32     6    11    1
    33     7     8    1
    34     7     9    1
    35     8    13    1
    36     9    10    1
    37     9    12    1
    38    10    11    1
    39    10     5    1
    40    12    14    1
    41     5     4    1
    42     4     1    1
    43     1     2    2
    44     1     3    1
    45     1    24    1
    46    24    25    1
    47    25    26    2
    48    25    27    1
@<TRIPOS>MOLECULE
UD1
 46 48 0 0 0
SMALL
GASTEIGER

@<TRIPOS>ATOM
      1 P          22.8542   73.2467   -4.5787 P.3     1  UNL1        0.2189
      2 O          24.0700   72.4177   -4.4257 O.2     1  UNL1       -0.5170
      3 O          23.0473   74.2595   -5.8155 O.3     1  UNL1       -0.4371
      4 O          22.6070   74.0899   -3.2294 O.3     1  UNL1       -0.3112
      5 C          21.5106   73.4743   -2.5517 C.3     1  UNL1        0.1811
      6 C          23.2309   71.5285   -0.0654 C.3     1  UNL1        0.2383
      7 C          21.7809   71.6450    0.4677 C.3     1  UNL1        0.1895
      8 O          21.4239   70.4938    1.2335 O.3     1  UNL1       -0.3779
      9 C          20.9564   71.7147   -0.8440 C.3     1  UNL1        0.1713
     10 C          21.9776   72.1696   -1.9044 C.3     1  UNL1        0.1764
     11 O          23.2311   72.3787   -1.2319 O.3     1  UNL1       -0.3308
     12 O          20.4259   70.4283   -1.1704 O.3     1  UNL1       -0.3794
     13 H          20.5148   70.6288    1.5350 H       1  UNL1        0.2106
     14 H          19.8429   70.1738   -0.4427 H       1  UNL1        0.2105
     15 N          24.1900   72.0141    0.9274 N.ar    1  UNL1       -0.2551
     16 C          24.8380   71.1364    1.7129 C.ar    1  UNL1        0.3323
     17 N          25.7284   71.5545    2.6319 N.ar    1  UNL1       -0.2743
     18 C          25.9788   72.8703    2.7860 C.ar    1  UNL1        0.2626
     19 C          25.2991   73.8057    1.9698 C.ar    1  UNL1        0.0795
     20 C          24.4151   73.3586    1.0523 C.ar    1  UNL1        0.0869
     21 O          24.6230   69.9463    1.5858 O.2     1  UNL1       -0.2464
     22 O          26.7800   73.2498    3.6199 O.2     1  UNL1       -0.2670
     23 H          26.1902   70.9071    3.1867 H       1  UNL1        0.1734
     24 O          21.5870   72.2948   -4.8562 O.3     1  UNL1       -0.2703
     25 P          20.6521   73.0628   -5.9171 P.3     1  UNL1        0.2208
     26 O          21.0712   72.7082   -7.2910 O.2     1  UNL1       -0.5170
     27 O          20.7946   74.6526   -5.7069 O.3     1  UNL1       -0.4371
     28 O          19.1182   72.6290   -5.6953 O.3     1  UNL1       -0.2865
     29 C          19.1370   71.3546   -5.0497 C.3     1  UNL1        0.2611
     30 C          18.2553   70.3793   -5.8317 C.3     1  UNL1        0.1582
     31 C          16.8275   70.9335   -5.8935 C.3     1  UNL1        0.1625
     32 C          16.3575   71.2374   -4.4670 C.3     1  UNL1        0.1686
     33 C          17.3811   72.1506   -3.7890 C.3     1  UNL1        0.1760
     34 O          15.9632   69.9646   -6.4898 O.3     1  UNL1       -0.3801
     35 O          15.0875   71.8906   -4.5112 O.3     1  UNL1       -0.3794
     36 O          18.6442   71.4903   -3.7185 O.3     1  UNL1       -0.3263
     37 H          15.0781   70.3539   -6.5088 H       1  UNL1        0.2105
     38 H          14.8300   72.0638   -3.5946 H       1  UNL1        0.2105
     39 C          18.2629   70.9496   -8.2000 C.2     1  UNL1        0.2231
     40 C          18.8038   70.7897   -9.5979 C.3     1  UNL1        0.0946
     41 N          18.7808   70.2247   -7.1898 N.am    1  UNL1       -0.2994
     42 O          17.3607   71.7305   -7.9847 O.2     1  UNL1       -0.2751
     43 H          19.5026   69.5995   -7.3619 H       1  UNL1        0.1496
     44 C          16.9047   72.4866   -2.3743 C.3     1  UNL1        0.1693
     45 O          18.0316   72.5727   -1.4997 O.3     1  UNL1       -0.3794
     46 H          17.6884   72.7851   -0.6212 H       1  UNL1        0.2105
@<TRIPOS>BOND
     1    29    30    1
     2    29    28    1
     3    29    36    1
     4    30    31    1
     5    30    41    1
     6    31    32    1
     7    31    34    1
     8    32    33    1
     9    32    35    1
    10    33    44    1
    11    33    36    1
    12    44    45    1
    13    39    40    1
    14    39    41   am
    15    39    42    2
    16    41    43    1
    17    28    25    1
    18    34    37    1
    19    35    38    1
    20    45    46    1
    21    15    16   ar
    22    15    20   ar
    23    15     6    1
    24    16    17   ar
    25    16    21    2
    26    17    18   ar
    27    17    23    1
    28    18    19   ar
    29    18    22    2
    30    19    20   ar
    31     6     7    1
    32     6    11    1
    33     7     8    1
    34     7     9    1
    35     8    13    1
    36     9    10    1
    37     9    12    1
    38    10    11    1
    39    10     5    1
    40    12    14    1
    41     5     4    1
    42     4     1    1
    43     1     2    2
    44     1     3    1
    45     1    24    1
    46    24    25    1
    47    25    26    2
    48    25    27    1
@<TRIPOS>MOLECULE
UD1
 46 48 0 0 0
SMALL
GASTEIGER

@<TRIPOS>ATOM
      1 P          21.0923   71.3338   -1.0351 P.3     1  UNL1        0.2189
      2 O          21.9453   70.7031   -2.0663 O.2     1  UNL1       -0.5170
      3 O          21.0305   70.3849    0.2642 O.3     1  UNL1       -0.4371
      4 O          19.6061   71.5380   -1.6204 O.3     1  UNL1       -0.3112
      5 C          19.2823   70.3535   -2.3501 C.3     1  UNL1        0.1811
      6 C          17.3361   70.5335   -5.3679 C.3     1  UNL1        0.2383
      7 C          17.1456   69.0791   -4.8693 C.3     1  UNL1        0.1895
      8 O          15.8623   68.5752   -5.2414 O.3     1  UNL1       -0.3779
      9 C          17.2497   69.2460   -3.3310 C.3     1  UNL1        0.1713
     10 C          17.9980   70.5807   -3.1490 C.3     1  UNL1        0.1764
     11 O          18.3189   71.0755   -4.4603 O.3     1  UNL1       -0.3308
     12 O          15.9476   69.3111   -2.7454 O.3     1  UNL1       -0.3794
     13 H          15.8077   67.6706   -4.9033 H       1  UNL1        0.2106
     14 H          15.5097   68.4728   -2.9443 H       1  UNL1        0.2105
     15 N          17.8383   70.5498   -6.7423 N.ar    1  UNL1       -0.2551
     16 C          16.9703   70.5508   -7.7689 C.ar    1  UNL1        0.3323
     17 N          17.4039   70.5696   -9.0432 N.ar    1  UNL1       -0.2743
     18 C          18.7252   70.5784   -9.3113 C.ar    1  UNL1        0.2626
     19 C          19.6501   70.5714   -8.2401 C.ar    1  UNL1        0.0795
     20 C          19.1878   70.5579   -6.9715 C.ar    1  UNL1        0.0869
     21 O          15.7754   70.5431   -7.5432 O.2     1  UNL1       -0.2464
     22 O          19.1184   70.5906  -10.4631 O.2     1  UNL1       -0.2670
     23 H          16.7636   70.5750   -9.7714 H       1  UNL1        0.1734
     24 O          21.7097   72.7628   -0.6284 O.3     1  UNL1       -0.2703
     25 P          20.9836   73.2117    0.7356 P.3     1  UNL1        0.2208
     26 O          20.2929   72.0476    1.3328 O.2     1  UNL1       -0.5170
     27 O          19.9086   74.3672    0.4170 O.3     1  UNL1       -0.4371
     28 O          22.0816   73.7728    1.7701 O.3     1  UNL1       -0.2865
     29 C          22.1679   72.8263    2.8368 C.3     1  UNL1        0.2611
     30 C          22.7573   73.5098    4.0719 C.3     1  UNL1        0.1582
     31 C          24.1444   74.0622    3.7251 C.3     1  UNL1        0.1625
     32 C          24.9921   72.9270    3.1412 C.3     1  UNL1        0.1686
     33 C          24.2353   72.2895    1.9741 C.3     1  UNL1        0.1760
     34 O          24.7667   74.5699    4.9068 O.3     1  UNL1       -0.3801
     35 O          26.2373   73.4511    2.6759 O.3     1  UNL1       -0.3794
     36 O          23.0033   71.7408    2.4406 O.3     1  UNL1       -0.3263
     37 H          25.6342   74.9066    4.6431 H       1  UNL1        0.2105
     38 H          26.7380   72.7050    2.3165 H       1  UNL1        0.2105
     39 C          21.3738   74.6284    5.7359 C.2     1  UNL1        0.2231
     40 C          20.4727   75.7583    6.1644 C.3     1  UNL1        0.0946
     41 N          21.8822   74.6074    4.4888 N.am    1  UNL1       -0.2994
     42 O          21.6407   73.7374    6.5138 O.2     1  UNL1       -0.2751
     43 H          21.6686   75.3202    3.8660 H       1  UNL1        0.1496
     44 C          25.0876   71.1755    1.3629 C.3     1  UNL1        0.1693
     45 O          24.4205   69.9220    1.5237 O.3     1  UNL1       -0.3794
     46 H          24.9897   69.2491    1.1266 H       1  UNL1        0.2105
@<TRIPOS>BOND
     1    29    30    1
     2    29    28    1
     3    29    36    1
     4    30    31    1
     5    30    41    1
     6    31    32    1
     7    31    34    1
     8    32    33    1
     9    32    35    1
    10    33    44    1
    11    33    36    1
    12    44    45    1
    13    39    40    1
    14    39    41   am
    15    39    42    2
    16    41    43    1
    17    28    25    1
    18    34    37    1
    19    35    38    1
    20    45    46    1
    21    15    16   ar
    22    15    20   ar
    23    15     6    1
    24    16    17   ar
    25    16    21    2
    26    17    18   ar
    27    17    23    1
    28    18    19   ar
    29    18    22    2
    30    19    20   ar
    31     6     7    1
    32     6    11    1
    33     7     8    1
    34     7     9    1
    35     8    13    1
    36     9    10    1
    37     9    12    1
    38    10    11    1
    39    10     5    1
    40    12    14    1
    41     5     4    1
    42     4     1    1
    43     1     2    2
    44     1     3    1
    45     1    24    1
    46    24    25    1
    47    25    26    2
    48    25    27    1
@<TRIPOS>MOLECULE
UD1
 46 48 0 0 0
SMALL
GASTEIGER

@<TRIPOS>ATOM
      1 P          17.0778   69.4816   -2.8077 P.3     1  UNL1        0.2189
      2 O          16.3924   70.6364   -3.4286 O.2     1  UNL1       -0.5170
      3 O          17.5040   68.4318   -3.9518 O.3     1  UNL1       -0.4371
      4 O          16.0817   68.7636   -1.7661 O.3     1  UNL1       -0.3112
      5 C          15.2944   69.7948   -1.1684 C.3     1  UNL1        0.1811
      6 C          12.6986   68.1868    0.7298 C.3     1  UNL1        0.2383
      7 C          12.5527   69.6913    1.0696 C.3     1  UNL1        0.1895
      8 O          11.1921   70.0227    1.3490 O.3     1  UNL1       -0.3779
      9 C          13.0292   70.3689   -0.2416 C.3     1  UNL1        0.1713
     10 C          13.8713   69.2834   -0.9393 C.3     1  UNL1        0.1764
     11 O          13.8975   68.1366   -0.0725 O.3     1  UNL1       -0.3308
     12 O          11.9095   70.7387   -1.0492 O.3     1  UNL1       -0.3794
     13 H          11.1700   70.9680    1.5523 H       1  UNL1        0.2106
     14 H          11.3915   71.3724   -0.5351 H       1  UNL1        0.2105
     15 N          12.8592   67.3924    1.9482 N.ar    1  UNL1       -0.2551
     16 C          12.5479   66.0846    1.9368 C.ar    1  UNL1        0.3323
     17 N          12.6894   65.3287    3.0417 N.ar    1  UNL1       -0.2743
     18 C          13.1401   65.8780    4.1876 C.ar    1  UNL1        0.2626
     19 C          13.4659   67.2550    4.2153 C.ar    1  UNL1        0.0795
     20 C          13.3195   67.9887    3.0912 C.ar    1  UNL1        0.0869
     21 O          12.1402   65.5747    0.9109 O.2     1  UNL1       -0.2464
     22 O          13.2639   65.1966    5.1885 O.2     1  UNL1       -0.2670
     23 H          12.4646   64.3859    3.0142 H       1  UNL1        0.1734
     24 O          18.3907   69.9915   -2.0299 O.3     1  UNL1       -0.2703
     25 P          19.5049   70.2979   -3.1497 P.3     1  UNL1        0.2208
     26 O          20.0387   69.0225   -3.6762 O.2     1  UNL1       -0.5170
     27 O          20.7035   71.1512   -2.4959 O.3     1  UNL1       -0.4371
     28 O          18.8427   71.1392   -4.3514 O.3     1  UNL1       -0.2865
     29 C          19.5904   70.8365   -5.5306 C.3     1  UNL1        0.2611
     30 C          20.2716   72.1091   -6.0371 C.3     1  UNL1        0.1582
     31 C          19.2021   73.1670   -6.3313 C.3     1  UNL1        0.1625
     32 C          18.1623   72.5620   -7.2805 C.3     1  UNL1        0.1686
     33 C          17.6379   71.2566   -6.6785 C.3     1  UNL1        0.1760
     34 O          19.8103   74.3051   -6.9447 O.3     1  UNL1       -0.3801
     35 O          17.0804   73.4795   -7.4516 O.3     1  UNL1       -0.3794
     36 O          18.7115   70.3279   -6.5316 O.3     1  UNL1       -0.3263
     37 H          19.1034   74.9437   -7.1116 H       1  UNL1        0.2105
     38 H          16.4501   73.0595   -8.0540 H       1  UNL1        0.2105
     39 C          22.5124   72.6791   -5.2701 C.2     1  UNL1        0.2231
     40 C          23.4589   73.1969   -4.2174 C.3     1  UNL1        0.0946
     41 N          21.1915   72.6125   -5.0150 N.am    1  UNL1       -0.2994
     42 O          22.9400   72.3217   -6.3469 O.2     1  UNL1       -0.2751
     43 H          20.8491   72.8982   -4.1532 H       1  UNL1        0.1496
     44 C          16.5747   70.6607   -7.6035 C.3     1  UNL1        0.1693
     45 O          17.1547   70.3830   -8.8797 O.3     1  UNL1       -0.3794
     46 H          16.4531   70.0103   -9.4307 H       1  UNL1        0.2105
@<TRIPOS>BOND
     1    29    30    1
     2    29    28    1
     3    29    36    1
     4    30    31    1
     5    30    41    1
     6    31    32    1
     7    31    34    1
     8    32    33    1
     9    32    35    1
    10    33    44    1
    11    33    36    1
    12    44    45    1
    13    39    40    1
    14    39    41   am
    15    39    42    2
    16    41    43    1
    17    28    25    1
    18    34    37    1
    19    35    38    1
    20    45    46    1
    21    15    16   ar
    22    15    20   ar
    23    15     6    1
    24    16    17   ar
    25    16    21    2
    26    17    18   ar
    27    17    23    1
    28    18    19   ar
    29    18    22    2
    30    19    20   ar
    31     6     7    1
    32     6    11    1
    33     7     8    1
    34     7     9    1
    35     8    13    1
    36     9    10    1
    37     9    12    1
    38    10    11    1
    39    10     5    1
    40    12    14    1
    41     5     4    1
    42     4     1    1
    43     1     2    2
    44     1     3    1
    45     1    24    1
    46    24    25    1
    47    25    26    2
    48    25    27    1
@<TRIPOS>MOLECULE
UD1
 46 48 0 0 0
SMALL
GASTEIGER

@<TRIPOS>ATOM
      1 P          15.9377   69.8787   -1.9427 P.3     1  UNL1        0.2189
      2 O          17.3214   70.2402   -1.5642 O.2     1  UNL1       -0.5170
      3 O          14.9393   71.0730   -1.5310 O.3     1  UNL1       -0.4371
      4 O          15.5063   68.5311   -1.1741 O.3     1  UNL1       -0.3112
      5 C          14.5974   68.9163   -0.1417 C.3     1  UNL1        0.1811
      6 C          12.9911   66.8125    2.2916 C.3     1  UNL1        0.2383
      7 C          11.8767   67.7788    1.8179 C.3     1  UNL1        0.1895
      8 O          10.5955   67.1512    1.8802 O.3     1  UNL1       -0.3779
      9 C          12.2873   68.0538    0.3479 C.3     1  UNL1        0.1713
     10 C          13.7863   67.6991    0.3053 C.3     1  UNL1        0.1764
     11 O          14.1747   67.3143    1.6351 O.3     1  UNL1       -0.3308
     12 O          11.5438   67.2201   -0.5436 O.3     1  UNL1       -0.3794
     13 H           9.9493   67.8026    1.5742 H       1  UNL1        0.2106
     14 H          10.6118   67.4479   -0.4270 H       1  UNL1        0.2105
     15 N          13.1443   66.8692    3.7459 N.ar    1  UNL1       -0.2551
     16 C          12.9357   65.7634    4.4815 C.ar    1  UNL1        0.3323
     17 N          13.0732   65.7855    5.8204 N.ar    1  UNL1       -0.2743
     18 C          13.4157   66.9278    6.4496 C.ar    1  UNL1        0.2626
     19 C          13.6324   68.1007    5.6879 C.ar    1  UNL1        0.0795
     20 C          13.4929   68.0492    4.3458 C.ar    1  UNL1        0.0869
     21 O          12.6264   64.7255    3.9285 O.2     1  UNL1       -0.2464
     22 O          13.5356   66.9501    7.6606 O.2     1  UNL1       -0.2670
     23 H          12.9236   64.9774    6.3349 H       1  UNL1        0.1734
     24 O          15.8614   69.6378   -3.5317 O.3     1  UNL1       -0.2703
     25 P          17.3768   69.4937   -4.0533 P.3     1  UNL1        0.2208
     26 O          17.8903   68.1489   -3.7114 O.2     1  UNL1       -0.5170
     27 O          18.2959   70.6130   -3.3500 O.3     1  UNL1       -0.4371
     28 O          17.4175   69.6936   -5.6498 O.3     1  UNL1       -0.2865
     29 C          17.8950   71.0186   -5.8896 C.3     1  UNL1        0.2611
     30 C          16.8192   71.8173   -6.6277 C.3     1  UNL1        0.1582
     31 C          16.4904   71.1133   -7.9489 C.3     1  UNL1        0.1625
     32 C          17.7927   70.8991   -8.7275 C.3     1  UNL1        0.1686
     33 C          18.7941   70.1668   -7.8319 C.3     1  UNL1        0.1760
     34 O          15.5986   71.9252   -8.7151 O.3     1  UNL1       -0.3801
     35 O          17.5294   70.1153   -9.8928 O.3     1  UNL1       -0.3794
     36 O          19.0803   70.9594   -6.6802 O.3     1  UNL1       -0.3263
     37 H          15.4187   71.4453   -9.5352 H       1  UNL1        0.2105
     38 H          18.3741   70.0041  -10.3519 H       1  UNL1        0.2105
     39 C          15.2942   73.0490   -5.1814 C.2     1  UNL1        0.2231
     40 C          14.0532   73.1294   -4.3295 C.3     1  UNL1        0.0946
     41 N          15.6135   71.8961   -5.8004 N.am    1  UNL1       -0.2994
     42 O          16.0060   74.0222   -5.3092 O.2     1  UNL1       -0.2751
     43 H          15.0442   71.1170   -5.6981 H       1  UNL1        0.1496
     44 C          20.0873   69.9190   -8.6112 C.3     1  UNL1        0.1693
     45 O          21.1771   69.7858   -7.6964 O.3     1  UNL1       -0.3794
     46 H          21.9705   69.6316   -8.2270 H       1  UNL1        0.2105
@<TRIPOS>BOND
     1    29    30    1
     2    29    28    1
     3    29    36    1
     4    30    31    1
     5    30    41    1
     6    31    32    1
     7    31    34    1
     8    32    33    1
     9    32    35    1
    10    33    44    1
    11    33    36    1
    12    44    45    1
    13    39    40    1
    14    39    41   am
    15    39    42    2
    16    41    43    1
    17    28    25    1
    18    34    37    1
    19    35    38    1
    20    45    46    1
    21    15    16   ar
    22    15    20   ar
    23    15     6    1
    24    16    17   ar
    25    16    21    2
    26    17    18   ar
    27    17    23    1
    28    18    19   ar
    29    18    22    2
    30    19    20   ar
    31     6     7    1
    32     6    11    1
    33     7     8    1
    34     7     9    1
    35     8    13    1
    36     9    10    1
    37     9    12    1
    38    10    11    1
    39    10     5    1
    40    12    14    1
    41     5     4    1
    42     4     1    1
    43     1     2    2
    44     1     3    1
    45     1    24    1
    46    24    25    1
    47    25    26    2
    48    25    27    1
