@<TRIPOS>MOLECULE
UD1
 46 48 0 0 0
SMALL
GASTEIGER

@<TRIPOS>ATOM
      1 P          20.2135   71.0843   -1.7474 P.3     1  UNL1        0.2189
      2 O          20.2634   72.5607   -1.8282 O.2     1  UNL1       -0.5170
      3 O          21.2309   70.4532   -2.8240 O.3     1  UNL1       -0.4371
      4 O          18.7174   70.5803   -2.0646 O.3     1  UNL1       -0.3112
      5 C          18.0155   71.6925   -2.6220 C.3     1  UNL1        0.1811
      6 C          16.7987   70.5062   -5.7906 C.3     1  UNL1        0.2383
      7 C          17.1504   69.2191   -5.0033 C.3     1  UNL1        0.1895
      8 O          16.3000   68.1376   -5.3858 O.3     1  UNL1       -0.3779
      9 C          16.8753   69.6480   -3.5385 C.3     1  UNL1        0.1713
     10 C          16.9367   71.1871   -3.5812 C.3     1  UNL1        0.1764
     11 O          17.2638   71.5668   -4.9288 O.3     1  UNL1       -0.3308
     12 O          15.5823   69.2038   -3.1215 O.3     1  UNL1       -0.3794
     13 H          16.5699   67.3703   -4.8623 H       1  UNL1        0.2106
     14 H          15.5885   68.2387   -3.1733 H       1  UNL1        0.2105
     15 N          17.5013   70.5384   -7.0739 N.ar    1  UNL1       -0.2551
     16 C          16.7969   70.5562   -8.2188 C.ar    1  UNL1        0.3323
     17 N          17.4166   70.5899   -9.4134 N.ar    1  UNL1       -0.2743
     18 C          18.7632   70.5969   -9.4803 C.ar    1  UNL1        0.2626
     19 C          19.5171   70.5723   -8.2829 C.ar    1  UNL1        0.0795
     20 C          18.8699   70.5441   -7.0981 C.ar    1  UNL1        0.0869
     21 O          15.5817   70.5503   -8.1748 O.2     1  UNL1       -0.2464
     22 O          19.3246   70.6224  -10.5600 O.2     1  UNL1       -0.2670
     23 H          16.8927   70.6072  -10.2291 H       1  UNL1        0.1734
     24 O          20.6358   70.6133   -0.2680 O.3     1  UNL1       -0.2703
     25 P          22.0478   71.3131    0.0573 P.3     1  UNL1        0.2208
     26 O          22.7638   71.5903   -1.2074 O.2     1  UNL1       -0.5170
     27 O          22.9366   70.3304    0.9719 O.3     1  UNL1       -0.4371
     28 O          21.7951   72.6940    0.8446 O.3     1  UNL1       -0.2865
     29 C          20.6656   72.4859    1.6943 C.3     1  UNL1        0.2611
     30 C          19.8571   73.7813    1.7860 C.3     1  UNL1        0.1582
     31 C          20.7540   74.8936    2.3408 C.3     1  UNL1        0.1625
     32 C          21.3699   74.4146    3.6597 C.3     1  UNL1        0.1686
     33 C          22.0669   73.0727    3.4258 C.3     1  UNL1        0.1760
     34 O          19.9733   76.0678    2.5717 O.3     1  UNL1       -0.3801
     35 O          22.3221   75.3757    4.1194 O.3     1  UNL1       -0.3794
     36 O          21.1135   72.1032    2.9928 O.3     1  UNL1       -0.3263
     37 H          20.5757   76.7400    2.9190 H       1  UNL1        0.2105
     38 H          22.6850   75.0350    4.9493 H       1  UNL1        0.2105
     39 C          18.1279   74.6293    0.2944 C.2     1  UNL1        0.2231
     40 C          17.6358   75.0140   -1.0775 C.3     1  UNL1        0.0946
     41 N          19.3787   74.1556    0.4536 N.am    1  UNL1       -0.2994
     42 O          17.3975   74.7456    1.2551 O.2     1  UNL1       -0.2751
     43 H          19.9634   74.0622   -0.3152 H       1  UNL1        0.1496
     44 C          22.7134   72.6011    4.7300 C.3     1  UNL1        0.1693
     45 O          21.9300   73.0470    5.8389 O.3     1  UNL1       -0.3794
     46 H          22.3710   72.7298    6.6386 H       1  UNL1        0.2105
@<TRIPOS>BOND
     1    29    30    1
     2    29    28    1
     3    29    36    1
     4    30    31    1
     5    30    41    1
     6    31    32    1
     7    31    34    1
     8    32    33    1
     9    32    35    1
    10    33    44    1
    11    33    36    1
    12    44    45    1
    13    39    40    1
    14    39    41   am
    15    39    42    2
    16    41    43    1
    17    28    25    1
    18    34    37    1
    19    35    38    1
    20    45    46    1
    21    15    16   ar
    22    15    20   ar
    23    15     6    1
    24    16    17   ar
    25    16    21    2
    26    17    18   ar
    27    17    23    1
    28    18    19   ar
    29    18    22    2
    30    19    20   ar
    31     6     7    1
    32     6    11    1
    33     7     8    1
    34     7     9    1
    35     8    13    1
    36     9    10    1
    37     9    12    1
    38    10    11    1
    39    10     5    1
    40    12    14    1
    41     5     4    1
    42     4     1    1
    43     1     2    2
    44     1     3    1
    45     1    24    1
    46    24    25    1
    47    25    26    2
    48    25    27    1
@<TRIPOS>MOLECULE
UD1
 46 48 0 0 0
SMALL
GASTEIGER

@<TRIPOS>ATOM
      1 P          20.8666   71.6100   -1.9703 P.3     1  UNL1        0.2189
      2 O          21.1378   73.0129   -2.3537 O.2     1  UNL1       -0.5170
      3 O          22.2502   70.7874   -1.9305 O.3     1  UNL1       -0.4371
      4 O          19.8766   70.9411   -3.0498 O.3     1  UNL1       -0.3112
      5 C          18.7079   70.5284   -2.3396 C.3     1  UNL1        0.1811
      6 C          17.0509   70.4832   -5.5301 C.3     1  UNL1        0.2383
      7 C          16.9487   69.0243   -5.0190 C.3     1  UNL1        0.1895
      8 O          15.7589   68.3968   -5.4985 O.3     1  UNL1       -0.3779
      9 C          16.8895   69.2212   -3.4818 C.3     1  UNL1        0.1713
     10 C          17.4904   70.6228   -3.2605 C.3     1  UNL1        0.1764
     11 O          17.8882   71.1277   -4.5466 O.3     1  UNL1       -0.3308
     12 O          15.5369   69.1716   -3.0227 O.3     1  UNL1       -0.3794
     13 H          15.7560   67.4959   -5.1467 H       1  UNL1        0.2106
     14 H          15.1994   68.2931   -3.2429 H       1  UNL1        0.2105
     15 N          17.6785   70.5280   -6.8513 N.ar    1  UNL1       -0.2551
     16 C          16.9132   70.4667   -7.9549 C.ar    1  UNL1        0.3323
     17 N          17.4630   70.5097   -9.1829 N.ar    1  UNL1       -0.2743
     18 C          18.8003   70.6062   -9.3257 C.ar    1  UNL1        0.2626
     19 C          19.6182   70.6655   -8.1723 C.ar    1  UNL1        0.0795
     20 C          19.0401   70.6259   -6.9526 C.ar    1  UNL1        0.0869
     21 O          15.7056   70.3796   -7.8425 O.2     1  UNL1       -0.2464
     22 O          19.2988   70.6404  -10.4355 O.2     1  UNL1       -0.2670
     23 H          16.8955   70.4692   -9.9681 H       1  UNL1        0.1734
     24 O          20.1780   71.5744   -0.5165 O.3     1  UNL1       -0.2703
     25 P          21.3704   71.4904    0.5607 P.3     1  UNL1        0.2208
     26 O          22.5773   72.1475    0.0126 O.2     1  UNL1       -0.5170
     27 O          21.6986   69.9468    0.8797 O.3     1  UNL1       -0.4371
     28 O          20.9237   72.2338    1.9166 O.3     1  UNL1       -0.2865
     29 C          21.6681   73.4513    1.9863 C.3     1  UNL1        0.2611
     30 C          22.6218   73.3925    3.1809 C.3     1  UNL1        0.1582
     31 C          21.8075   73.1819    4.4624 C.3     1  UNL1        0.1625
     32 C          20.7291   74.2677    4.5418 C.3     1  UNL1        0.1686
     33 C          19.9161   74.2584    3.2456 C.3     1  UNL1        0.1760
     34 O          22.6695   73.2746    5.5981 O.3     1  UNL1       -0.3801
     35 O          19.8668   74.0046    5.6503 O.3     1  UNL1       -0.3794
     36 O          20.7696   74.5480    2.1391 O.3     1  UNL1       -0.3263
     37 H          22.1174   73.1360    6.3799 H       1  UNL1        0.2105
     38 H          19.2041   74.7097    5.6627 H       1  UNL1        0.2105
     39 C          24.8057   72.5129    2.5555 C.2     1  UNL1        0.2231
     40 C          25.7688   71.3674    2.3753 C.3     1  UNL1        0.0946
     41 N          23.5579   72.2801    3.0061 N.am    1  UNL1       -0.2994
     42 O          25.1539   73.6446    2.2942 O.2     1  UNL1       -0.2751
     43 H          23.2789   71.3745    3.2151 H       1  UNL1        0.1496
     44 C          18.8152   75.3178    3.3279 C.3     1  UNL1        0.1693
     45 O          17.7017   74.7928    4.0537 O.3     1  UNL1       -0.3794
     46 H          17.0325   75.4899    4.0820 H       1  UNL1        0.2105
@<TRIPOS>BOND
     1    29    30    1
     2    29    28    1
     3    29    36    1
     4    30    31    1
     5    30    41    1
     6    31    32    1
     7    31    34    1
     8    32    33    1
     9    32    35    1
    10    33    44    1
    11    33    36    1
    12    44    45    1
    13    39    40    1
    14    39    41   am
    15    39    42    2
    16    41    43    1
    17    28    25    1
    18    34    37    1
    19    35    38    1
    20    45    46    1
    21    15    16   ar
    22    15    20   ar
    23    15     6    1
    24    16    17   ar
    25    16    21    2
    26    17    18   ar
    27    17    23    1
    28    18    19   ar
    29    18    22    2
    30    19    20   ar
    31     6     7    1
    32     6    11    1
    33     7     8    1
    34     7     9    1
    35     8    13    1
    36     9    10    1
    37     9    12    1
    38    10    11    1
    39    10     5    1
    40    12    14    1
    41     5     4    1
    42     4     1    1
    43     1     2    2
    44     1     3    1
    45     1    24    1
    46    24    25    1
    47    25    26    2
    48    25    27    1
@<TRIPOS>MOLECULE
UD1
 46 48 0 0 0
SMALL
GASTEIGER

@<TRIPOS>ATOM
      1 P          21.0889   70.9896   -3.6342 P.3     1  UNL1        0.2189
      2 O          21.4320   71.7179   -4.8755 O.2     1  UNL1       -0.5170
      3 O          20.7230   69.4628   -3.9914 O.3     1  UNL1       -0.4371
      4 O          19.8224   71.6938   -2.9322 O.3     1  UNL1       -0.3112
      5 C          18.9184   70.6500   -2.5666 C.3     1  UNL1        0.1811
      6 C          17.1349   70.5232   -5.6860 C.3     1  UNL1        0.2383
      7 C          17.0387   69.0823   -5.1250 C.3     1  UNL1        0.1895
      8 O          15.8246   68.4534   -5.5368 O.3     1  UNL1       -0.3779
      9 C          17.0429   69.3280   -3.5937 C.3     1  UNL1        0.1713
     10 C          17.6661   70.7290   -3.4411 C.3     1  UNL1        0.1764
     11 O          18.0172   71.1887   -4.7575 O.3     1  UNL1       -0.3308
     12 O          15.7093   69.3080   -3.0801 O.3     1  UNL1       -0.3794
     13 H          15.8267   67.5640   -5.1566 H       1  UNL1        0.2106
     14 H          15.3545   68.4269   -3.2587 H       1  UNL1        0.2105
     15 N          17.7097   70.5193   -7.0317 N.ar    1  UNL1       -0.2551
     16 C          16.8990   70.4580   -8.1024 C.ar    1  UNL1        0.3323
     17 N          17.3998   70.4568   -9.3519 N.ar    1  UNL1       -0.2743
     18 C          18.7325   70.5083   -9.5499 C.ar    1  UNL1        0.2626
     19 C          19.5978   70.5671   -8.4315 C.ar    1  UNL1        0.0795
     20 C          19.0685   70.5722   -7.1893 C.ar    1  UNL1        0.0869
     21 O          15.6947   70.4112   -7.9401 O.2     1  UNL1       -0.2464
     22 O          19.1866   70.5024  -10.6791 O.2     1  UNL1       -0.2670
     23 H          16.8000   70.4170  -10.1128 H       1  UNL1        0.1734
     24 O          22.3451   71.0204   -2.6292 O.3     1  UNL1       -0.2703
     25 P          23.0802   72.4351   -2.8471 P.3     1  UNL1        0.2208
     26 O          22.0783   73.4601   -3.2140 O.2     1  UNL1       -0.5170
     27 O          24.1661   72.3003   -4.0281 O.3     1  UNL1       -0.4371
     28 O          23.8208   72.8716   -1.4864 O.3     1  UNL1       -0.2865
     29 C          22.9842   73.8402   -0.8515 C.3     1  UNL1        0.2611
     30 C          23.8546   74.8197   -0.0622 C.3     1  UNL1        0.1582
     31 C          24.6676   74.0414    0.9785 C.3     1  UNL1        0.1625
     32 C          23.7051   73.1987    1.8221 C.3     1  UNL1        0.1686
     33 C          22.8479   72.3391    0.8906 C.3     1  UNL1        0.1760
     34 O          25.3704   74.9576    1.8199 O.3     1  UNL1       -0.3801
     35 O          24.4525   72.3550    2.7002 O.3     1  UNL1       -0.3794
     36 O          22.0793   73.1794    0.0305 O.3     1  UNL1       -0.3263
     37 H          25.8673   74.4267    2.4575 H       1  UNL1        0.2105
     38 H          23.8094   71.8428    3.2106 H       1  UNL1        0.2105
     39 C          24.9984   76.8309   -0.8244 C.2     1  UNL1        0.2231
     40 C          25.9343   77.5445   -1.7662 C.3     1  UNL1        0.0946
     41 N          24.7642   75.5132   -0.9766 N.am    1  UNL1       -0.2994
     42 O          24.4554   77.4432    0.0702 O.2     1  UNL1       -0.2751
     43 H          25.1984   75.0231   -1.6926 H       1  UNL1        0.1496
     44 C          21.9052   71.4694    1.7250 C.3     1  UNL1        0.1693
     45 O          21.7082   70.2151    1.0692 O.3     1  UNL1       -0.3794
     46 H          21.1098   69.6991    1.6262 H       1  UNL1        0.2105
@<TRIPOS>BOND
     1    29    30    1
     2    29    28    1
     3    29    36    1
     4    30    31    1
     5    30    41    1
     6    31    32    1
     7    31    34    1
     8    32    33    1
     9    32    35    1
    10    33    44    1
    11    33    36    1
    12    44    45    1
    13    39    40    1
    14    39    41   am
    15    39    42    2
    16    41    43    1
    17    28    25    1
    18    34    37    1
    19    35    38    1
    20    45    46    1
    21    15    16   ar
    22    15    20   ar
    23    15     6    1
    24    16    17   ar
    25    16    21    2
    26    17    18   ar
    27    17    23    1
    28    18    19   ar
    29    18    22    2
    30    19    20   ar
    31     6     7    1
    32     6    11    1
    33     7     8    1
    34     7     9    1
    35     8    13    1
    36     9    10    1
    37     9    12    1
    38    10    11    1
    39    10     5    1
    40    12    14    1
    41     5     4    1
    42     4     1    1
    43     1     2    2
    44     1     3    1
    45     1    24    1
    46    24    25    1
    47    25    26    2
    48    25    27    1
@<TRIPOS>MOLECULE
UD1
 46 48 0 0 0
SMALL
GASTEIGER

@<TRIPOS>ATOM
      1 P          21.3164   71.1313   -2.6239 P.3     1  UNL1        0.2189
      2 O          22.5113   70.3590   -3.0296 O.2     1  UNL1       -0.5170
      3 O          21.1362   71.0416   -1.0264 O.3     1  UNL1       -0.4371
      4 O          20.0128   70.5201   -3.3451 O.3     1  UNL1       -0.3112
      5 C          18.8772   71.0020   -2.6248 C.3     1  UNL1        0.1811
      6 C          17.1673   70.5776   -5.7590 C.3     1  UNL1        0.2383
      7 C          17.1755   69.1633   -5.1267 C.3     1  UNL1        0.1895
      8 O          16.0229   68.4193   -5.5234 O.3     1  UNL1       -0.3779
      9 C          17.1319   69.4844   -3.6101 C.3     1  UNL1        0.1713
     10 C          17.6390   70.9367   -3.5202 C.3     1  UNL1        0.1764
     11 O          17.9766   71.3571   -4.8530 O.3     1  UNL1       -0.3308
     12 O          15.7948   69.3829   -3.1154 O.3     1  UNL1       -0.3794
     13 H          16.0887   67.5530   -5.0984 H       1  UNL1        0.2106
     14 H          15.5145   68.4684   -3.2539 H       1  UNL1        0.2105
     15 N          17.7652   70.5530   -7.0944 N.ar    1  UNL1       -0.2551
     16 C          16.9724   70.4926   -8.1785 C.ar    1  UNL1        0.3323
     17 N          17.4948   70.4726   -9.4190 N.ar    1  UNL1       -0.2743
     18 C          18.8314   70.5039   -9.5940 C.ar    1  UNL1        0.2626
     19 C          19.6778   70.5615   -8.4613 C.ar    1  UNL1        0.0795
     20 C          19.1271   70.5858   -7.2286 C.ar    1  UNL1        0.0869
     21 O          15.7651   70.4639   -8.0369 O.2     1  UNL1       -0.2464
     22 O          19.3049   70.4811  -10.7150 O.2     1  UNL1       -0.2670
     23 H          16.9079   70.4337  -10.1898 H       1  UNL1        0.1734
     24 O          21.4984   72.6696   -3.0589 O.3     1  UNL1       -0.2703
     25 P          22.2626   72.6650   -4.4750 P.3     1  UNL1        0.2208
     26 O          21.6694   71.6317   -5.3521 O.2     1  UNL1       -0.5170
     27 O          23.8223   72.3398   -4.2429 O.3     1  UNL1       -0.4371
     28 O          22.1147   74.1088   -5.1707 O.3     1  UNL1       -0.2865
     29 C          23.2434   74.8834   -4.7620 C.3     1  UNL1        0.2611
     30 C          22.7573   76.1772   -4.1062 C.3     1  UNL1        0.1582
     31 C          21.9008   76.9569   -5.1103 C.3     1  UNL1        0.1625
     32 C          22.7057   77.1425   -6.4009 C.3     1  UNL1        0.1686
     33 C          23.1931   75.7754   -6.8853 C.3     1  UNL1        0.1760
     34 O          21.5651   78.2335   -4.5635 O.3     1  UNL1       -0.3801
     35 O          21.8756   77.7371   -7.4005 O.3     1  UNL1       -0.3794
     36 O          24.0448   75.1907   -5.9007 O.3     1  UNL1       -0.3263
     37 H          21.0275   78.6887   -5.2262 H       1  UNL1        0.2105
     38 H          22.4202   77.8350   -8.1944 H       1  UNL1        0.2105
     39 C          22.0794   76.5948   -1.8040 C.2     1  UNL1        0.2231
     40 C          21.2548   76.2633   -0.5865 C.3     1  UNL1        0.0946
     41 N          21.9561   75.8558   -2.9234 N.am    1  UNL1       -0.2994
     42 O          22.8547   77.5266   -1.7758 O.2     1  UNL1       -0.2751
     43 H          21.3359   75.1099   -2.9461 H       1  UNL1        0.1496
     44 C          23.9709   75.9462   -8.1918 C.3     1  UNL1        0.1693
     45 O          23.0684   75.8707   -9.2972 O.3     1  UNL1       -0.3794
     46 H          23.5975   75.9825  -10.0986 H       1  UNL1        0.2105
@<TRIPOS>BOND
     1    29    30    1
     2    29    28    1
     3    29    36    1
     4    30    31    1
     5    30    41    1
     6    31    32    1
     7    31    34    1
     8    32    33    1
     9    32    35    1
    10    33    44    1
    11    33    36    1
    12    44    45    1
    13    39    40    1
    14    39    41   am
    15    39    42    2
    16    41    43    1
    17    28    25    1
    18    34    37    1
    19    35    38    1
    20    45    46    1
    21    15    16   ar
    22    15    20   ar
    23    15     6    1
    24    16    17   ar
    25    16    21    2
    26    17    18   ar
    27    17    23    1
    28    18    19   ar
    29    18    22    2
    30    19    20   ar
    31     6     7    1
    32     6    11    1
    33     7     8    1
    34     7     9    1
    35     8    13    1
    36     9    10    1
    37     9    12    1
    38    10    11    1
    39    10     5    1
    40    12    14    1
    41     5     4    1
    42     4     1    1
    43     1     2    2
    44     1     3    1
    45     1    24    1
    46    24    25    1
    47    25    26    2
    48    25    27    1
@<TRIPOS>MOLECULE
UD1
 46 48 0 0 0
SMALL
GASTEIGER

@<TRIPOS>ATOM
      1 P          20.6010   72.1372   -2.3270 P.3     1  UNL1        0.2189
      2 O          21.1833   72.7641   -3.5339 O.2     1  UNL1       -0.5170
      3 O          21.0380   70.5889   -2.2624 O.3     1  UNL1       -0.4371
      4 O          18.9952   72.2384   -2.3920 O.3     1  UNL1       -0.3112
      5 C          18.4977   70.9001   -2.4362 C.3     1  UNL1        0.1811
      6 C          16.9342   70.5246   -5.6520 C.3     1  UNL1        0.2383
      7 C          16.9505   69.0935   -5.0588 C.3     1  UNL1        0.1895
      8 O          15.8348   68.3341   -5.5253 O.3     1  UNL1       -0.3779
      9 C          16.8343   69.3703   -3.5373 C.3     1  UNL1        0.1713
     10 C          17.3008   70.8311   -3.3859 C.3     1  UNL1        0.1764
     11 O          17.6845   71.2970   -4.6908 O.3     1  UNL1       -0.3308
     12 O          15.4802   69.2233   -3.1041 O.3     1  UNL1       -0.3794
     13 H          15.9039   67.4578   -5.1217 H       1  UNL1        0.2106
     14 H          15.2289   68.3067   -3.2795 H       1  UNL1        0.2105
     15 N          17.5891   70.5520   -6.9604 N.ar    1  UNL1       -0.2551
     16 C          16.8466   70.4800   -8.0788 C.ar    1  UNL1        0.3323
     17 N          17.4218   70.5070   -9.2956 N.ar    1  UNL1       -0.2743
     18 C          18.7620   70.5981   -9.4118 C.ar    1  UNL1        0.2626
     19 C          19.5561   70.6687   -8.2425 C.ar    1  UNL1        0.0795
     20 C          18.9528   70.6450   -7.0347 C.ar    1  UNL1        0.0869
     21 O          15.6366   70.3975   -7.9904 O.2     1  UNL1       -0.2464
     22 O          19.2834   70.6178  -10.5114 O.2     1  UNL1       -0.2670
     23 H          16.8704   70.4589  -10.0918 H       1  UNL1        0.1734
     24 O          21.1339   72.9014   -1.0151 O.3     1  UNL1       -0.2703
     25 P          21.9875   71.8317   -0.1686 P.3     1  UNL1        0.2208
     26 O          22.9870   71.1896   -1.0504 O.2     1  UNL1       -0.5170
     27 O          21.0006   70.7090    0.4294 O.3     1  UNL1       -0.4371
     28 O          22.7411   72.5807    1.0404 O.3     1  UNL1       -0.2865
     29 C          22.7445   71.6790    2.1486 C.3     1  UNL1        0.2611
     30 C          22.1080   72.3642    3.3591 C.3     1  UNL1        0.1582
     31 C          22.9013   73.6330    3.6914 C.3     1  UNL1        0.1625
     32 C          24.3781   73.2587    3.8558 C.3     1  UNL1        0.1686
     33 C          24.8442   72.5086    2.6062 C.3     1  UNL1        0.1760
     34 O          22.4096   74.2006    4.9069 O.3     1  UNL1       -0.3801
     35 O          25.1565   74.4456    4.0206 O.3     1  UNL1       -0.3794
     36 O          24.0872   71.3085    2.4539 O.3     1  UNL1       -0.3263
     37 H          22.9352   74.9943    5.0773 H       1  UNL1        0.2105
     38 H          26.0773   74.1647    4.1195 H       1  UNL1        0.2105
     39 C          20.4269   73.9540    2.5970 C.2     1  UNL1        0.2231
     40 C          18.9998   74.3195    2.2776 C.3     1  UNL1        0.0946
     41 N          20.7219   72.7196    3.0482 N.am    1  UNL1       -0.2994
     42 O          21.3100   74.7715    2.4484 O.2     1  UNL1       -0.2751
     43 H          20.0154   72.0652    3.1675 H       1  UNL1        0.1496
     44 C          26.3271   72.1586    2.7465 C.3     1  UNL1        0.1693
     45 O          26.5282   70.7871    2.3989 O.3     1  UNL1       -0.3794
     46 H          27.4727   70.6082    2.5008 H       1  UNL1        0.2105
@<TRIPOS>BOND
     1    29    30    1
     2    29    28    1
     3    29    36    1
     4    30    31    1
     5    30    41    1
     6    31    32    1
     7    31    34    1
     8    32    33    1
     9    32    35    1
    10    33    44    1
    11    33    36    1
    12    44    45    1
    13    39    40    1
    14    39    41   am
    15    39    42    2
    16    41    43    1
    17    28    25    1
    18    34    37    1
    19    35    38    1
    20    45    46    1
    21    15    16   ar
    22    15    20   ar
    23    15     6    1
    24    16    17   ar
    25    16    21    2
    26    17    18   ar
    27    17    23    1
    28    18    19   ar
    29    18    22    2
    30    19    20   ar
    31     6     7    1
    32     6    11    1
    33     7     8    1
    34     7     9    1
    35     8    13    1
    36     9    10    1
    37     9    12    1
    38    10    11    1
    39    10     5    1
    40    12    14    1
    41     5     4    1
    42     4     1    1
    43     1     2    2
    44     1     3    1
    45     1    24    1
    46    24    25    1
    47    25    26    2
    48    25    27    1
@<TRIPOS>MOLECULE
UD1
 46 48 0 0 0
SMALL
GASTEIGER

@<TRIPOS>ATOM
      1 P          21.0199   70.9536   -3.3674 P.3     1  UNL1        0.2189
      2 O          22.0467   71.7232   -4.1037 O.2     1  UNL1       -0.5170
      3 O          20.6151   69.6479   -4.2182 O.3     1  UNL1       -0.4371
      4 O          19.7170   71.8736   -3.1458 O.3     1  UNL1       -0.3112
      5 C          18.7258   71.0468   -2.5339 C.3     1  UNL1        0.1811
      6 C          17.0514   70.6158   -5.6863 C.3     1  UNL1        0.2383
      7 C          17.0795   69.1971   -5.0645 C.3     1  UNL1        0.1895
      8 O          15.9440   68.4356   -5.4770 O.3     1  UNL1       -0.3779
      9 C          17.0168   69.5057   -3.5460 C.3     1  UNL1        0.1713
     10 C          17.4968   70.9662   -3.4407 C.3     1  UNL1        0.1764
     11 O          17.8386   71.4028   -4.7673 O.3     1  UNL1       -0.3308
     12 O          15.6775   69.3765   -3.0640 O.3     1  UNL1       -0.3794
     13 H          16.0217   67.5674   -5.0579 H       1  UNL1        0.2106
     14 H          15.4149   68.4582   -3.2118 H       1  UNL1        0.2105
     15 N          17.6614   70.6122   -7.0164 N.ar    1  UNL1       -0.2551
     16 C          16.8842   70.4816   -8.1055 C.ar    1  UNL1        0.3323
     17 N          17.4176   70.4789   -9.3415 N.ar    1  UNL1       -0.2743
     18 C          18.7504   70.5987   -9.5066 C.ar    1  UNL1        0.2626
     19 C          19.5809   70.7308   -8.3683 C.ar    1  UNL1        0.0795
     20 C          19.0190   70.7359   -7.1405 C.ar    1  UNL1        0.0869
     21 O          15.6803   70.3727   -7.9729 O.2     1  UNL1       -0.2464
     22 O          19.2343   70.5915  -10.6234 O.2     1  UNL1       -0.2670
     23 H          16.8415   70.3885  -10.1162 H       1  UNL1        0.1734
     24 O          21.6081   70.5036   -1.9391 O.3     1  UNL1       -0.2703
     25 P          22.8367   71.4895   -1.6107 P.3     1  UNL1        0.2208
     26 O          22.4900   72.8656   -2.0290 O.2     1  UNL1       -0.5170
     27 O          24.1464   71.0005   -2.4093 O.3     1  UNL1       -0.4371
     28 O          23.1353   71.4686   -0.0293 O.3     1  UNL1       -0.2865
     29 C          23.3390   72.8246    0.3720 C.3     1  UNL1        0.2611
     30 C          23.8126   72.8552    1.8262 C.3     1  UNL1        0.1582
     31 C          22.7577   72.1817    2.7112 C.3     1  UNL1        0.1625
     32 C          21.4026   72.8488    2.4525 C.3     1  UNL1        0.1686
     33 C          21.1094   72.8159    0.9511 C.3     1  UNL1        0.1760
     34 O          23.1164   72.3358    4.0856 O.3     1  UNL1       -0.3801
     35 O          20.3797   72.1416    3.1562 O.3     1  UNL1       -0.3794
     36 O          22.1146   73.5447    0.2475 O.3     1  UNL1       -0.3263
     37 H          22.4277   71.8983    4.6049 H       1  UNL1        0.2105
     38 H          19.5454   72.5934    2.9655 H       1  UNL1        0.2105
     39 C          26.0477   72.5994    2.7605 C.2     1  UNL1        0.2231
     40 C          27.3552   71.8588    2.8801 C.3     1  UNL1        0.0946
     41 N          25.0827   72.1359    1.9431 N.am    1  UNL1       -0.2994
     42 O          25.8646   73.6133    3.3998 O.2     1  UNL1       -0.2751
     43 H          25.2291   71.3246    1.4312 H       1  UNL1        0.1496
     44 C          19.7429   73.4509    0.6855 C.3     1  UNL1        0.1693
     45 O          19.6318   73.7808   -0.7004 O.3     1  UNL1       -0.3794
     46 H          18.7589   74.1774   -0.8245 H       1  UNL1        0.2105
@<TRIPOS>BOND
     1    29    30    1
     2    29    28    1
     3    29    36    1
     4    30    31    1
     5    30    41    1
     6    31    32    1
     7    31    34    1
     8    32    33    1
     9    32    35    1
    10    33    44    1
    11    33    36    1
    12    44    45    1
    13    39    40    1
    14    39    41   am
    15    39    42    2
    16    41    43    1
    17    28    25    1
    18    34    37    1
    19    35    38    1
    20    45    46    1
    21    15    16   ar
    22    15    20   ar
    23    15     6    1
    24    16    17   ar
    25    16    21    2
    26    17    18   ar
    27    17    23    1
    28    18    19   ar
    29    18    22    2
    30    19    20   ar
    31     6     7    1
    32     6    11    1
    33     7     8    1
    34     7     9    1
    35     8    13    1
    36     9    10    1
    37     9    12    1
    38    10    11    1
    39    10     5    1
    40    12    14    1
    41     5     4    1
    42     4     1    1
    43     1     2    2
    44     1     3    1
    45     1    24    1
    46    24    25    1
    47    25    26    2
    48    25    27    1
@<TRIPOS>MOLECULE
UD1
 46 48 0 0 0
SMALL
GASTEIGER

@<TRIPOS>ATOM
      1 P          20.4006   71.1822   -1.3148 P.3     1  UNL1        0.2189
      2 O          20.3233   72.6573   -1.2323 O.2     1  UNL1       -0.5170
      3 O          21.6705   70.7605   -2.2103 O.3     1  UNL1       -0.4371
      4 O          19.0552   70.6119   -1.9911 O.3     1  UNL1       -0.3112
      5 C          18.3736   71.7294   -2.5629 C.3     1  UNL1        0.1811
      6 C          17.0050   70.5502   -5.6716 C.3     1  UNL1        0.2383
      7 C          17.3827   69.2610   -4.8999 C.3     1  UNL1        0.1895
      8 O          16.5079   68.1855   -5.2423 O.3     1  UNL1       -0.3779
      9 C          17.1778   69.6928   -3.4246 C.3     1  UNL1        0.1713
     10 C          17.2485   71.2314   -3.4715 C.3     1  UNL1        0.1764
     11 O          17.5167   71.6078   -4.8329 O.3     1  UNL1       -0.3308
     12 O          15.9020   69.2584   -2.9487 O.3     1  UNL1       -0.3794
     13 H          16.7957   67.4166   -4.7310 H       1  UNL1        0.2106
     14 H          15.8987   68.2933   -2.9998 H       1  UNL1        0.2105
     15 N          17.6486   70.5764   -6.9856 N.ar    1  UNL1       -0.2551
     16 C          16.8967   70.4991   -8.0974 C.ar    1  UNL1        0.3323
     17 N          17.4613   70.5249   -9.3192 N.ar    1  UNL1       -0.2743
     18 C          18.8002   70.6200   -9.4471 C.ar    1  UNL1        0.2626
     19 C          19.6041   70.6961   -8.2849 C.ar    1  UNL1        0.0795
     20 C          19.0113   70.6736   -7.0719 C.ar    1  UNL1        0.0869
     21 O          15.6878   70.4130   -7.9984 O.2     1  UNL1       -0.2464
     22 O          19.3121   70.6386  -10.5512 O.2     1  UNL1       -0.2670
     23 H          16.9033   70.4729  -10.1105 H       1  UNL1        0.1734
     24 O          20.5587   70.5695    0.1646 O.3     1  UNL1       -0.2703
     25 P          21.8485   71.2710    0.8229 P.3     1  UNL1        0.2208
     26 O          22.9912   70.3319    0.7903 O.2     1  UNL1       -0.5170
     27 O          21.5242   71.6675    2.3493 O.3     1  UNL1       -0.4371
     28 O          22.2213   72.5986   -0.0073 O.3     1  UNL1       -0.2865
     29 C          23.6453   72.7126    0.0108 C.3     1  UNL1        0.2611
     30 C          24.0362   74.0627    0.6144 C.3     1  UNL1        0.1582
     31 C          23.4141   75.1854   -0.2235 C.3     1  UNL1        0.1625
     32 C          23.8172   74.9847   -1.6882 C.3     1  UNL1        0.1686
     33 C          23.4399   73.5658   -2.1190 C.3     1  UNL1        0.1760
     34 O          23.8924   76.4497    0.2393 O.3     1  UNL1       -0.3801
     35 O          23.1303   75.9329   -2.5072 O.3     1  UNL1       -0.3794
     36 O          24.1454   72.6160   -1.3211 O.3     1  UNL1       -0.3263
     37 H          23.4765   77.1252   -0.3139 H       1  UNL1        0.2105
     38 H          23.4119   75.7711   -3.4188 H       1  UNL1        0.2105
     39 C          24.3367   73.7844    3.0158 C.2     1  UNL1        0.2231
     40 C          23.8271   73.8697    4.4319 C.3     1  UNL1        0.0946
     41 N          23.5418   74.1459    1.9903 N.am    1  UNL1       -0.2994
     42 O          25.4626   73.3897    2.7994 O.2     1  UNL1       -0.2751
     43 H          22.6407   74.4616    2.1632 H       1  UNL1        0.1496
     44 C          23.8089   73.3658   -3.5904 C.3     1  UNL1        0.1693
     45 O          24.1093   71.9883   -3.8236 O.3     1  UNL1       -0.3794
     46 H          24.3363   71.9060   -4.7598 H       1  UNL1        0.2105
@<TRIPOS>BOND
     1    29    30    1
     2    29    28    1
     3    29    36    1
     4    30    31    1
     5    30    41    1
     6    31    32    1
     7    31    34    1
     8    32    33    1
     9    32    35    1
    10    33    44    1
    11    33    36    1
    12    44    45    1
    13    39    40    1
    14    39    41   am
    15    39    42    2
    16    41    43    1
    17    28    25    1
    18    34    37    1
    19    35    38    1
    20    45    46    1
    21    15    16   ar
    22    15    20   ar
    23    15     6    1
    24    16    17   ar
    25    16    21    2
    26    17    18   ar
    27    17    23    1
    28    18    19   ar
    29    18    22    2
    30    19    20   ar
    31     6     7    1
    32     6    11    1
    33     7     8    1
    34     7     9    1
    35     8    13    1
    36     9    10    1
    37     9    12    1
    38    10    11    1
    39    10     5    1
    40    12    14    1
    41     5     4    1
    42     4     1    1
    43     1     2    2
    44     1     3    1
    45     1    24    1
    46    24    25    1
    47    25    26    2
    48    25    27    1
@<TRIPOS>MOLECULE
UD1
 46 48 0 0 0
SMALL
GASTEIGER

@<TRIPOS>ATOM
      1 P          20.7874   71.3052   -0.9919 P.3     1  UNL1        0.2189
      2 O          20.9882   70.5852    0.2848 O.2     1  UNL1       -0.5170
      3 O          21.1684   72.8576   -0.7983 O.3     1  UNL1       -0.4371
      4 O          19.2452   71.1839   -1.4389 O.3     1  UNL1       -0.3112
      5 C          19.2038   70.2755   -2.5405 C.3     1  UNL1        0.1811
      6 C          17.2952   70.4757   -5.5809 C.3     1  UNL1        0.2383
      7 C          17.0816   69.0241   -5.0834 C.3     1  UNL1        0.1895
      8 O          15.7968   68.5351   -5.4700 O.3     1  UNL1       -0.3779
      9 C          17.1698   69.1912   -3.5441 C.3     1  UNL1        0.1713
     10 C          17.9317   70.5171   -3.3545 C.3     1  UNL1        0.1764
     11 O          18.2737   71.0069   -4.6623 O.3     1  UNL1       -0.3308
     12 O          15.8618   69.2723   -2.9738 O.3     1  UNL1       -0.3794
     13 H          15.7276   67.6316   -5.1318 H       1  UNL1        0.2106
     14 H          15.4164   68.4390   -3.1771 H       1  UNL1        0.2105
     15 N          17.8135   70.4847   -6.9494 N.ar    1  UNL1       -0.2551
     16 C          16.9578   70.4624   -7.9861 C.ar    1  UNL1        0.3323
     17 N          17.4063   70.4740   -9.2553 N.ar    1  UNL1       -0.2743
     18 C          18.7305   70.4991   -9.5079 C.ar    1  UNL1        0.2626
     19 C          19.6425   70.5167   -8.4258 C.ar    1  UNL1        0.0795
     20 C          19.1654   70.5099   -7.1627 C.ar    1  UNL1        0.0869
     21 O          15.7606   70.4398   -7.7745 O.2     1  UNL1       -0.2464
     22 O          19.1372   70.5048  -10.6550 O.2     1  UNL1       -0.2670
     23 H          16.7748   70.4624   -9.9910 H       1  UNL1        0.1734
     24 O          21.7272   70.6585   -2.1265 O.3     1  UNL1       -0.2703
     25 P          23.1201   71.4634   -2.0908 P.3     1  UNL1        0.2208
     26 O          24.1332   70.7313   -2.8823 O.2     1  UNL1       -0.5170
     27 O          23.6244   71.5975   -0.5677 O.3     1  UNL1       -0.4371
     28 O          22.9091   72.9315   -2.7159 O.3     1  UNL1       -0.2865
     29 C          24.0454   73.1984   -3.5398 C.3     1  UNL1        0.2611
     30 C          24.4092   74.6804   -3.4336 C.3     1  UNL1        0.1582
     31 C          23.2090   75.5242   -3.8774 C.3     1  UNL1        0.1625
     32 C          22.7705   75.0586   -5.2699 C.3     1  UNL1        0.1686
     33 C          22.5273   73.5483   -5.2367 C.3     1  UNL1        0.1760
     34 O          23.5839   76.9021   -3.9256 O.3     1  UNL1       -0.3801
     35 O          21.5651   75.7301   -5.6408 O.3     1  UNL1       -0.3794
     36 O          23.7365   72.8727   -4.8932 O.3     1  UNL1       -0.3263
     37 H          22.8012   77.3949   -4.2081 H       1  UNL1        0.2105
     38 H          21.3248   75.4077   -6.5211 H       1  UNL1        0.2105
     39 C          24.2405   76.1068   -1.4661 C.2     1  UNL1        0.2231
     40 C          24.5918   76.4389   -0.0383 C.3     1  UNL1        0.0946
     41 N          24.7498   75.0031   -2.0465 N.am    1  UNL1       -0.2994
     42 O          23.4998   76.8338   -2.0930 O.2     1  UNL1       -0.2751
     43 H          25.3428   74.4213   -1.5451 H       1  UNL1        0.1496
     44 C          22.0575   73.0782   -6.6149 C.3     1  UNL1        0.1693
     45 O          23.1816   72.6282   -7.3739 O.3     1  UNL1       -0.3794
     46 H          22.8427   72.3419   -8.2328 H       1  UNL1        0.2105
@<TRIPOS>BOND
     1    29    30    1
     2    29    28    1
     3    29    36    1
     4    30    31    1
     5    30    41    1
     6    31    32    1
     7    31    34    1
     8    32    33    1
     9    32    35    1
    10    33    44    1
    11    33    36    1
    12    44    45    1
    13    39    40    1
    14    39    41   am
    15    39    42    2
    16    41    43    1
    17    28    25    1
    18    34    37    1
    19    35    38    1
    20    45    46    1
    21    15    16   ar
    22    15    20   ar
    23    15     6    1
    24    16    17   ar
    25    16    21    2
    26    17    18   ar
    27    17    23    1
    28    18    19   ar
    29    18    22    2
    30    19    20   ar
    31     6     7    1
    32     6    11    1
    33     7     8    1
    34     7     9    1
    35     8    13    1
    36     9    10    1
    37     9    12    1
    38    10    11    1
    39    10     5    1
    40    12    14    1
    41     5     4    1
    42     4     1    1
    43     1     2    2
    44     1     3    1
    45     1    24    1
    46    24    25    1
    47    25    26    2
    48    25    27    1
@<TRIPOS>MOLECULE
UD1
 46 48 0 0 0
SMALL
GASTEIGER

@<TRIPOS>ATOM
      1 P          23.0713   71.6994   -3.3796 P.3     1  UNL1        0.2189
      2 O          24.1547   70.7387   -3.0761 O.2     1  UNL1       -0.5170
      3 O          23.6614   72.9147   -4.2556 O.3     1  UNL1       -0.4371
      4 O          22.4651   72.2759   -2.0037 O.3     1  UNL1       -0.3112
      5 C          21.6312   71.2526   -1.4580 C.3     1  UNL1        0.1811
      6 C          22.9901   71.9356    1.7999 C.3     1  UNL1        0.2383
      7 C          22.4540   73.3035    1.3084 C.3     1  UNL1        0.1895
      8 O          22.0167   74.1054    2.4061 O.3     1  UNL1       -0.3779
      9 C          21.2555   72.8828    0.4185 C.3     1  UNL1        0.1713
     10 C          21.5523   71.4136    0.0609 C.3     1  UNL1        0.1764
     11 O          22.8168   71.0739    0.6549 O.3     1  UNL1       -0.3308
     12 O          20.0301   72.9895    1.1463 O.3     1  UNL1       -0.3794
     13 H          21.6970   74.9390    2.0342 H       1  UNL1        0.2106
     14 H          19.9314   73.9190    1.3921 H       1  UNL1        0.2105
     15 N          24.4042   72.0323    2.1638 N.ar    1  UNL1       -0.2551
     16 C          25.1542   70.9183    2.2248 C.ar    1  UNL1        0.3323
     17 N          26.4584   70.9778    2.5529 N.ar    1  UNL1       -0.2743
     18 C          27.0343   72.1635    2.8365 C.ar    1  UNL1        0.2626
     19 C          26.2549   73.3435    2.7819 C.ar    1  UNL1        0.0795
     20 C          24.9503   73.2557    2.4447 C.ar    1  UNL1        0.0869
     21 O          24.6492   69.8414    1.9717 O.2     1  UNL1       -0.2464
     22 O          28.2122   72.2180    3.1379 O.2     1  UNL1       -0.2670
     23 H          26.9856   70.1647    2.5874 H       1  UNL1        0.1734
     24 O          21.9098   70.9546   -4.2071 O.3     1  UNL1       -0.2703
     25 P          21.1326   72.0898   -5.0418 P.3     1  UNL1        0.2208
     26 O          21.5760   72.0548   -6.4529 O.2     1  UNL1       -0.5170
     27 O          21.4578   73.5361   -4.4136 O.3     1  UNL1       -0.4371
     28 O          19.5476   71.8195   -4.9707 O.3     1  UNL1       -0.2865
     29 C          19.3507   70.4322   -5.2497 C.3     1  UNL1        0.2611
     30 C          18.2892   70.2822   -6.3409 C.3     1  UNL1        0.1582
     31 C          16.9841   70.9285   -5.8628 C.3     1  UNL1        0.1625
     32 C          16.6102   70.3297   -4.5027 C.3     1  UNL1        0.1686
     33 C          17.7976   70.4789   -3.5491 C.3     1  UNL1        0.1760
     34 O          15.9451   70.6650   -6.8075 O.3     1  UNL1       -0.3801
     35 O          15.4786   71.0212   -3.9709 O.3     1  UNL1       -0.3794
     36 O          18.9218   69.7665   -4.0639 O.3     1  UNL1       -0.3263
     37 H          15.1448   71.0888   -6.4681 H       1  UNL1        0.2105
     38 H          15.2781   70.6139   -3.1163 H       1  UNL1        0.2105
     39 C          18.9448   70.2292   -8.6865 C.2     1  UNL1        0.2231
     40 C          19.4157   70.9130   -9.9446 C.3     1  UNL1        0.0946
     41 N          18.7462   70.9460   -7.5635 N.am    1  UNL1       -0.2994
     42 O          18.7451   69.0333   -8.6848 O.2     1  UNL1       -0.2751
     43 H          18.9061   71.9031   -7.5646 H       1  UNL1        0.1496
     44 C          17.4230   69.9131   -2.1778 C.3     1  UNL1        0.1693
     45 O          17.2062   68.5048   -2.2862 O.3     1  UNL1       -0.3794
     46 H          16.9728   68.1888   -1.4028 H       1  UNL1        0.2105
@<TRIPOS>BOND
     1    29    30    1
     2    29    28    1
     3    29    36    1
     4    30    31    1
     5    30    41    1
     6    31    32    1
     7    31    34    1
     8    32    33    1
     9    32    35    1
    10    33    44    1
    11    33    36    1
    12    44    45    1
    13    39    40    1
    14    39    41   am
    15    39    42    2
    16    41    43    1
    17    28    25    1
    18    34    37    1
    19    35    38    1
    20    45    46    1
    21    15    16   ar
    22    15    20   ar
    23    15     6    1
    24    16    17   ar
    25    16    21    2
    26    17    18   ar
    27    17    23    1
    28    18    19   ar
    29    18    22    2
    30    19    20   ar
    31     6     7    1
    32     6    11    1
    33     7     8    1
    34     7     9    1
    35     8    13    1
    36     9    10    1
    37     9    12    1
    38    10    11    1
    39    10     5    1
    40    12    14    1
    41     5     4    1
    42     4     1    1
    43     1     2    2
    44     1     3    1
    45     1    24    1
    46    24    25    1
    47    25    26    2
    48    25    27    1
@<TRIPOS>MOLECULE
UD1
 46 48 0 0 0
SMALL
GASTEIGER

@<TRIPOS>ATOM
      1 P          21.5853   71.0914   -2.5702 P.3     1  UNL1        0.2189
      2 O          22.8330   70.4115   -2.9821 O.2     1  UNL1       -0.5170
      3 O          21.3063   70.8026   -1.0110 O.3     1  UNL1       -0.4371
      4 O          20.3557   70.5326   -3.4469 O.3     1  UNL1       -0.3112
      5 C          19.2176   70.4917   -2.5847 C.3     1  UNL1        0.1811
      6 C          17.3263   70.5066   -5.6425 C.3     1  UNL1        0.2383
      7 C          17.1771   69.0628   -5.1008 C.3     1  UNL1        0.1895
      8 O          15.9199   68.5019   -5.4803 O.3     1  UNL1       -0.3779
      9 C          17.2450   69.2818   -3.5670 C.3     1  UNL1        0.1713
     10 C          17.9422   70.6475   -3.4143 C.3     1  UNL1        0.1764
     11 O          18.2714   71.1118   -4.7347 O.3     1  UNL1       -0.3308
     12 O          15.9300   69.3189   -3.0083 O.3     1  UNL1       -0.3794
     13 H          15.8904   67.6071   -5.1143 H       1  UNL1        0.2106
     14 H          15.5258   68.4596   -3.1881 H       1  UNL1        0.2105
     15 N          17.8547   70.4974   -7.0071 N.ar    1  UNL1       -0.2551
     16 C          17.0081   70.4264   -8.0490 C.ar    1  UNL1        0.3323
     17 N          17.4658   70.4202   -9.3149 N.ar    1  UNL1       -0.2743
     18 C          18.7907   70.4761   -9.5587 C.ar    1  UNL1        0.2626
     19 C          19.6935   70.5451   -8.4710 C.ar    1  UNL1        0.0795
     20 C          19.2070   70.5552   -7.2114 C.ar    1  UNL1        0.0869
     21 O          15.8103   70.3755   -7.8453 O.2     1  UNL1       -0.2464
     22 O          19.2059   70.4657  -10.7028 O.2     1  UNL1       -0.2670
     23 H          16.8406   70.3734  -10.0546 H       1  UNL1        0.1734
     24 O          21.7350   72.6761   -2.8051 O.3     1  UNL1       -0.2703
     25 P          22.9779   72.8824   -3.8061 P.3     1  UNL1        0.2208
     26 O          22.5496   72.5881   -5.1913 O.2     1  UNL1       -0.5170
     27 O          24.1728   71.8861   -3.3915 O.3     1  UNL1       -0.4371
     28 O          23.4944   74.4041   -3.7160 O.3     1  UNL1       -0.2865
     29 C          23.0676   75.0581   -4.9124 C.3     1  UNL1        0.2611
     30 C          23.9417   76.2901   -5.1538 C.3     1  UNL1        0.1582
     31 C          23.8235   77.2321   -3.9505 C.3     1  UNL1        0.1625
     32 C          22.3402   77.5240   -3.7003 C.3     1  UNL1        0.1686
     33 C          21.5873   76.1988   -3.5654 C.3     1  UNL1        0.1760
     34 O          24.5149   78.4515   -4.2273 O.3     1  UNL1       -0.3801
     35 O          22.1984   78.2806   -2.4965 O.3     1  UNL1       -0.3794
     36 O          21.7040   75.4526   -4.7762 O.3     1  UNL1       -0.3263
     37 H          24.4152   79.0127   -3.4460 H       1  UNL1        0.2105
     38 H          21.2516   78.4411   -2.3769 H       1  UNL1        0.2105
     39 C          26.1653   75.8614   -4.2560 C.2     1  UNL1        0.2231
     40 C          27.6014   75.4360   -4.4256 C.3     1  UNL1        0.0946
     41 N          25.3367   75.8764   -5.3179 N.am    1  UNL1       -0.2994
     42 O          25.7555   76.1911   -3.1635 O.2     1  UNL1       -0.2751
     43 H          25.6645   75.6128   -6.1924 H       1  UNL1        0.1496
     44 C          20.1100   76.4794   -3.2829 C.3     1  UNL1        0.1693
     45 O          19.9180   76.6536   -1.8775 O.3     1  UNL1       -0.3794
     46 H          18.9766   76.8275   -1.7431 H       1  UNL1        0.2105
@<TRIPOS>BOND
     1    29    30    1
     2    29    28    1
     3    29    36    1
     4    30    31    1
     5    30    41    1
     6    31    32    1
     7    31    34    1
     8    32    33    1
     9    32    35    1
    10    33    44    1
    11    33    36    1
    12    44    45    1
    13    39    40    1
    14    39    41   am
    15    39    42    2
    16    41    43    1
    17    28    25    1
    18    34    37    1
    19    35    38    1
    20    45    46    1
    21    15    16   ar
    22    15    20   ar
    23    15     6    1
    24    16    17   ar
    25    16    21    2
    26    17    18   ar
    27    17    23    1
    28    18    19   ar
    29    18    22    2
    30    19    20   ar
    31     6     7    1
    32     6    11    1
    33     7     8    1
    34     7     9    1
    35     8    13    1
    36     9    10    1
    37     9    12    1
    38    10    11    1
    39    10     5    1
    40    12    14    1
    41     5     4    1
    42     4     1    1
    43     1     2    2
    44     1     3    1
    45     1    24    1
    46    24    25    1
    47    25    26    2
    48    25    27    1
@<TRIPOS>MOLECULE
UD1
 46 48 0 0 0
SMALL
GASTEIGER

@<TRIPOS>ATOM
      1 P          21.7476   72.2865   -6.2357 P.3     1  UNL1        0.2189
      2 O          20.7514   73.3265   -6.5743 O.2     1  UNL1       -0.5170
      3 O          23.2134   72.7820   -6.6811 O.3     1  UNL1       -0.4371
      4 O          21.3843   70.9232   -7.0117 O.3     1  UNL1       -0.3112
      5 C          20.5454   71.2833   -8.1104 C.3     1  UNL1        0.1811
      6 C          17.3764   70.0884   -6.9034 C.3     1  UNL1        0.2383
      7 C          17.0100   71.1433   -7.9773 C.3     1  UNL1        0.1895
      8 O          15.7766   70.8141   -8.6172 O.3     1  UNL1       -0.3779
      9 C          18.1967   71.0244   -8.9686 C.3     1  UNL1        0.1713
     10 C          19.3169   70.3725   -8.1352 C.3     1  UNL1        0.1764
     11 O          18.8121   70.1959   -6.8005 O.3     1  UNL1       -0.3308
     12 O          17.8416   70.1948  -10.0770 O.3     1  UNL1       -0.3794
     13 H          15.6064   71.5067   -9.2706 H       1  UNL1        0.2106
     14 H          17.0992   70.6254  -10.5215 H       1  UNL1        0.2105
     15 N          16.7419   70.4078   -5.6239 N.ar    1  UNL1       -0.2551
     16 C          16.3617   69.4139   -4.8023 C.ar    1  UNL1        0.3323
     17 N          15.7794   69.6783   -3.6178 N.ar    1  UNL1       -0.2743
     18 C          15.5587   70.9533   -3.2387 C.ar    1  UNL1        0.2626
     19 C          15.9486   72.0091   -4.0966 C.ar    1  UNL1        0.0795
     20 C          16.5355   71.7157   -5.2768 C.ar    1  UNL1        0.0869
     21 O          16.5540   68.2589   -5.1302 O.2     1  UNL1       -0.2464
     22 O          15.0280   71.1934   -2.1700 O.2     1  UNL1       -0.2670
     23 H          15.5158   68.9492   -3.0355 H       1  UNL1        0.1734
     24 O          21.7288   72.0217   -4.6487 O.3     1  UNL1       -0.2703
     25 P          22.6760   73.1374   -3.9800 P.3     1  UNL1        0.2208
     26 O          22.4833   74.4290   -4.6753 O.2     1  UNL1       -0.5170
     27 O          24.2153   72.6833   -4.1098 O.3     1  UNL1       -0.4371
     28 O          22.2964   73.3034   -2.4248 O.3     1  UNL1       -0.2865
     29 C          23.1641   72.4370   -1.6915 C.3     1  UNL1        0.2611
     30 C          22.3271   71.5349   -0.7829 C.3     1  UNL1        0.1582
     31 C          21.5035   72.4087    0.1698 C.3     1  UNL1        0.1625
     32 C          22.4511   73.3681    0.8976 C.3     1  UNL1        0.1686
     33 C          23.2767   74.1343   -0.1381 C.3     1  UNL1        0.1760
     34 O          20.8328   71.5796    1.1208 O.3     1  UNL1       -0.3801
     35 O          21.6897   74.2895    1.6805 O.3     1  UNL1       -0.3794
     36 O          24.0593   73.2189   -0.9037 O.3     1  UNL1       -0.3263
     37 H          20.3280   72.1688    1.6982 H       1  UNL1        0.2105
     38 H          22.3237   74.8739    2.1199 H       1  UNL1        0.2105
     39 C          20.1528   71.1047   -1.7938 C.2     1  UNL1        0.2231
     40 C          19.2274   70.2617   -2.6336 C.3     1  UNL1        0.0946
     41 N          21.4279   70.7165   -1.5990 N.am    1  UNL1       -0.2994
     42 O          19.7494   72.1324   -1.2927 O.2     1  UNL1       -0.2751
     43 H          21.7509   69.8940   -1.9998 H       1  UNL1        0.1496
     44 C          24.2036   75.1189    0.5777 C.3     1  UNL1        0.1693
     45 O          24.4531   74.6585    1.9073 O.3     1  UNL1       -0.3794
     46 H          25.0392   75.3057    2.3222 H       1  UNL1        0.2105
@<TRIPOS>BOND
     1    29    30    1
     2    29    28    1
     3    29    36    1
     4    30    31    1
     5    30    41    1
     6    31    32    1
     7    31    34    1
     8    32    33    1
     9    32    35    1
    10    33    44    1
    11    33    36    1
    12    44    45    1
    13    39    40    1
    14    39    41   am
    15    39    42    2
    16    41    43    1
    17    28    25    1
    18    34    37    1
    19    35    38    1
    20    45    46    1
    21    15    16   ar
    22    15    20   ar
    23    15     6    1
    24    16    17   ar
    25    16    21    2
    26    17    18   ar
    27    17    23    1
    28    18    19   ar
    29    18    22    2
    30    19    20   ar
    31     6     7    1
    32     6    11    1
    33     7     8    1
    34     7     9    1
    35     8    13    1
    36     9    10    1
    37     9    12    1
    38    10    11    1
    39    10     5    1
    40    12    14    1
    41     5     4    1
    42     4     1    1
    43     1     2    2
    44     1     3    1
    45     1    24    1
    46    24    25    1
    47    25    26    2
    48    25    27    1
@<TRIPOS>MOLECULE
UD1
 46 48 0 0 0
SMALL
GASTEIGER

@<TRIPOS>ATOM
      1 P          23.4097   72.2810   -3.4917 P.3     1  UNL1        0.2189
      2 O          24.5833   72.9113   -4.1353 O.2     1  UNL1       -0.5170
      3 O          23.7829   70.7786   -3.0488 O.3     1  UNL1       -0.4371
      4 O          22.1828   72.2430   -4.5339 O.3     1  UNL1       -0.3112
      5 C          22.7177   72.5778   -5.8153 C.3     1  UNL1        0.1811
      6 C          19.4072   71.9043   -7.0459 C.3     1  UNL1        0.2383
      7 C          19.2754   73.2532   -6.2953 C.3     1  UNL1        0.1895
      8 O          18.2621   74.0690   -6.8844 O.3     1  UNL1       -0.3779
      9 C          20.6792   73.8792   -6.5016 C.3     1  UNL1        0.1713
     10 C          21.5810   72.6747   -6.8340 C.3     1  UNL1        0.1764
     11 O          20.7629   71.4942   -6.7676 O.3     1  UNL1       -0.3308
     12 O          20.6574   74.8104   -7.5856 O.3     1  UNL1       -0.3794
     13 H          18.2304   74.8893   -6.3729 H       1  UNL1        0.2106
     14 H          20.0325   75.5066   -7.3432 H       1  UNL1        0.2105
     15 N          18.4540   70.9242   -6.5240 N.ar    1  UNL1       -0.2551
     16 C          17.5236   70.3996   -7.3403 C.ar    1  UNL1        0.3323
     17 N          16.6367   69.4933   -6.8884 N.ar    1  UNL1       -0.2743
     18 C          16.6625   69.1019   -5.5984 C.ar    1  UNL1        0.2626
     19 C          17.6330   69.6506   -4.7267 C.ar    1  UNL1        0.0795
     20 C          18.5140   70.5540   -5.2075 C.ar    1  UNL1        0.0869
     21 O          17.4876   70.7425   -8.5063 O.2     1  UNL1       -0.2464
     22 O          15.8581   68.2861   -5.1876 O.2     1  UNL1       -0.2670
     23 H          15.9753   69.1217   -7.4924 H       1  UNL1        0.1734
     24 O          22.9859   73.1342   -2.1951 O.3     1  UNL1       -0.2703
     25 P          22.6306   72.0748   -1.0372 P.3     1  UNL1        0.2208
     26 O          23.7945   71.1921   -0.8023 O.2     1  UNL1       -0.5170
     27 O          21.3671   71.1861   -1.4912 O.3     1  UNL1       -0.4371
     28 O          22.2714   72.8617    0.3201 O.3     1  UNL1       -0.2865
     29 C          21.2470   72.1117    0.9753 C.3     1  UNL1        0.2611
     30 C          20.0389   73.0166    1.2234 C.3     1  UNL1        0.1582
     31 C          20.4732   74.2073    2.0855 C.3     1  UNL1        0.1625
     32 C          21.1587   73.6742    3.3480 C.3     1  UNL1        0.1686
     33 C          22.2845   72.7218    2.9394 C.3     1  UNL1        0.1760
     34 O          19.3268   74.9790    2.4486 O.3     1  UNL1       -0.3801
     35 O          21.7011   74.7652    4.0943 O.3     1  UNL1       -0.3794
     36 O          21.7428   71.6166    2.2172 O.3     1  UNL1       -0.3263
     37 H          19.6454   75.7155    2.9884 H       1  UNL1        0.2105
     38 H          22.1230   74.3857    4.8782 H       1  UNL1        0.2105
     39 C          19.9166   74.6952   -0.5378 C.2     1  UNL1        0.2231
     40 C          19.3806   75.1942   -1.8553 C.3     1  UNL1        0.0946
     41 N          19.5189   73.5016   -0.0567 N.am    1  UNL1       -0.2994
     42 O          20.7057   75.3687    0.0899 O.2     1  UNL1       -0.2751
     43 H          18.8872   72.9626   -0.5588 H       1  UNL1        0.1496
     44 C          22.9969   72.2088    4.1925 C.3     1  UNL1        0.1693
     45 O          22.1606   72.4124    5.3333 O.3     1  UNL1       -0.3794
     46 H          22.6457   72.0767    6.0993 H       1  UNL1        0.2105
@<TRIPOS>BOND
     1    29    30    1
     2    29    28    1
     3    29    36    1
     4    30    31    1
     5    30    41    1
     6    31    32    1
     7    31    34    1
     8    32    33    1
     9    32    35    1
    10    33    44    1
    11    33    36    1
    12    44    45    1
    13    39    40    1
    14    39    41   am
    15    39    42    2
    16    41    43    1
    17    28    25    1
    18    34    37    1
    19    35    38    1
    20    45    46    1
    21    15    16   ar
    22    15    20   ar
    23    15     6    1
    24    16    17   ar
    25    16    21    2
    26    17    18   ar
    27    17    23    1
    28    18    19   ar
    29    18    22    2
    30    19    20   ar
    31     6     7    1
    32     6    11    1
    33     7     8    1
    34     7     9    1
    35     8    13    1
    36     9    10    1
    37     9    12    1
    38    10    11    1
    39    10     5    1
    40    12    14    1
    41     5     4    1
    42     4     1    1
    43     1     2    2
    44     1     3    1
    45     1    24    1
    46    24    25    1
    47    25    26    2
    48    25    27    1
@<TRIPOS>MOLECULE
UD1
 46 48 0 0 0
SMALL
GASTEIGER

@<TRIPOS>ATOM
      1 P          20.4994   71.1316   -0.9805 P.3     1  UNL1        0.2189
      2 O          19.3701   70.3990   -1.5943 O.2     1  UNL1       -0.5170
      3 O          20.0163   72.6095   -0.5620 O.3     1  UNL1       -0.4371
      4 O          21.7060   71.2428   -2.0410 O.3     1  UNL1       -0.3112
      5 C          21.2791   72.1478   -3.0603 C.3     1  UNL1        0.1811
      6 C          20.4214   71.1041   -6.3923 C.3     1  UNL1        0.2383
      7 C          20.9409   72.5538   -6.5613 C.3     1  UNL1        0.1895
      8 O          21.5616   72.7291   -7.8353 O.3     1  UNL1       -0.3779
      9 C          21.9835   72.6615   -5.4183 C.3     1  UNL1        0.1713
     10 C          21.5773   71.5469   -4.4348 C.3     1  UNL1        0.1764
     11 O          20.3954   70.9195   -4.9609 O.3     1  UNL1       -0.3308
     12 O          23.3024   72.4374   -5.9214 O.3     1  UNL1       -0.3794
     13 H          21.8611   73.6479   -7.8770 H       1  UNL1        0.2106
     14 H          23.4740   73.1301   -6.5731 H       1  UNL1        0.2105
     15 N          19.0778   70.9648   -6.9552 N.ar    1  UNL1       -0.2551
     16 C          18.9000   70.2666   -8.0902 C.ar    1  UNL1        0.3323
     17 N          17.6750   70.1189   -8.6284 N.ar    1  UNL1       -0.2743
     18 C          16.6011   70.6809   -8.0378 C.ar    1  UNL1        0.2626
     19 C          16.7748   71.4236   -6.8457 C.ar    1  UNL1        0.0795
     20 C          18.0139   71.5515   -6.3246 C.ar    1  UNL1        0.0869
     21 O          19.8588   69.7538   -8.6346 O.2     1  UNL1       -0.2464
     22 O          15.4937   70.5520   -8.5261 O.2     1  UNL1       -0.2670
     23 H          17.5645   69.6079   -9.4450 H       1  UNL1        0.1734
     24 O          21.0050   70.3411    0.3264 O.3     1  UNL1       -0.2703
     25 P          22.1631   71.2376    0.9930 P.3     1  UNL1        0.2208
     26 O          22.6344   72.2418    0.0141 O.2     1  UNL1       -0.5170
     27 O          23.3927   70.2924    1.4253 O.3     1  UNL1       -0.4371
     28 O          21.5817   71.9875    2.2931 O.3     1  UNL1       -0.2865
     29 C          22.0675   73.3303    2.2490 C.3     1  UNL1        0.2611
     30 C          23.0268   73.5590    3.4184 C.3     1  UNL1        0.1582
     31 C          22.2856   73.2946    4.7338 C.3     1  UNL1        0.1625
     32 C          21.0124   74.1468    4.7588 C.3     1  UNL1        0.1686
     33 C          20.2034   73.8714    3.4895 C.3     1  UNL1        0.1760
     34 O          23.1241   73.6482    5.8353 O.3     1  UNL1       -0.3801
     35 O          20.2327   73.8076    5.9071 O.3     1  UNL1       -0.3794
     36 O          20.9691   74.2349    2.3414 O.3     1  UNL1       -0.3263
     37 H          22.6198   73.4661    6.6401 H       1  UNL1        0.2105
     38 H          19.4422   74.3654    5.8832 H       1  UNL1        0.2105
     39 C          25.3486   73.0950    2.8454 C.2     1  UNL1        0.2231
     40 C          26.5198   72.1533    2.7277 C.3     1  UNL1        0.0946
     41 N          24.1650   72.6447    3.3043 N.am    1  UNL1       -0.2994
     42 O          25.4715   74.2582    2.5262 O.2     1  UNL1       -0.2751
     43 H          24.0663   71.7137    3.5595 H       1  UNL1        0.1496
     44 C          18.9134   74.6936    3.5199 C.3     1  UNL1        0.1693
     45 O          19.1519   75.9299    4.1959 O.3     1  UNL1       -0.3794
     46 H          18.3162   76.4160    4.1931 H       1  UNL1        0.2105
@<TRIPOS>BOND
     1    29    30    1
     2    29    28    1
     3    29    36    1
     4    30    31    1
     5    30    41    1
     6    31    32    1
     7    31    34    1
     8    32    33    1
     9    32    35    1
    10    33    44    1
    11    33    36    1
    12    44    45    1
    13    39    40    1
    14    39    41   am
    15    39    42    2
    16    41    43    1
    17    28    25    1
    18    34    37    1
    19    35    38    1
    20    45    46    1
    21    15    16   ar
    22    15    20   ar
    23    15     6    1
    24    16    17   ar
    25    16    21    2
    26    17    18   ar
    27    17    23    1
    28    18    19   ar
    29    18    22    2
    30    19    20   ar
    31     6     7    1
    32     6    11    1
    33     7     8    1
    34     7     9    1
    35     8    13    1
    36     9    10    1
    37     9    12    1
    38    10    11    1
    39    10     5    1
    40    12    14    1
    41     5     4    1
    42     4     1    1
    43     1     2    2
    44     1     3    1
    45     1    24    1
    46    24    25    1
    47    25    26    2
    48    25    27    1
@<TRIPOS>MOLECULE
UD1
 46 48 0 0 0
SMALL
GASTEIGER

@<TRIPOS>ATOM
      1 P          16.6476   69.6794   -3.0240 P.3     1  UNL1        0.2189
      2 O          16.3618   69.0921   -4.3514 O.2     1  UNL1       -0.5170
      3 O          16.8115   68.5005   -1.9395 O.3     1  UNL1       -0.4371
      4 O          15.4311   70.6410   -2.5901 O.3     1  UNL1       -0.3112
      5 C          15.1246   70.3324   -1.2295 C.3     1  UNL1        0.1811
      6 C          12.7025   68.2033    0.3604 C.3     1  UNL1        0.2383
      7 C          12.2146   69.6417    0.6654 C.3     1  UNL1        0.1895
      8 O          10.7916   69.6860    0.7769 O.3     1  UNL1       -0.3779
      9 C          12.6961   70.4212   -0.5859 C.3     1  UNL1        0.1713
     10 C          13.8182   69.5395   -1.1672 C.3     1  UNL1        0.1764
     11 O          13.9734   68.4092   -0.2922 O.3     1  UNL1       -0.3308
     12 O          11.6289   70.5680   -1.5252 O.3     1  UNL1       -0.3794
     13 H          10.5538   70.6040    0.9668 H       1  UNL1        0.2106
     14 H          10.9355   71.0757   -1.0830 H       1  UNL1        0.2105
     15 N          12.8749   67.4401    1.5970 N.ar    1  UNL1       -0.2551
     16 C          12.5187   66.1444    1.6355 C.ar    1  UNL1        0.3323
     17 N          12.6697   65.4170    2.7581 N.ar    1  UNL1       -0.2743
     18 C          13.1758   65.9837    3.8720 C.ar    1  UNL1        0.2626
     19 C          13.5493   67.3485    3.8472 C.ar    1  UNL1        0.0795
     20 C          13.3921   68.0534    2.7062 C.ar    1  UNL1        0.0869
     21 O          12.0609   65.6190    0.6390 O.2     1  UNL1       -0.2464
     22 O          13.3083   65.3283    4.8890 O.2     1  UNL1       -0.2670
     23 H          12.4119   64.4823    2.7666 H       1  UNL1        0.1734
     24 O          18.0081   70.5353   -3.0974 O.3     1  UNL1       -0.2703
     25 P          17.7312   71.7633   -4.0997 P.3     1  UNL1        0.2208
     26 O          17.2662   72.9358   -3.3264 O.2     1  UNL1       -0.5170
     27 O          16.6010   71.3422   -5.1662 O.3     1  UNL1       -0.4371
     28 O          19.0888   72.1385   -4.8786 O.3     1  UNL1       -0.2865
     29 C          19.9065   70.9670   -4.8740 C.3     1  UNL1        0.2611
     30 C          21.3782   71.3787   -4.8055 C.3     1  UNL1        0.1582
     31 C          21.7078   72.2640   -6.0127 C.3     1  UNL1        0.1625
     32 C          21.2966   71.5240   -7.2899 C.3     1  UNL1        0.1686
     33 C          19.8299   71.1040   -7.1723 C.3     1  UNL1        0.1760
     34 O          23.1110   72.5318   -6.0412 O.3     1  UNL1       -0.3801
     35 O          21.4588   72.3882   -8.4162 O.3     1  UNL1       -0.3794
     36 O          19.6693   70.2188   -6.0645 O.3     1  UNL1       -0.3263
     37 H          23.2732   73.0902   -6.8140 H       1  UNL1        0.2105
     38 H          21.1886   71.8840   -9.1968 H       1  UNL1        0.2105
     39 C          22.7796   71.9643   -2.9009 C.2     1  UNL1        0.2231
     40 C          23.0289   72.7322   -1.6279 C.3     1  UNL1        0.0946
     41 N          21.6211   72.1248   -3.5691 N.am    1  UNL1       -0.2994
     42 O          23.6217   71.2011   -3.3234 O.2     1  UNL1       -0.2751
     43 H          20.9469   72.7353   -3.2311 H       1  UNL1        0.1496
     44 C          19.3999   70.3923   -8.4567 C.3     1  UNL1        0.1693
     45 O          18.6716   71.3015   -9.2845 O.3     1  UNL1       -0.3794
     46 H          18.4197   70.8145  -10.0808 H       1  UNL1        0.2105
@<TRIPOS>BOND
     1    29    30    1
     2    29    28    1
     3    29    36    1
     4    30    31    1
     5    30    41    1
     6    31    32    1
     7    31    34    1
     8    32    33    1
     9    32    35    1
    10    33    44    1
    11    33    36    1
    12    44    45    1
    13    39    40    1
    14    39    41   am
    15    39    42    2
    16    41    43    1
    17    28    25    1
    18    34    37    1
    19    35    38    1
    20    45    46    1
    21    15    16   ar
    22    15    20   ar
    23    15     6    1
    24    16    17   ar
    25    16    21    2
    26    17    18   ar
    27    17    23    1
    28    18    19   ar
    29    18    22    2
    30    19    20   ar
    31     6     7    1
    32     6    11    1
    33     7     8    1
    34     7     9    1
    35     8    13    1
    36     9    10    1
    37     9    12    1
    38    10    11    1
    39    10     5    1
    40    12    14    1
    41     5     4    1
    42     4     1    1
    43     1     2    2
    44     1     3    1
    45     1    24    1
    46    24    25    1
    47    25    26    2
    48    25    27    1
@<TRIPOS>MOLECULE
UD1
 46 48 0 0 0
SMALL
GASTEIGER

@<TRIPOS>ATOM
      1 P          21.6513   71.2734   -0.6930 P.3     1  UNL1        0.2189
      2 O          20.7785   70.5493    0.2572 O.2     1  UNL1       -0.5170
      3 O          21.4872   72.8596   -0.4705 O.3     1  UNL1       -0.4371
      4 O          21.2300   70.8975   -2.2010 O.3     1  UNL1       -0.3112
      5 C          20.5592   72.0378   -2.7397 C.3     1  UNL1        0.1811
      6 C          18.1389   70.8292   -5.1080 C.3     1  UNL1        0.2383
      7 C          18.5979   69.5633   -4.3418 C.3     1  UNL1        0.1895
      8 O          17.5446   68.6021   -4.2653 O.3     1  UNL1       -0.3779
      9 C          18.9290   70.1343   -2.9384 C.3     1  UNL1        0.1713
     10 C          19.1530   71.6381   -3.1894 C.3     1  UNL1        0.1764
     11 O          19.0087   71.8640   -4.6020 O.3     1  UNL1       -0.3308
     12 O          17.8343   69.9275   -2.0431 O.3     1  UNL1       -0.3794
     13 H          17.8936   67.8421   -3.7794 H       1  UNL1        0.2106
     14 H          17.7065   68.9720   -1.9743 H       1  UNL1        0.2105
     15 N          18.3235   70.6591   -6.5497 N.ar    1  UNL1       -0.2551
     16 C          17.2580   70.4218   -7.3344 C.ar    1  UNL1        0.3323
     17 N          17.3976   70.2652   -8.6642 N.ar    1  UNL1       -0.2743
     18 C          18.6184   70.3354   -9.2321 C.ar    1  UNL1        0.2626
     19 C          19.7494   70.5788   -8.4170 C.ar    1  UNL1        0.0795
     20 C          19.5802   70.7374   -7.0867 C.ar    1  UNL1        0.0869
     21 O          16.1504   70.3558   -6.8370 O.2     1  UNL1       -0.2464
     22 O          18.7464   70.1892  -10.4336 O.2     1  UNL1       -0.2670
     23 H          16.6175   70.0994   -9.2156 H       1  UNL1        0.1734
     24 O          23.1836   70.8511   -0.4430 O.3     1  UNL1       -0.2703
     25 P          23.4838   71.0939    1.1192 P.3     1  UNL1        0.2208
     26 O          24.5055   70.1286    1.5809 O.2     1  UNL1       -0.5170
     27 O          22.1297   70.8865    1.9651 O.3     1  UNL1       -0.4371
     28 O          24.0259   72.5938    1.3360 O.3     1  UNL1       -0.2865
     29 C          23.7429   72.9448    2.6917 C.3     1  UNL1        0.2611
     30 C          23.0438   74.3050    2.7258 C.3     1  UNL1        0.1582
     31 C          23.9535   75.3526    2.0741 C.3     1  UNL1        0.1625
     32 C          25.3234   75.3063    2.7590 C.3     1  UNL1        0.1686
     33 C          25.8520   73.8709    2.7197 C.3     1  UNL1        0.1760
     34 O          23.3787   76.6510    2.2328 O.3     1  UNL1       -0.3801
     35 O          26.2307   76.1702    2.0720 O.3     1  UNL1       -0.3794
     36 O          24.9619   73.0097    3.4287 O.3     1  UNL1       -0.3263
     37 H          23.9818   77.2772    1.8092 H       1  UNL1        0.2105
     38 H          27.0787   76.1102    2.5345 H       1  UNL1        0.2105
     39 C          20.6129   74.4296    2.6279 C.2     1  UNL1        0.2231
     40 C          19.3132   74.3469    1.8689 C.3     1  UNL1        0.0946
     41 N          21.7809   74.2254    1.9888 N.am    1  UNL1       -0.2994
     42 O          20.6074   74.6793    3.8144 O.2     1  UNL1       -0.2751
     43 H          21.7856   74.0253    1.0394 H       1  UNL1        0.1496
     44 C          27.2348   73.8198    3.3727 C.3     1  UNL1        0.1693
     45 O          27.6808   72.4638    3.4392 O.3     1  UNL1       -0.3794
     46 H          28.5530   72.4763    3.8562 H       1  UNL1        0.2105
@<TRIPOS>BOND
     1    29    30    1
     2    29    28    1
     3    29    36    1
     4    30    31    1
     5    30    41    1
     6    31    32    1
     7    31    34    1
     8    32    33    1
     9    32    35    1
    10    33    44    1
    11    33    36    1
    12    44    45    1
    13    39    40    1
    14    39    41   am
    15    39    42    2
    16    41    43    1
    17    28    25    1
    18    34    37    1
    19    35    38    1
    20    45    46    1
    21    15    16   ar
    22    15    20   ar
    23    15     6    1
    24    16    17   ar
    25    16    21    2
    26    17    18   ar
    27    17    23    1
    28    18    19   ar
    29    18    22    2
    30    19    20   ar
    31     6     7    1
    32     6    11    1
    33     7     8    1
    34     7     9    1
    35     8    13    1
    36     9    10    1
    37     9    12    1
    38    10    11    1
    39    10     5    1
    40    12    14    1
    41     5     4    1
    42     4     1    1
    43     1     2    2
    44     1     3    1
    45     1    24    1
    46    24    25    1
    47    25    26    2
    48    25    27    1
@<TRIPOS>MOLECULE
UD1
 46 48 0 0 0
SMALL
GASTEIGER

@<TRIPOS>ATOM
      1 P          22.7512   72.3030   -3.7310 P.3     1  UNL1        0.2189
      2 O          24.1136   72.3726   -4.3035 O.2     1  UNL1       -0.5170
      3 O          22.2596   73.7840   -3.3339 O.3     1  UNL1       -0.4371
      4 O          22.7691   71.3739   -2.4160 O.3     1  UNL1       -0.3112
      5 C          23.0939   72.2227   -1.3140 C.3     1  UNL1        0.1811
      6 C          24.5206   71.5926    1.9256 C.3     1  UNL1        0.2383
      7 C          23.0915   72.1106    2.2249 C.3     1  UNL1        0.1895
      8 O          22.5805   71.5346    3.4275 O.3     1  UNL1       -0.3779
      9 C          22.2981   71.6089    0.9904 C.3     1  UNL1        0.1713
     10 C          23.3816   71.3683   -0.0785 C.3     1  UNL1        0.1764
     11 O          24.6437   71.7486    0.4959 O.3     1  UNL1       -0.3308
     12 O          21.6105   70.3941    1.2974 O.3     1  UNL1       -0.3794
     13 H          21.6929   71.8966    3.5564 H       1  UNL1        0.2106
     14 H          20.9912   70.5965    2.0112 H       1  UNL1        0.2105
     15 N          25.5224   72.4013    2.6212 N.ar    1  UNL1       -0.2551
     16 C          26.7539   71.9033    2.8282 C.ar    1  UNL1        0.3323
     17 N          27.6964   72.6262    3.4617 N.ar    1  UNL1       -0.2743
     18 C          27.4148   73.8663    3.9095 C.ar    1  UNL1        0.2626
     19 C          26.1205   74.4006    3.7035 C.ar    1  UNL1        0.0795
     20 C          25.1957   73.6559    3.0604 C.ar    1  UNL1        0.0869
     21 O          27.0232   70.7863    2.4302 O.2     1  UNL1       -0.2464
     22 O          28.2648   74.5190    4.4865 O.2     1  UNL1       -0.2670
     23 H          28.5809   72.2530    3.5982 H       1  UNL1        0.1734
     24 O          21.7438   71.6755   -4.8175 O.3     1  UNL1       -0.2703
     25 P          20.3858   71.3099   -4.0357 P.3     1  UNL1        0.2208
     26 O          19.8142   72.5373   -3.4395 O.2     1  UNL1       -0.5170
     27 O          20.7066   70.2470   -2.8696 O.3     1  UNL1       -0.4371
     28 O          19.3273   70.6707   -5.0660 O.3     1  UNL1       -0.2865
     29 C          18.6311   71.7601   -5.6740 C.3     1  UNL1        0.2611
     30 C          17.1622   71.3775   -5.8641 C.3     1  UNL1        0.1582
     31 C          17.0804   70.1247   -6.7436 C.3     1  UNL1        0.1625
     32 C          17.8598   70.3824   -8.0375 C.3     1  UNL1        0.1686
     33 C          19.2772   70.8372   -7.6833 C.3     1  UNL1        0.1760
     34 O          15.7137   69.8444   -7.0517 O.3     1  UNL1       -0.3801
     35 O          17.9204   69.1796   -8.8065 O.3     1  UNL1       -0.3794
     36 O          19.2214   72.0532   -6.9385 O.3     1  UNL1       -0.3263
     37 H          15.7089   69.0509   -7.6045 H       1  UNL1        0.2105
     38 H          18.4191   69.3860   -9.6098 H       1  UNL1        0.2105
     39 C          16.4678   69.8356   -4.1107 C.2     1  UNL1        0.2231
     40 C          15.8422   69.5527   -2.7688 C.3     1  UNL1        0.0946
     41 N          16.5550   71.1022   -4.5604 N.am    1  UNL1       -0.2994
     42 O          16.8924   68.9226   -4.7863 O.2     1  UNL1       -0.2751
     43 H          16.2150   71.8330   -4.0201 H       1  UNL1        0.1496
     44 C          20.0743   71.0660   -8.9691 C.3     1  UNL1        0.1693
     45 O          19.1735   71.2128  -10.0687 O.3     1  UNL1       -0.3794
     46 H          19.7150   71.3544  -10.8570 H       1  UNL1        0.2105
@<TRIPOS>BOND
     1    29    30    1
     2    29    28    1
     3    29    36    1
     4    30    31    1
     5    30    41    1
     6    31    32    1
     7    31    34    1
     8    32    33    1
     9    32    35    1
    10    33    44    1
    11    33    36    1
    12    44    45    1
    13    39    40    1
    14    39    41   am
    15    39    42    2
    16    41    43    1
    17    28    25    1
    18    34    37    1
    19    35    38    1
    20    45    46    1
    21    15    16   ar
    22    15    20   ar
    23    15     6    1
    24    16    17   ar
    25    16    21    2
    26    17    18   ar
    27    17    23    1
    28    18    19   ar
    29    18    22    2
    30    19    20   ar
    31     6     7    1
    32     6    11    1
    33     7     8    1
    34     7     9    1
    35     8    13    1
    36     9    10    1
    37     9    12    1
    38    10    11    1
    39    10     5    1
    40    12    14    1
    41     5     4    1
    42     4     1    1
    43     1     2    2
    44     1     3    1
    45     1    24    1
    46    24    25    1
    47    25    26    2
    48    25    27    1
@<TRIPOS>MOLECULE
UD1
 46 48 0 0 0
SMALL
GASTEIGER

@<TRIPOS>ATOM
      1 P          17.1357   69.6060   -2.7397 P.3     1  UNL1        0.2189
      2 O          18.5144   69.5876   -2.2032 O.2     1  UNL1       -0.5170
      3 O          16.6310   71.1294   -2.8707 O.3     1  UNL1       -0.4371
      4 O          16.1610   68.8029   -1.7408 O.3     1  UNL1       -0.3112
      5 C          15.3622   69.7781   -1.0690 C.3     1  UNL1        0.1811
      6 C          12.7499   68.1239    0.7658 C.3     1  UNL1        0.2383
      7 C          12.5579   69.6272    1.0872 C.3     1  UNL1        0.1895
      8 O          11.1819   69.9278    1.3229 O.3     1  UNL1       -0.3779
      9 C          13.0571   70.3050   -0.2154 C.3     1  UNL1        0.1713
     10 C          13.9456   69.2343   -0.8777 C.3     1  UNL1        0.1764
     11 O          13.9732   68.0959    0.0001 O.3     1  UNL1       -0.3308
     12 O          11.9536   70.6406   -1.0594 O.3     1  UNL1       -0.3794
     13 H          11.1311   70.8741    1.5167 H       1  UNL1        0.2106
     14 H          11.4054   71.2659   -0.5668 H       1  UNL1        0.2105
     15 N          12.8929   67.3440    1.9958 N.ar    1  UNL1       -0.2551
     16 C          12.5924   66.0336    1.9926 C.ar    1  UNL1        0.3323
     17 N          12.7183   65.2909    3.1082 N.ar    1  UNL1       -0.2743
     18 C          13.1419   65.8562    4.2567 C.ar    1  UNL1        0.2626
     19 C          13.4559   67.2360    4.2756 C.ar    1  UNL1        0.0795
     20 C          13.3258   67.9564    3.1409 C.ar    1  UNL1        0.0869
     21 O          12.2092   65.5093    0.9645 O.2     1  UNL1       -0.2464
     22 O          13.2515   65.1867    5.2672 O.2     1  UNL1       -0.2670
     23 H          12.5017   64.3460    3.0866 H       1  UNL1        0.1734
     24 O          17.1141   68.9060   -4.1883 O.3     1  UNL1       -0.2703
     25 P          17.3783   70.0677   -5.2699 P.3     1  UNL1        0.2208
     26 O          16.4940   71.2187   -4.9834 O.2     1  UNL1       -0.5170
     27 O          17.0672   69.5076   -6.7469 O.3     1  UNL1       -0.4371
     28 O          18.9153   70.5387   -5.1889 O.3     1  UNL1       -0.2865
     29 C          18.9236   71.9572   -5.3589 C.3     1  UNL1        0.2611
     30 C          19.8588   72.3221   -6.5131 C.3     1  UNL1        0.1582
     31 C          21.2677   71.8065   -6.1987 C.3     1  UNL1        0.1625
     32 C          21.6891   72.3386   -4.8249 C.3     1  UNL1        0.1686
     33 C          20.6171   71.9697   -3.7973 C.3     1  UNL1        0.1760
     34 O          22.1805   72.2694   -7.1957 O.3     1  UNL1       -0.3801
     35 O          22.9365   71.7527   -4.4476 O.3     1  UNL1       -0.3794
     36 O          19.3761   72.5760   -4.1565 O.3     1  UNL1       -0.3263
     37 H          23.0518   71.9224   -6.9595 H       1  UNL1        0.2105
     38 H          23.1636   72.1135   -3.5788 H       1  UNL1        0.2105
     39 C          19.8916   70.5322   -8.1651 C.2     1  UNL1        0.2231
     40 C          19.3936   69.8973   -9.4384 C.3     1  UNL1        0.0946
     41 N          19.3750   71.7047   -7.7496 N.am    1  UNL1       -0.2994
     42 O          20.7581   69.9878   -7.5148 O.2     1  UNL1       -0.2751
     43 H          18.6817   72.1407   -8.2700 H       1  UNL1        0.1496
     44 C          21.0440   72.4684   -2.4153 C.3     1  UNL1        0.1693
     45 O          21.6410   71.3951   -1.6846 O.3     1  UNL1       -0.3794
     46 H          21.8947   71.7508   -0.8222 H       1  UNL1        0.2105
@<TRIPOS>BOND
     1    29    30    1
     2    29    28    1
     3    29    36    1
     4    30    31    1
     5    30    41    1
     6    31    32    1
     7    31    34    1
     8    32    33    1
     9    32    35    1
    10    33    44    1
    11    33    36    1
    12    44    45    1
    13    39    40    1
    14    39    41   am
    15    39    42    2
    16    41    43    1
    17    28    25    1
    18    34    37    1
    19    35    38    1
    20    45    46    1
    21    15    16   ar
    22    15    20   ar
    23    15     6    1
    24    16    17   ar
    25    16    21    2
    26    17    18   ar
    27    17    23    1
    28    18    19   ar
    29    18    22    2
    30    19    20   ar
    31     6     7    1
    32     6    11    1
    33     7     8    1
    34     7     9    1
    35     8    13    1
    36     9    10    1
    37     9    12    1
    38    10    11    1
    39    10     5    1
    40    12    14    1
    41     5     4    1
    42     4     1    1
    43     1     2    2
    44     1     3    1
    45     1    24    1
    46    24    25    1
    47    25    26    2
    48    25    27    1
@<TRIPOS>MOLECULE
UD1
 46 48 0 0 0
SMALL
GASTEIGER

@<TRIPOS>ATOM
      1 P          18.7130   72.6270   -2.1066 P.3     1  UNL1        0.2189
      2 O          19.2704   72.5732   -3.4759 O.2     1  UNL1       -0.5170
      3 O          19.0879   71.2725   -1.3209 O.3     1  UNL1       -0.4371
      4 O          17.1115   72.7749   -2.1852 O.3     1  UNL1       -0.3112
      5 C          16.5613   71.4986   -1.8554 C.3     1  UNL1        0.1811
      6 C          16.1430   70.4702   -5.2751 C.3     1  UNL1        0.2383
      7 C          16.4941   69.1653   -4.5175 C.3     1  UNL1        0.1895
      8 O          15.8774   68.0345   -5.1342 O.3     1  UNL1       -0.3779
      9 C          15.8877   69.4298   -3.1148 C.3     1  UNL1        0.1713
     10 C          15.7619   70.9640   -3.0447 C.3     1  UNL1        0.1764
     11 O          16.2943   71.4952   -4.2701 O.3     1  UNL1       -0.3308
     12 O          14.6048   68.8104   -2.9994 O.3     1  UNL1       -0.3794
     13 H          16.1348   67.2585   -4.6174 H       1  UNL1        0.2106
     14 H          14.7424   67.8603   -3.1111 H       1  UNL1        0.2105
     15 N          17.0718   70.6932   -6.3837 N.ar    1  UNL1       -0.2551
     16 C          16.5991   71.0785   -7.5818 C.ar    1  UNL1        0.3323
     17 N          17.4306   71.2946   -8.6182 N.ar    1  UNL1       -0.2743
     18 C          18.7592   71.1178   -8.4716 C.ar    1  UNL1        0.2626
     19 C          19.2698   70.7066   -7.2174 C.ar    1  UNL1        0.0795
     20 C          18.4138   70.5020   -6.1933 C.ar    1  UNL1        0.0869
     21 O          15.4032   71.2423   -7.7296 O.2     1  UNL1       -0.2464
     22 O          19.5115   71.3083   -9.4093 O.2     1  UNL1       -0.2670
     23 H          17.0727   71.5768   -9.4740 H       1  UNL1        0.1734
     24 O          19.3306   73.8905   -1.3249 O.3     1  UNL1       -0.2703
     25 P          20.2848   73.3019   -0.1706 P.3     1  UNL1        0.2208
     26 O          21.6391   73.0720   -0.7200 O.2     1  UNL1       -0.5170
     27 O          19.6813   71.9097    0.3675 O.3     1  UNL1       -0.4371
     28 O          20.3703   74.3536    1.0448 O.3     1  UNL1       -0.2865
     29 C          20.2772   75.6587    0.4710 C.3     1  UNL1        0.2611
     30 C          21.4885   76.4875    0.9023 C.3     1  UNL1        0.1582
     31 C          21.5200   76.5702    2.4326 C.3     1  UNL1        0.1625
     32 C          20.1651   77.0914    2.9233 C.3     1  UNL1        0.1686
     33 C          19.0537   76.2149    2.3419 C.3     1  UNL1        0.1760
     34 O          22.5573   77.4631    2.8426 O.3     1  UNL1       -0.3801
     35 O          20.1208   77.0376    4.3504 O.3     1  UNL1       -0.3794
     36 O          19.0779   76.2880    0.9169 O.3     1  UNL1       -0.3263
     37 H          22.5414   77.4846    3.8094 H       1  UNL1        0.2105
     38 H          19.2528   77.3731    4.6162 H       1  UNL1        0.2105
     39 C          22.9272   75.7085   -0.9025 C.2     1  UNL1        0.2231
     40 C          24.1900   75.0515   -1.3984 C.3     1  UNL1        0.0946
     41 N          22.7153   75.8498    0.4201 N.am    1  UNL1       -0.2994
     42 O          22.1012   76.1095   -1.6944 O.2     1  UNL1       -0.2751
     43 H          23.3761   75.5287    1.0541 H       1  UNL1        0.1496
     44 C          17.6979   76.7074    2.8521 C.3     1  UNL1        0.1693
     45 O          17.0245   75.6401    3.5224 O.3     1  UNL1       -0.3794
     46 H          16.1770   75.9915    3.8272 H       1  UNL1        0.2105
@<TRIPOS>BOND
     1    29    30    1
     2    29    28    1
     3    29    36    1
     4    30    31    1
     5    30    41    1
     6    31    32    1
     7    31    34    1
     8    32    33    1
     9    32    35    1
    10    33    44    1
    11    33    36    1
    12    44    45    1
    13    39    40    1
    14    39    41   am
    15    39    42    2
    16    41    43    1
    17    28    25    1
    18    34    37    1
    19    35    38    1
    20    45    46    1
    21    15    16   ar
    22    15    20   ar
    23    15     6    1
    24    16    17   ar
    25    16    21    2
    26    17    18   ar
    27    17    23    1
    28    18    19   ar
    29    18    22    2
    30    19    20   ar
    31     6     7    1
    32     6    11    1
    33     7     8    1
    34     7     9    1
    35     8    13    1
    36     9    10    1
    37     9    12    1
    38    10    11    1
    39    10     5    1
    40    12    14    1
    41     5     4    1
    42     4     1    1
    43     1     2    2
    44     1     3    1
    45     1    24    1
    46    24    25    1
    47    25    26    2
    48    25    27    1
@<TRIPOS>MOLECULE
UD1
 46 48 0 0 0
SMALL
GASTEIGER

@<TRIPOS>ATOM
      1 P          16.5566   69.6924   -2.4493 P.3     1  UNL1        0.2189
      2 O          16.3279   71.1483   -2.3197 O.2     1  UNL1       -0.5170
      3 O          15.9342   69.1731   -3.8405 O.3     1  UNL1       -0.4371
      4 O          15.8442   68.9267   -1.2249 O.3     1  UNL1       -0.3112
      5 C          14.7272   69.7253   -0.8311 C.3     1  UNL1        0.1811
      6 C          12.3442   67.6867    0.9275 C.3     1  UNL1        0.2383
      7 C          11.7291   69.1085    0.9486 C.3     1  UNL1        0.1895
      8 O          10.3024   69.0483    0.9525 O.3     1  UNL1       -0.3779
      9 C          12.2539   69.7101   -0.3811 C.3     1  UNL1        0.1713
     10 C          13.4815   68.8444   -0.7249 C.3     1  UNL1        0.1764
     11 O          13.6461   67.8908    0.3385 O.3     1  UNL1       -0.3308
     12 O          11.2599   69.6084   -1.4030 O.3     1  UNL1       -0.3794
     13 H           9.9835   69.9613    0.9662 H       1  UNL1        0.2106
     14 H          10.4973   70.1206   -1.1027 H       1  UNL1        0.2105
     15 N          12.4694   67.1548    2.2850 N.ar    1  UNL1       -0.2551
     16 C          12.5920   68.0001    3.3232 C.ar    1  UNL1        0.3323
     17 N          12.7049   67.5390    4.5829 N.ar    1  UNL1       -0.2743
     18 C          12.7060   66.2123    4.8233 C.ar    1  UNL1        0.2626
     19 C          12.5836   65.3111    3.7390 C.ar    1  UNL1        0.0795
     20 C          12.4664   65.8008    2.4861 C.ar    1  UNL1        0.0869
     21 O          12.5927   69.1994    3.1224 O.2     1  UNL1       -0.2464
     22 O          12.8128   65.7942    5.9613 O.2     1  UNL1       -0.2670
     23 H          12.7878   68.1632    5.3202 H       1  UNL1        0.1734
     24 O          18.1372   69.3929   -2.4224 O.3     1  UNL1       -0.2703
     25 P          18.8818   70.8119   -2.5682 P.3     1  UNL1        0.2208
     26 O          20.3432   70.6170   -2.4448 O.2     1  UNL1       -0.5170
     27 O          18.3741   71.8068   -1.4087 O.3     1  UNL1       -0.4371
     28 O          18.5453   71.4506   -4.0067 O.3     1  UNL1       -0.2865
     29 C          19.3105   70.7259   -4.9713 C.3     1  UNL1        0.2611
     30 C          20.2305   71.6942   -5.7169 C.3     1  UNL1        0.1582
     31 C          19.3784   72.7699   -6.3997 C.3     1  UNL1        0.1625
     32 C          18.3191   72.0796   -7.2655 C.3     1  UNL1        0.1686
     33 C          17.5411   71.0843   -6.4021 C.3     1  UNL1        0.1760
     34 O          20.2112   73.5912   -7.2202 O.3     1  UNL1       -0.3801
     35 O          17.4225   73.0582   -7.7947 O.3     1  UNL1       -0.3794
     36 O          18.4293   70.0895   -5.8942 O.3     1  UNL1       -0.3263
     37 H          19.6358   74.2523   -7.6291 H       1  UNL1        0.2105
     38 H          16.7733   72.5817   -8.3313 H       1  UNL1        0.2105
     39 C          22.4320   72.5464   -5.1157 C.2     1  UNL1        0.2231
     40 C          23.3779   73.1961   -4.1382 C.3     1  UNL1        0.0946
     41 N          21.1496   72.3258   -4.7678 N.am    1  UNL1       -0.2994
     42 O          22.8257   72.2215   -6.2156 O.2     1  UNL1       -0.2751
     43 H          20.8344   72.5855   -3.8876 H       1  UNL1        0.1496
     44 C          16.4588   70.4127   -7.2499 C.3     1  UNL1        0.1693
     45 O          16.7960   70.5299   -8.6336 O.3     1  UNL1       -0.3794
     46 H          16.0902   70.0954   -9.1313 H       1  UNL1        0.2105
@<TRIPOS>BOND
     1    29    30    1
     2    29    28    1
     3    29    36    1
     4    30    31    1
     5    30    41    1
     6    31    32    1
     7    31    34    1
     8    32    33    1
     9    32    35    1
    10    33    44    1
    11    33    36    1
    12    44    45    1
    13    39    40    1
    14    39    41   am
    15    39    42    2
    16    41    43    1
    17    28    25    1
    18    34    37    1
    19    35    38    1
    20    45    46    1
    21    15    16   ar
    22    15    20   ar
    23    15     6    1
    24    16    17   ar
    25    16    21    2
    26    17    18   ar
    27    17    23    1
    28    18    19   ar
    29    18    22    2
    30    19    20   ar
    31     6     7    1
    32     6    11    1
    33     7     8    1
    34     7     9    1
    35     8    13    1
    36     9    10    1
    37     9    12    1
    38    10    11    1
    39    10     5    1
    40    12    14    1
    41     5     4    1
    42     4     1    1
    43     1     2    2
    44     1     3    1
    45     1    24    1
    46    24    25    1
    47    25    26    2
    48    25    27    1
@<TRIPOS>MOLECULE
UD1
 46 48 0 0 0
SMALL
GASTEIGER

@<TRIPOS>ATOM
      1 P          15.4847   70.6390   -1.9486 P.3     1  UNL1        0.2189
      2 O          16.6795   71.3984   -1.5189 O.2     1  UNL1       -0.5170
      3 O          14.1590   71.4889   -1.6127 O.3     1  UNL1       -0.4371
      4 O          15.4326   69.2332   -1.1651 O.3     1  UNL1       -0.3112
      5 C          14.4560   69.3712   -0.1319 C.3     1  UNL1        0.1811
      6 C          13.1986   66.8679    2.1219 C.3     1  UNL1        0.2383
      7 C          11.9350   67.6175    1.6304 C.3     1  UNL1        0.1895
      8 O          10.8041   66.7462    1.5979 O.3     1  UNL1       -0.3779
      9 C          12.3464   68.0441    0.1972 C.3     1  UNL1        0.1713
     10 C          13.8864   67.9960    0.2198 C.3     1  UNL1        0.1764
     11 O          14.2852   67.6275    1.5511 O.3     1  UNL1       -0.3308
     12 O          11.8249   67.1268   -0.7669 O.3     1  UNL1       -0.3794
     13 H          10.0546   67.2716    1.2855 H       1  UNL1        0.2106
     14 H          10.8619   67.1592   -0.6907 H       1  UNL1        0.2105
     15 N          13.2733   66.8785    3.5833 N.ar    1  UNL1       -0.2551
     16 C          12.8815   65.7966    4.2784 C.ar    1  UNL1        0.3323
     17 N          12.9428   65.7769    5.6231 N.ar    1  UNL1       -0.2743
     18 C          13.3929   66.8535    6.2985 C.ar    1  UNL1        0.2626
     19 C          13.8030   68.0015    5.5795 C.ar    1  UNL1        0.0795
     20 C          13.7360   67.9922    4.2309 C.ar    1  UNL1        0.0869
     21 O          12.4732   64.8178    3.6835 O.2     1  UNL1       -0.2464
     22 O          13.4444   66.8386    7.5145 O.2     1  UNL1       -0.2670
     23 H          12.6605   64.9862    6.1081 H       1  UNL1        0.1734
     24 O          15.5623   70.3677   -3.5327 O.3     1  UNL1       -0.2703
     25 P          17.0782   69.9359   -3.8567 P.3     1  UNL1        0.2208
     26 O          17.3191   68.5659   -3.3527 O.2     1  UNL1       -0.5170
     27 O          18.0934   70.9577   -3.1375 O.3     1  UNL1       -0.4371
     28 O          17.3196   69.9725   -5.4475 O.3     1  UNL1       -0.2865
     29 C          17.8176   71.2743   -5.7613 C.3     1  UNL1        0.2611
     30 C          16.7586   72.0425   -6.5541 C.3     1  UNL1        0.1582
     31 C          16.4295   71.2660   -7.8341 C.3     1  UNL1        0.1625
     32 C          17.7343   70.9882   -8.5880 C.3     1  UNL1        0.1686
     33 C          18.7187   70.2967   -7.6425 C.3     1  UNL1        0.1760
     34 O          15.5549   72.0432   -8.6541 O.3     1  UNL1       -0.3801
     35 O          17.4685   70.1404   -9.7070 O.3     1  UNL1       -0.3794
     36 O          19.0076   71.1521   -6.5374 O.3     1  UNL1       -0.3263
     37 H          15.3742   71.5181   -9.4459 H       1  UNL1        0.2105
     38 H          18.3149   69.9907  -10.1518 H       1  UNL1        0.2105
     39 C          14.8873   73.3601   -5.7197 C.2     1  UNL1        0.2231
     40 C          13.6415   73.5081   -4.8839 C.3     1  UNL1        0.0946
     41 N          15.5481   72.1866   -5.7428 N.am    1  UNL1       -0.2994
     42 O          15.2954   74.2979   -6.3710 O.2     1  UNL1       -0.2751
     43 H          15.2218   71.4361   -5.2215 H       1  UNL1        0.1496
     44 C          20.0140   69.9855   -8.3952 C.3     1  UNL1        0.1693
     45 O          21.1264   70.1311   -7.5102 O.3     1  UNL1       -0.3794
     46 H          21.9203   69.9269   -8.0227 H       1  UNL1        0.2105
@<TRIPOS>BOND
     1    29    30    1
     2    29    28    1
     3    29    36    1
     4    30    31    1
     5    30    41    1
     6    31    32    1
     7    31    34    1
     8    32    33    1
     9    32    35    1
    10    33    44    1
    11    33    36    1
    12    44    45    1
    13    39    40    1
    14    39    41   am
    15    39    42    2
    16    41    43    1
    17    28    25    1
    18    34    37    1
    19    35    38    1
    20    45    46    1
    21    15    16   ar
    22    15    20   ar
    23    15     6    1
    24    16    17   ar
    25    16    21    2
    26    17    18   ar
    27    17    23    1
    28    18    19   ar
    29    18    22    2
    30    19    20   ar
    31     6     7    1
    32     6    11    1
    33     7     8    1
    34     7     9    1
    35     8    13    1
    36     9    10    1
    37     9    12    1
    38    10    11    1
    39    10     5    1
    40    12    14    1
    41     5     4    1
    42     4     1    1
    43     1     2    2
    44     1     3    1
    45     1    24    1
    46    24    25    1
    47    25    26    2
    48    25    27    1
