@<TRIPOS>MOLECULE
UD2
 46 48 0 0 0
SMALL
GASTEIGER

@<TRIPOS>ATOM
      1 P          22.0601   70.9276   -2.6869 P.3     1  UNL1        0.2189
      2 O          21.5142   69.4133   -2.6999 O.3     1  UNL1       -0.4371
      3 O          23.3347   70.9996   -3.4347 O.2     1  UNL1       -0.5170
      4 O          20.9754   71.8950   -3.3807 O.3     1  UNL1       -0.3112
      5 C          19.9531   72.5699   -2.6453 C.3     1  UNL1        0.1811
      6 C          17.8054   71.4717   -5.3133 C.3     1  UNL1        0.2383
      7 C          17.9495   70.2324   -4.3938 C.3     1  UNL1        0.1895
      8 O          16.7708   69.4259   -4.4364 O.3     1  UNL1       -0.3779
      9 C          18.1250   70.8810   -2.9988 C.3     1  UNL1        0.1713
     10 C          18.5965   72.3150   -3.3070 C.3     1  UNL1        0.1764
     11 O          18.7198   72.4275   -4.7337 O.3     1  UNL1       -0.3308
     12 O          16.8799   70.9030   -2.2988 O.3     1  UNL1       -0.3794
     13 H          16.8126   68.6380   -3.8777 H       1  UNL1        0.2106
     14 H          16.5071   70.0272   -2.1302 H       1  UNL1        0.2105
     15 N          18.2011   71.1450   -6.6851 N.ar    1  UNL1       -0.2551
     16 C          17.2640   70.7907   -7.5825 C.ar    1  UNL1        0.3323
     17 N          17.5990   70.4850   -8.8499 N.ar    1  UNL1       -0.2743
     18 C          18.8887   70.5319   -9.2412 C.ar    1  UNL1        0.2626
     19 C          19.8854   70.9043   -8.3073 C.ar    1  UNL1        0.0795
     20 C          19.5205   71.2096   -7.0443 C.ar    1  UNL1        0.0869
     21 O          16.0972   70.7444   -7.2437 O.2     1  UNL1       -0.2464
     22 O          19.1932   70.2559  -10.3882 O.2     1  UNL1       -0.2670
     23 H          16.9110   70.2304   -9.4839 H       1  UNL1        0.1734
     24 O          22.3025   71.3980   -1.1660 O.3     1  UNL1       -0.2703
     25 P          22.6038   70.6187    0.2106 P.3     1  UNL1        0.2208
     26 O          21.4006   69.5942    0.5211 O.3     1  UNL1       -0.4371
     27 O          23.8714   69.8665    0.0847 O.2     1  UNL1       -0.5170
     28 O          22.7275   71.6822    1.4132 O.3     1  UNL1       -0.2865
     29 C          21.8584   72.8081    1.5493 C.3     1  UNL1        0.2611
     30 C          22.6120   74.0846    1.1682 C.3     1  UNL1        0.1582
     31 C          23.7843   74.2827    2.1340 C.3     1  UNL1        0.1625
     32 C          23.2483   74.3310    3.5674 C.3     1  UNL1        0.1686
     33 C          22.4701   73.0446    3.8561 C.3     1  UNL1        0.1760
     34 O          24.4497   75.5110    1.8312 O.3     1  UNL1       -0.3801
     35 O          22.3820   75.4574    3.7157 O.3     1  UNL1       -0.3794
     36 O          21.4137   72.9051    2.9039 O.3     1  UNL1       -0.3263
     37 H          25.2049   75.7006    2.4048 H       1  UNL1        0.2105
     38 H          22.0044   75.5501    4.6016 H       1  UNL1        0.2105
     39 C          22.6934   74.8114   -1.1562 C.2     1  UNL1        0.2231
     40 C          23.2157   74.6869   -2.5634 C.3     1  UNL1        0.0946
     41 N          23.1203   73.9627   -0.2005 N.am    1  UNL1       -0.2994
     42 O          21.8877   75.6763   -0.8823 O.2     1  UNL1       -0.2751
     43 H          23.7637   73.2704   -0.4192 H       1  UNL1        0.1496
     44 C          21.8806   73.1109    5.2663 C.3     1  UNL1        0.1693
     45 O          20.4543   73.1475    5.1859 O.3     1  UNL1       -0.3794
     46 H          20.0123   73.1903    6.0449 H       1  UNL1        0.2105
@<TRIPOS>BOND
     1    29    30    1
     2    30    41    1
     3    30    31    1
     4    31    34    1
     5    31    32    1
     6    32    35    1
     7    32    33    1
     8    33    36    1
     9    33    44    1
    10    39    40    1
    11    39    42    2
    12    39    41   am
    13    41    43    1
    14    29    28    1
    15    34    37    1
    16    35    38    1
    17    29    36    1
    18    44    45    1
    19    45    46    1
    20    15     6    1
    21    15    16   ar
    22    16    21    2
    23    16    17   ar
    24    17    23    1
    25    17    18   ar
    26    18    19   ar
    27    19    20   ar
    28    15    20   ar
    29    18    22    2
    30     6     7    1
    31     6    11    1
    32     7     9    1
    33     7     8    1
    34     8    13    1
    35     9    10    1
    36     9    12    1
    37    10     5    1
    38    10    11    1
    39    12    14    1
    40     5     4    1
    41     4     1    1
    42     1     2    1
    43     1    24    1
    44     1     3    2
    45    24    25    1
    46    28    25    1
    47    25    26    1
    48    25    27    2
@<TRIPOS>MOLECULE
UD2
 46 48 0 0 0
SMALL
GASTEIGER

@<TRIPOS>ATOM
      1 P          22.8895   72.0038   -3.3579 P.3     1  UNL1        0.2189
      2 O          23.4999   70.5162   -3.2815 O.3     1  UNL1       -0.4371
      3 O          23.5665   72.7608   -4.4338 O.2     1  UNL1       -0.5170
      4 O          21.3119   71.9210   -3.6708 O.3     1  UNL1       -0.3112
      5 C          20.3110   72.0557   -2.6600 C.3     1  UNL1        0.1811
      6 C          18.0142   71.3201   -5.3283 C.3     1  UNL1        0.2383
      7 C          18.0436   70.0284   -4.4723 C.3     1  UNL1        0.1895
      8 O          16.7863   69.3517   -4.5267 O.3     1  UNL1       -0.3779
      9 C          18.3102   70.5853   -3.0523 C.3     1  UNL1        0.1713
     10 C          18.9240   71.9761   -3.3024 C.3     1  UNL1        0.1764
     11 O          19.0335   72.1460   -4.7246 O.3     1  UNL1       -0.3308
     12 O          17.0866   70.7016   -2.3242 O.3     1  UNL1       -0.3794
     13 H          16.7550   68.5370   -4.0072 H       1  UNL1        0.2106
     14 H          16.6271   69.8619   -2.1892 H       1  UNL1        0.2105
     15 N          18.3495   71.0226   -6.7226 N.ar    1  UNL1       -0.2551
     16 C          17.3654   70.7982   -7.6114 C.ar    1  UNL1        0.3323
     17 N          17.6445   70.5224   -8.8992 N.ar    1  UNL1       -0.2743
     18 C          18.9247   70.4686   -9.3197 C.ar    1  UNL1        0.2626
     19 C          19.9706   70.7038   -8.3950 C.ar    1  UNL1        0.0795
     20 C          19.6616   70.9823   -7.1111 C.ar    1  UNL1        0.0869
     21 O          16.2065   70.8436   -7.2464 O.2     1  UNL1       -0.2464
     22 O          19.1787   70.2195  -10.4850 O.2     1  UNL1       -0.2670
     23 H          16.9230   70.3619   -9.5266 H       1  UNL1        0.1734
     24 O          23.1182   72.7510   -1.9498 O.3     1  UNL1       -0.2703
     25 P          23.0819   74.2916   -1.4830 P.3     1  UNL1        0.2208
     26 O          24.5775   74.8890   -1.4889 O.3     1  UNL1       -0.4371
     27 O          22.2368   75.0700   -2.4149 O.2     1  UNL1       -0.5170
     28 O          22.4711   74.3876    0.0038 O.3     1  UNL1       -0.2865
     29 C          21.2671   73.7253    0.3949 C.3     1  UNL1        0.2611
     30 C          20.7999   74.2702    1.7468 C.3     1  UNL1        0.1582
     31 C          21.8638   73.9649    2.8058 C.3     1  UNL1        0.1625
     32 C          22.1127   72.4546    2.8433 C.3     1  UNL1        0.1686
     33 C          22.5294   71.9796    1.4488 C.3     1  UNL1        0.1760
     34 O          21.4034   74.4051    4.0855 O.3     1  UNL1       -0.3801
     35 O          20.9155   71.7830    3.2393 O.3     1  UNL1       -0.3794
     36 O          21.5108   72.3216    0.5068 O.3     1  UNL1       -0.3263
     37 H          22.0290   74.2436    4.8050 H       1  UNL1        0.2105
     38 H          21.0002   70.8202    3.2839 H       1  UNL1        0.2105
     39 C          19.3733   76.2232    1.4500 C.2     1  UNL1        0.2231
     40 C          19.1740   77.7128    1.3507 C.3     1  UNL1        0.0946
     41 N          20.6070   75.7193    1.6501 N.am    1  UNL1       -0.2994
     42 O          18.4226   75.4759    1.3498 O.2     1  UNL1       -0.2751
     43 H          21.3675   76.3164    1.7292 H       1  UNL1        0.1496
     44 C          22.7221   70.4621    1.4637 C.3     1  UNL1        0.1693
     45 O          21.6257   69.8353    0.7948 O.3     1  UNL1       -0.3794
     46 H          21.6815   68.8704    0.7660 H       1  UNL1        0.2105
@<TRIPOS>BOND
     1    29    30    1
     2    30    41    1
     3    30    31    1
     4    31    34    1
     5    31    32    1
     6    32    35    1
     7    32    33    1
     8    33    36    1
     9    33    44    1
    10    39    40    1
    11    39    42    2
    12    39    41   am
    13    41    43    1
    14    29    28    1
    15    34    37    1
    16    35    38    1
    17    29    36    1
    18    44    45    1
    19    45    46    1
    20    15     6    1
    21    15    16   ar
    22    16    21    2
    23    16    17   ar
    24    17    23    1
    25    17    18   ar
    26    18    19   ar
    27    19    20   ar
    28    15    20   ar
    29    18    22    2
    30     6     7    1
    31     6    11    1
    32     7     9    1
    33     7     8    1
    34     8    13    1
    35     9    10    1
    36     9    12    1
    37    10     5    1
    38    10    11    1
    39    12    14    1
    40     5     4    1
    41     4     1    1
    42     1     2    1
    43     1    24    1
    44     1     3    2
    45    24    25    1
    46    28    25    1
    47    25    26    1
    48    25    27    2
@<TRIPOS>MOLECULE
UD2
 46 48 0 0 0
SMALL
GASTEIGER

@<TRIPOS>ATOM
      1 P          22.8751   71.9718   -3.2874 P.3     1  UNL1        0.2189
      2 O          23.4453   70.4664   -3.2999 O.3     1  UNL1       -0.4371
      3 O          23.5798   72.7754   -4.3104 O.2     1  UNL1       -0.5170
      4 O          21.2982   71.9509   -3.6138 O.3     1  UNL1       -0.3112
      5 C          20.2938   72.0402   -2.6016 C.3     1  UNL1        0.1811
      6 C          17.9958   71.3586   -5.2832 C.3     1  UNL1        0.2383
      7 C          17.9896   70.0668   -4.4269 C.3     1  UNL1        0.1895
      8 O          16.7169   69.4201   -4.4886 O.3     1  UNL1       -0.3779
      9 C          18.2610   70.6175   -3.0055 C.3     1  UNL1        0.1713
     10 C          18.9090   71.9933   -3.2521 C.3     1  UNL1        0.1764
     11 O          19.0309   72.1602   -4.6736 O.3     1  UNL1       -0.3308
     12 O          17.0363   70.7630   -2.2845 O.3     1  UNL1       -0.3794
     13 H          16.6633   68.6064   -3.9692 H       1  UNL1        0.2106
     14 H          16.5562   69.9345   -2.1521 H       1  UNL1        0.2105
     15 N          18.3321   71.0530   -6.6755 N.ar    1  UNL1       -0.2551
     16 C          17.3503   70.7873   -7.5554 C.ar    1  UNL1        0.3323
     17 N          17.6304   70.5030   -8.8411 N.ar    1  UNL1       -0.2743
     18 C          18.9093   70.4822   -9.2685 C.ar    1  UNL1        0.2626
     19 C          19.9527   70.7609   -8.3533 C.ar    1  UNL1        0.0795
     20 C          19.6426   71.0470   -7.0713 C.ar    1  UNL1        0.0869
     21 O          16.1926   70.8027   -7.1840 O.2     1  UNL1       -0.2464
     22 O          19.1641   70.2254  -10.4320 O.2     1  UNL1       -0.2670
     23 H          16.9105   70.3126   -9.4621 H       1  UNL1        0.1734
     24 O          23.1131   72.6240   -1.8344 O.3     1  UNL1       -0.2703
     25 P          23.0403   74.1257   -1.2577 P.3     1  UNL1        0.2208
     26 O          24.5325   74.6731   -0.9978 O.3     1  UNL1       -0.4371
     27 O          22.3591   74.9987   -2.2385 O.2     1  UNL1       -0.5170
     28 O          22.2182   74.1295    0.1268 O.3     1  UNL1       -0.2865
     29 C          22.8349   74.3428    1.3978 C.3     1  UNL1        0.2611
     30 C          22.4919   73.1813    2.3338 C.3     1  UNL1        0.1582
     31 C          20.9763   73.1437    2.5527 C.3     1  UNL1        0.1625
     32 C          20.5183   74.4939    3.1110 C.3     1  UNL1        0.1686
     33 C          20.9375   75.6050    2.1448 C.3     1  UNL1        0.1760
     34 O          20.6541   72.1079    3.4835 O.3     1  UNL1       -0.3801
     35 O          21.1253   74.7144    4.3855 O.3     1  UNL1       -0.3794
     36 O          22.3540   75.5650    1.9610 O.3     1  UNL1       -0.3263
     37 H          19.7085   72.0264    3.6689 H       1  UNL1        0.2105
     38 H          20.8797   75.5539    4.7989 H       1  UNL1        0.2105
     39 C          22.0683   71.1864    1.0002 C.2     1  UNL1        0.2231
     40 C          22.5189   69.8903    0.3792 C.3     1  UNL1        0.0946
     41 N          22.9309   71.9205    1.7303 N.am    1  UNL1       -0.2994
     42 O          20.9280   71.5702    0.8433 O.2     1  UNL1       -0.2751
     43 H          23.8424   71.6135    1.8567 H       1  UNL1        0.1496
     44 C          20.5362   76.9628    2.7244 C.3     1  UNL1        0.1693
     45 O          19.4454   76.7907    3.6316 O.3     1  UNL1       -0.3794
     46 H          19.1377   77.6124    4.0379 H       1  UNL1        0.2105
@<TRIPOS>BOND
     1    29    30    1
     2    30    41    1
     3    30    31    1
     4    31    34    1
     5    31    32    1
     6    32    35    1
     7    32    33    1
     8    33    36    1
     9    33    44    1
    10    39    40    1
    11    39    42    2
    12    39    41   am
    13    41    43    1
    14    29    28    1
    15    34    37    1
    16    35    38    1
    17    29    36    1
    18    44    45    1
    19    45    46    1
    20    15     6    1
    21    15    16   ar
    22    16    21    2
    23    16    17   ar
    24    17    23    1
    25    17    18   ar
    26    18    19   ar
    27    19    20   ar
    28    15    20   ar
    29    18    22    2
    30     6     7    1
    31     6    11    1
    32     7     9    1
    33     7     8    1
    34     8    13    1
    35     9    10    1
    36     9    12    1
    37    10     5    1
    38    10    11    1
    39    12    14    1
    40     5     4    1
    41     4     1    1
    42     1     2    1
    43     1    24    1
    44     1     3    2
    45    24    25    1
    46    28    25    1
    47    25    26    1
    48    25    27    2
@<TRIPOS>MOLECULE
UD2
 46 48 0 0 0
SMALL
GASTEIGER

@<TRIPOS>ATOM
      1 P          21.8844   70.8136   -0.4701 P.3     1  UNL1        0.2189
      2 O          21.6190   69.5488    0.4897 O.3     1  UNL1       -0.4371
      3 O          23.0003   70.5083   -1.3923 O.2     1  UNL1       -0.5170
      4 O          20.5547   71.1287   -1.3224 O.3     1  UNL1       -0.3112
      5 C          20.5850   71.7514   -2.6080 C.3     1  UNL1        0.1811
      6 C          18.1461   71.2509   -5.2037 C.3     1  UNL1        0.2383
      7 C          18.1311   69.9290   -4.3947 C.3     1  UNL1        0.1895
      8 O          16.8343   69.3296   -4.4209 O.3     1  UNL1       -0.3779
      9 C          18.4857   70.4163   -2.9685 C.3     1  UNL1        0.1713
     10 C          19.1717   71.7771   -3.1953 C.3     1  UNL1        0.1764
     11 O          19.2359   71.9927   -4.6140 O.3     1  UNL1       -0.3308
     12 O          17.3006   70.5772   -2.1872 O.3     1  UNL1       -0.3794
     13 H          16.7744   68.4995   -3.9290 H       1  UNL1        0.2106
     14 H          16.7970   69.7615   -2.0626 H       1  UNL1        0.2105
     15 N          18.4085   70.9860   -6.6200 N.ar    1  UNL1       -0.2551
     16 C          17.3795   70.7825   -7.4617 C.ar    1  UNL1        0.3323
     17 N          17.5913   70.5368   -8.7682 N.ar    1  UNL1       -0.2743
     18 C          18.8479   70.4926   -9.2555 C.ar    1  UNL1        0.2626
     19 C          19.9405   70.7060   -8.3810 C.ar    1  UNL1        0.0795
     20 C          19.6987   70.9545   -7.0766 C.ar    1  UNL1        0.0869
     21 O          16.2411   70.8196   -7.0362 O.2     1  UNL1       -0.2464
     22 O          19.0409   70.2707  -10.4379 O.2     1  UNL1       -0.2670
     23 H          16.8380   70.3911   -9.3611 H       1  UNL1        0.1734
     24 O          22.2636   72.0971    0.4255 O.3     1  UNL1       -0.2703
     25 P          21.5905   72.8053    1.7055 P.3     1  UNL1        0.2208
     26 O          20.3966   73.7702    1.2183 O.3     1  UNL1       -0.4371
     27 O          21.0486   71.7710    2.6138 O.2     1  UNL1       -0.5170
     28 O          22.7005   73.6749    2.4831 O.3     1  UNL1       -0.2865
     29 C          23.0283   73.4682    3.8582 C.3     1  UNL1        0.2611
     30 C          22.1602   74.3761    4.7328 C.3     1  UNL1        0.1582
     31 C          22.4662   75.8389    4.3964 C.3     1  UNL1        0.1625
     32 C          23.9621   76.0958    4.5986 C.3     1  UNL1        0.1686
     33 C          24.7609   75.1214    3.7289 C.3     1  UNL1        0.1760
     34 O          21.7137   76.6945    5.2596 O.3     1  UNL1       -0.3801
     35 O          24.2994   75.8973    5.9726 O.3     1  UNL1       -0.3794
     36 O          24.4067   73.7799    4.0709 O.3     1  UNL1       -0.3263
     37 H          21.8583   77.6375    5.1015 H       1  UNL1        0.2105
     38 H          25.2345   76.0427    6.1737 H       1  UNL1        0.2105
     39 C          19.8729   74.0263    5.4965 C.2     1  UNL1        0.2231
     40 C          18.4181   73.7421    5.2292 C.3     1  UNL1        0.0946
     41 N          20.7454   74.0993    4.4720 N.am    1  UNL1       -0.2994
     42 O          20.2601   74.1897    6.6347 O.2     1  UNL1       -0.2751
     43 H          20.4364   73.9678    3.5619 H       1  UNL1        0.1496
     44 C          26.2569   75.3316    3.9701 C.3     1  UNL1        0.1693
     45 O          26.8236   76.0388    2.8651 O.3     1  UNL1       -0.3794
     46 H          27.7719   76.2076    2.9501 H       1  UNL1        0.2105
@<TRIPOS>BOND
     1    29    30    1
     2    30    41    1
     3    30    31    1
     4    31    34    1
     5    31    32    1
     6    32    35    1
     7    32    33    1
     8    33    36    1
     9    33    44    1
    10    39    40    1
    11    39    42    2
    12    39    41   am
    13    41    43    1
    14    29    28    1
    15    34    37    1
    16    35    38    1
    17    29    36    1
    18    44    45    1
    19    45    46    1
    20    15     6    1
    21    15    16   ar
    22    16    21    2
    23    16    17   ar
    24    17    23    1
    25    17    18   ar
    26    18    19   ar
    27    19    20   ar
    28    15    20   ar
    29    18    22    2
    30     6     7    1
    31     6    11    1
    32     7     9    1
    33     7     8    1
    34     8    13    1
    35     9    10    1
    36     9    12    1
    37    10     5    1
    38    10    11    1
    39    12    14    1
    40     5     4    1
    41     4     1    1
    42     1     2    1
    43     1    24    1
    44     1     3    2
    45    24    25    1
    46    28    25    1
    47    25    26    1
    48    25    27    2
@<TRIPOS>MOLECULE
UD2
 46 48 0 0 0
SMALL
GASTEIGER

@<TRIPOS>ATOM
      1 P          21.0455   74.9601   -4.2219 P.3     1  UNL1        0.2189
      2 O          20.9789   75.5158   -5.7313 O.3     1  UNL1       -0.4371
      3 O          21.7132   75.9578   -3.3573 O.2     1  UNL1       -0.5170
      4 O          19.5518   74.6952   -3.6813 O.3     1  UNL1       -0.3112
      5 C          19.1812   73.5132   -2.9693 C.3     1  UNL1        0.1811
      6 C          17.4471   71.6698   -5.5250 C.3     1  UNL1        0.2383
      7 C          17.8120   70.6070   -4.4575 C.3     1  UNL1        0.1895
      8 O          16.8380   69.5620   -4.4245 O.3     1  UNL1       -0.3779
      9 C          17.7785   71.4349   -3.1495 C.3     1  UNL1        0.1713
     10 C          17.9437   72.8920   -3.6219 C.3     1  UNL1        0.1764
     11 O          18.1060   72.8634   -5.0489 O.3     1  UNL1       -0.3308
     12 O          16.5267   71.2637   -2.4827 O.3     1  UNL1       -0.3794
     13 H          17.0226   68.8724   -3.7725 H       1  UNL1        0.2106
     14 H          16.3439   70.3529   -2.2154 H       1  UNL1        0.2105
     15 N          17.9672   71.2818   -6.8380 N.ar    1  UNL1       -0.2551
     16 C          17.1740   70.6216   -7.7005 C.ar    1  UNL1        0.3323
     17 N          17.6257   70.2526   -8.9137 N.ar    1  UNL1       -0.2743
     18 C          18.8891   70.5434   -9.2850 C.ar    1  UNL1        0.2626
     19 C          19.7347   71.2388   -8.3874 C.ar    1  UNL1        0.0795
     20 C          19.2542   71.6003   -7.1791 C.ar    1  UNL1        0.0869
     21 O          16.0325   70.3529   -7.3792 O.2     1  UNL1       -0.2464
     22 O          19.2990   70.2103  -10.3829 O.2     1  UNL1       -0.2670
     23 H          17.0409   69.7761   -9.5230 H       1  UNL1        0.1734
     24 O          21.8781   73.5819   -4.1934 O.3     1  UNL1       -0.2703
     25 P          23.1148   73.0410   -3.3154 P.3     1  UNL1        0.2208
     26 O          23.2952   71.4595   -3.5604 O.3     1  UNL1       -0.4371
     27 O          24.3515   73.7461   -3.7178 O.2     1  UNL1       -0.5170
     28 O          22.8248   73.3132   -1.7552 O.3     1  UNL1       -0.2865
     29 C          21.6106   72.9251   -1.1098 C.3     1  UNL1        0.2611
     30 C          21.3281   73.8715    0.0595 C.3     1  UNL1        0.1582
     31 C          22.4589   73.7527    1.0859 C.3     1  UNL1        0.1625
     32 C          22.5749   72.2935    1.5351 C.3     1  UNL1        0.1686
     33 C          22.8095   71.4078    0.3086 C.3     1  UNL1        0.1760
     34 O          22.1667   74.5784    2.2156 O.3     1  UNL1       -0.3801
     35 O          21.3671   71.8971    2.1872 O.3     1  UNL1       -0.3794
     36 O          21.7382   71.5888   -0.6196 O.3     1  UNL1       -0.3263
     37 H          22.8428   74.5525    2.9066 H       1  UNL1        0.2105
     38 H          21.3698   70.9810    2.4984 H       1  UNL1        0.2105
     39 C          20.2810   76.0711    0.0031 C.2     1  UNL1        0.2231
     40 C          20.2067   77.4880   -0.5022 C.3     1  UNL1        0.0946
     41 N          21.2564   75.2496   -0.4327 N.am    1  UNL1       -0.2994
     42 O          19.4624   75.6684    0.8031 O.2     1  UNL1       -0.2751
     43 H          21.9105   75.5708   -1.0730 H       1  UNL1        0.1496
     44 C          22.8670   69.9417    0.7420 C.3     1  UNL1        0.1693
     45 O          21.5898   69.3337    0.5386 O.3     1  UNL1       -0.3794
     46 H          21.5525   68.4014    0.7925 H       1  UNL1        0.2105
@<TRIPOS>BOND
     1    29    30    1
     2    30    41    1
     3    30    31    1
     4    31    34    1
     5    31    32    1
     6    32    35    1
     7    32    33    1
     8    33    36    1
     9    33    44    1
    10    39    40    1
    11    39    42    2
    12    39    41   am
    13    41    43    1
    14    29    28    1
    15    34    37    1
    16    35    38    1
    17    29    36    1
    18    44    45    1
    19    45    46    1
    20    15     6    1
    21    15    16   ar
    22    16    21    2
    23    16    17   ar
    24    17    23    1
    25    17    18   ar
    26    18    19   ar
    27    19    20   ar
    28    15    20   ar
    29    18    22    2
    30     6     7    1
    31     6    11    1
    32     7     9    1
    33     7     8    1
    34     8    13    1
    35     9    10    1
    36     9    12    1
    37    10     5    1
    38    10    11    1
    39    12    14    1
    40     5     4    1
    41     4     1    1
    42     1     2    1
    43     1    24    1
    44     1     3    2
    45    24    25    1
    46    28    25    1
    47    25    26    1
    48    25    27    2
@<TRIPOS>MOLECULE
UD2
 46 48 0 0 0
SMALL
GASTEIGER

@<TRIPOS>ATOM
      1 P          21.8771   70.4194   -0.2564 P.3     1  UNL1        0.2189
      2 O          22.3779   68.9585    0.1976 O.3     1  UNL1       -0.4371
      3 O          23.0264   71.1992   -0.7663 O.2     1  UNL1       -0.5170
      4 O          20.7717   70.2706   -1.4182 O.3     1  UNL1       -0.3112
      5 C          20.8940   70.9041   -2.6930 C.3     1  UNL1        0.1811
      6 C          18.3595   71.0480   -5.2410 C.3     1  UNL1        0.2383
      7 C          18.1110   69.6988   -4.5199 C.3     1  UNL1        0.1895
      8 O          16.7245   69.3544   -4.5459 O.3     1  UNL1       -0.3779
      9 C          18.5756   70.0112   -3.0763 C.3     1  UNL1        0.1713
     10 C          19.5006   71.2330   -3.2345 C.3     1  UNL1        0.1764
     11 O          19.5793   71.5312   -4.6375 O.3     1  UNL1       -0.3308
     12 O          17.4555   70.3348   -2.2508 O.3     1  UNL1       -0.3794
     13 H          16.5185   68.5177   -4.1075 H       1  UNL1        0.2106
     14 H          16.8101   69.6204   -2.1643 H       1  UNL1        0.2105
     15 N          18.5428   70.8382   -6.6789 N.ar    1  UNL1       -0.2551
     16 C          17.4678   70.7609   -7.4834 C.ar    1  UNL1        0.3323
     17 N          17.6066   70.5684   -8.8085 N.ar    1  UNL1       -0.2743
     18 C          18.8351   70.4513   -9.3523 C.ar    1  UNL1        0.2626
     19 C          19.9755   70.5317   -8.5173 C.ar    1  UNL1        0.0795
     20 C          19.8069   70.7294   -7.1929 C.ar    1  UNL1        0.0869
     21 O          16.3541   70.8650   -7.0068 O.2     1  UNL1       -0.2464
     22 O          18.9621   70.2775  -10.5516 O.2     1  UNL1       -0.2670
     23 H          16.8210   70.5139   -9.3741 H       1  UNL1        0.1734
     24 O          21.2289   71.1811    1.0057 O.3     1  UNL1       -0.2703
     25 P          21.8332   72.0609    2.2114 P.3     1  UNL1        0.2208
     26 O          20.6470   72.4773    3.2181 O.3     1  UNL1       -0.4371
     27 O          22.8444   71.2670    2.9431 O.2     1  UNL1       -0.5170
     28 O          22.5217   73.3883    1.6143 O.3     1  UNL1       -0.2865
     29 C          22.3490   74.6828    2.1938 C.3     1  UNL1        0.2611
     30 C          23.0201   75.7339    1.3063 C.3     1  UNL1        0.1582
     31 C          24.5240   75.4501    1.2417 C.3     1  UNL1        0.1625
     32 C          25.0926   75.4421    2.6633 C.3     1  UNL1        0.1686
     33 C          24.3414   74.4020    3.4987 C.3     1  UNL1        0.1760
     34 O          25.1694   76.4692    0.4749 O.3     1  UNL1       -0.3801
     35 O          24.9300   76.7346    3.2501 O.3     1  UNL1       -0.3794
     36 O          22.9453   74.7064    3.4923 O.3     1  UNL1       -0.3263
     37 H          26.1257   76.3521    0.3918 H       1  UNL1        0.2105
     38 H          25.2683   76.8024    4.1539 H       1  UNL1        0.2105
     39 C          23.0354   74.9044   -0.9849 C.2     1  UNL1        0.2231
     40 C          22.4513   74.8386   -2.3717 C.3     1  UNL1        0.0946
     41 N          22.4515   75.6706   -0.0425 N.am    1  UNL1       -0.2994
     42 O          24.0323   74.2674   -0.7155 O.2     1  UNL1       -0.2751
     43 H          21.6550   76.1808   -0.2577 H       1  UNL1        0.1496
     44 C          24.8633   74.4295    4.9365 C.3     1  UNL1        0.1693
     45 O          26.2602   74.7311    4.9313 O.3     1  UNL1       -0.3794
     46 H          26.6590   74.7650    5.8116 H       1  UNL1        0.2105
@<TRIPOS>BOND
     1    29    30    1
     2    30    41    1
     3    30    31    1
     4    31    34    1
     5    31    32    1
     6    32    35    1
     7    32    33    1
     8    33    36    1
     9    33    44    1
    10    39    40    1
    11    39    42    2
    12    39    41   am
    13    41    43    1
    14    29    28    1
    15    34    37    1
    16    35    38    1
    17    29    36    1
    18    44    45    1
    19    45    46    1
    20    15     6    1
    21    15    16   ar
    22    16    21    2
    23    16    17   ar
    24    17    23    1
    25    17    18   ar
    26    18    19   ar
    27    19    20   ar
    28    15    20   ar
    29    18    22    2
    30     6     7    1
    31     6    11    1
    32     7     9    1
    33     7     8    1
    34     8    13    1
    35     9    10    1
    36     9    12    1
    37    10     5    1
    38    10    11    1
    39    12    14    1
    40     5     4    1
    41     4     1    1
    42     1     2    1
    43     1    24    1
    44     1     3    2
    45    24    25    1
    46    28    25    1
    47    25    26    1
    48    25    27    2
@<TRIPOS>MOLECULE
UD2
 46 48 0 0 0
SMALL
GASTEIGER

@<TRIPOS>ATOM
      1 P          21.9970   70.7219   -0.4187 P.3     1  UNL1        0.2189
      2 O          21.6573   69.4987    0.5710 O.3     1  UNL1       -0.4371
      3 O          23.1212   70.3440   -1.3032 O.2     1  UNL1       -0.5170
      4 O          20.7020   71.0640   -1.3130 O.3     1  UNL1       -0.3112
      5 C          20.7714   71.3111   -2.7185 C.3     1  UNL1        0.1811
      6 C          18.2577   71.1120   -5.2834 C.3     1  UNL1        0.2383
      7 C          18.1450   69.7668   -4.5219 C.3     1  UNL1        0.1895
      8 O          16.8021   69.2788   -4.5446 O.3     1  UNL1       -0.3779
      9 C          18.5620   70.1697   -3.0862 C.3     1  UNL1        0.1713
     10 C          19.3560   71.4761   -3.2775 C.3     1  UNL1        0.1764
     11 O          19.4152   71.7381   -4.6886 O.3     1  UNL1       -0.3308
     12 O          17.4072   70.3996   -2.2773 O.3     1  UNL1       -0.3794
     13 H          16.6807   68.4389   -4.0816 H       1  UNL1        0.2106
     14 H          16.8391   69.6245   -2.1721 H       1  UNL1        0.2105
     15 N          18.4742   70.8789   -6.7130 N.ar    1  UNL1       -0.2551
     16 C          17.4174   70.7360   -7.5324 C.ar    1  UNL1        0.3323
     17 N          17.5868   70.5206   -8.8504 N.ar    1  UNL1       -0.2743
     18 C          18.8283   70.4464   -9.3720 C.ar    1  UNL1        0.2626
     19 C          19.9498   70.5960   -8.5211 C.ar    1  UNL1        0.0795
     20 C          19.7504   70.8152   -7.2044 C.ar    1  UNL1        0.0869
     21 O          16.2923   70.8008   -7.0760 O.2     1  UNL1       -0.2464
     22 O          18.9830   70.2519  -10.5648 O.2     1  UNL1       -0.2670
     23 H          16.8140   70.4186   -9.4270 H       1  UNL1        0.1734
     24 O          22.4070   72.0159    0.4478 O.3     1  UNL1       -0.2703
     25 P          21.7277   72.7957    1.6821 P.3     1  UNL1        0.2208
     26 O          20.7256   73.9231    1.1178 O.3     1  UNL1       -0.4371
     27 O          20.9707   71.8362    2.5157 O.2     1  UNL1       -0.5170
     28 O          22.8740   73.4929    2.5724 O.3     1  UNL1       -0.2865
     29 C          22.8034   74.8523    3.0066 C.3     1  UNL1        0.2611
     30 C          24.2004   75.3354    3.4033 C.3     1  UNL1        0.1582
     31 C          24.7061   74.4966    4.5810 C.3     1  UNL1        0.1625
     32 C          23.7060   74.6020    5.7356 C.3     1  UNL1        0.1686
     33 C          22.3276   74.1469    5.2489 C.3     1  UNL1        0.1760
     34 O          25.9792   74.9888    5.0056 O.3     1  UNL1       -0.3801
     35 O          23.6321   75.9574    6.1813 O.3     1  UNL1       -0.3794
     36 O          21.9298   74.9471    4.1337 O.3     1  UNL1       -0.3263
     37 H          26.3603   74.5025    5.7496 H       1  UNL1        0.2105
     38 H          23.0150   76.0985    6.9129 H       1  UNL1        0.2105
     39 C          26.0310   76.1339    2.0072 C.2     1  UNL1        0.2231
     40 C          26.9687   75.9778    0.8388 C.3     1  UNL1        0.0946
     41 N          25.1120   75.1830    2.2665 N.am    1  UNL1       -0.2994
     42 O          26.1027   77.1163    2.7157 O.2     1  UNL1       -0.2751
     43 H          25.0537   74.3979    1.6997 H       1  UNL1        0.1496
     44 C          21.3096   74.3057    6.3798 C.3     1  UNL1        0.1693
     45 O          21.9668   74.1474    7.6389 O.3     1  UNL1       -0.3794
     46 H          21.3807   74.2356    8.4030 H       1  UNL1        0.2105
@<TRIPOS>BOND
     1    29    30    1
     2    30    41    1
     3    30    31    1
     4    31    34    1
     5    31    32    1
     6    32    35    1
     7    32    33    1
     8    33    36    1
     9    33    44    1
    10    39    40    1
    11    39    42    2
    12    39    41   am
    13    41    43    1
    14    29    28    1
    15    34    37    1
    16    35    38    1
    17    29    36    1
    18    44    45    1
    19    45    46    1
    20    15     6    1
    21    15    16   ar
    22    16    21    2
    23    16    17   ar
    24    17    23    1
    25    17    18   ar
    26    18    19   ar
    27    19    20   ar
    28    15    20   ar
    29    18    22    2
    30     6     7    1
    31     6    11    1
    32     7     9    1
    33     7     8    1
    34     8    13    1
    35     9    10    1
    36     9    12    1
    37    10     5    1
    38    10    11    1
    39    12    14    1
    40     5     4    1
    41     4     1    1
    42     1     2    1
    43     1    24    1
    44     1     3    2
    45    24    25    1
    46    28    25    1
    47    25    26    1
    48    25    27    2
@<TRIPOS>MOLECULE
UD2
 46 48 0 0 0
SMALL
GASTEIGER

@<TRIPOS>ATOM
      1 P          21.8128   70.5946   -0.3684 P.3     1  UNL1        0.2189
      2 O          21.8149   69.0510    0.0887 O.3     1  UNL1       -0.4371
      3 O          23.0493   70.8869   -1.1264 O.2     1  UNL1       -0.5170
      4 O          20.5314   70.8757   -1.3026 O.3     1  UNL1       -0.3112
      5 C          20.6283   71.4821   -2.5927 C.3     1  UNL1        0.1811
      6 C          18.1818   71.2228   -5.2165 C.3     1  UNL1        0.2383
      7 C          18.0503   69.8947   -4.4284 C.3     1  UNL1        0.1895
      8 O          16.7088   69.4047   -4.4748 O.3     1  UNL1       -0.3779
      9 C          18.4299   70.3300   -2.9918 C.3     1  UNL1        0.1713
     10 C          19.2277   71.6328   -3.1915 C.3     1  UNL1        0.1764
     11 O          19.3232   71.8634   -4.6061 O.3     1  UNL1       -0.3308
     12 O          17.2545   70.5764   -2.2181 O.3     1  UNL1       -0.3794
     13 H          16.5761   68.5752   -3.9964 H       1  UNL1        0.2106
     14 H          16.6844   69.8033   -2.1104 H       1  UNL1        0.2105
     15 N          18.4353   70.9582   -6.6345 N.ar    1  UNL1       -0.2551
     16 C          17.4001   70.8128   -7.4807 C.ar    1  UNL1        0.3323
     17 N          17.6036   70.5688   -8.7888 N.ar    1  UNL1       -0.2743
     18 C          18.8581   70.4678   -9.2733 C.ar    1  UNL1        0.2626
     19 C          19.9571   70.6197   -8.3940 C.ar    1  UNL1        0.0795
     20 C          19.7238   70.8679   -7.0880 C.ar    1  UNL1        0.0869
     21 O          16.2636   70.9015   -7.0578 O.2     1  UNL1       -0.2464
     22 O          19.0436   70.2474  -10.4571 O.2     1  UNL1       -0.2670
     23 H          16.8459   70.4654   -9.3850 H       1  UNL1        0.1734
     24 O          21.7447   71.5400    0.9334 O.3     1  UNL1       -0.2703
     25 P          21.4974   73.1150    1.1594 P.3     1  UNL1        0.2208
     26 O          22.8158   73.9323    0.7261 O.3     1  UNL1       -0.4371
     27 O          20.3507   73.5578    0.3364 O.2     1  UNL1       -0.5170
     28 O          21.1812   73.3909    2.7139 O.3     1  UNL1       -0.2865
     29 C          21.1767   74.6997    3.2871 C.3     1  UNL1        0.2611
     30 C          21.9607   74.6848    4.6015 C.3     1  UNL1        0.1582
     31 C          21.2666   73.7421    5.5894 C.3     1  UNL1        0.1625
     32 C          19.8180   74.1989    5.7826 C.3     1  UNL1        0.1686
     33 C          19.1164   74.2325    4.4222 C.3     1  UNL1        0.1760
     34 O          21.9502   73.7782    6.8442 O.3     1  UNL1       -0.3801
     35 O          19.8023   75.5053    6.3610 O.3     1  UNL1       -0.3794
     36 O          19.8296   75.1031    3.5416 O.3     1  UNL1       -0.3263
     37 H          21.5641   73.2027    7.5187 H       1  UNL1        0.2105
     38 H          18.9145   75.8590    6.5113 H       1  UNL1        0.2105
     39 C          24.3580   74.7487    5.0332 C.2     1  UNL1        0.2231
     40 C          25.7614   74.2652    4.7775 C.3     1  UNL1        0.0946
     41 N          23.3255   74.2141    4.3520 N.am    1  UNL1       -0.2994
     42 O          24.1565   75.6202    5.8531 O.2     1  UNL1       -0.2751
     43 H          23.4862   73.5180    3.6957 H       1  UNL1        0.1496
     44 C          17.6860   74.7452    4.5989 C.3     1  UNL1        0.1693
     45 O          17.1704   74.2976    5.8544 O.3     1  UNL1       -0.3794
     46 H          16.2651   74.5862    6.0338 H       1  UNL1        0.2105
@<TRIPOS>BOND
     1    29    30    1
     2    30    41    1
     3    30    31    1
     4    31    34    1
     5    31    32    1
     6    32    35    1
     7    32    33    1
     8    33    36    1
     9    33    44    1
    10    39    40    1
    11    39    42    2
    12    39    41   am
    13    41    43    1
    14    29    28    1
    15    34    37    1
    16    35    38    1
    17    29    36    1
    18    44    45    1
    19    45    46    1
    20    15     6    1
    21    15    16   ar
    22    16    21    2
    23    16    17   ar
    24    17    23    1
    25    17    18   ar
    26    18    19   ar
    27    19    20   ar
    28    15    20   ar
    29    18    22    2
    30     6     7    1
    31     6    11    1
    32     7     9    1
    33     7     8    1
    34     8    13    1
    35     9    10    1
    36     9    12    1
    37    10     5    1
    38    10    11    1
    39    12    14    1
    40     5     4    1
    41     4     1    1
    42     1     2    1
    43     1    24    1
    44     1     3    2
    45    24    25    1
    46    28    25    1
    47    25    26    1
    48    25    27    2
@<TRIPOS>MOLECULE
UD2
 46 48 0 0 0
SMALL
GASTEIGER

@<TRIPOS>ATOM
      1 P          21.9297   70.7389   -0.3735 P.3     1  UNL1        0.2189
      2 O          21.5310   69.4993    0.5730 O.3     1  UNL1       -0.4371
      3 O          23.0299   70.3364   -1.2771 O.2     1  UNL1       -0.5170
      4 O          20.6509   71.1792   -1.2478 O.3     1  UNL1       -0.3112
      5 C          20.7223   71.4452   -2.6498 C.3     1  UNL1        0.1811
      6 C          18.2304   71.1577   -5.2274 C.3     1  UNL1        0.2383
      7 C          18.1496   69.8159   -4.4558 C.3     1  UNL1        0.1895
      8 O          16.8207   69.2915   -4.4824 O.3     1  UNL1       -0.3779
      9 C          18.5470   70.2414   -3.0211 C.3     1  UNL1        0.1713
     10 C          19.3064   71.5673   -3.2182 C.3     1  UNL1        0.1764
     11 O          19.3669   71.8197   -4.6310 O.3     1  UNL1       -0.3308
     12 O          17.3816   70.4461   -2.2206 O.3     1  UNL1       -0.3794
     13 H          16.7193   68.4523   -4.0133 H       1  UNL1        0.2106
     14 H          16.8341   69.6568   -2.1125 H       1  UNL1        0.2105
     15 N          18.4617   70.9193   -6.6538 N.ar    1  UNL1       -0.2551
     16 C          17.4138   70.7491   -7.4796 C.ar    1  UNL1        0.3323
     17 N          17.5969   70.5283   -8.7948 N.ar    1  UNL1       -0.2743
     18 C          18.8432   70.4760   -9.3072 C.ar    1  UNL1        0.2626
     19 C          19.9554   70.6544   -8.4497 C.ar    1  UNL1        0.0795
     20 C          19.7423   70.8785   -7.1360 C.ar    1  UNL1        0.0869
     21 O          16.2844   70.7940   -7.0314 O.2     1  UNL1       -0.2464
     22 O          19.0102   70.2766  -10.4976 O.2     1  UNL1       -0.2670
     23 H          16.8303   70.4065   -9.3759 H       1  UNL1        0.1734
     24 O          22.4086   71.9776    0.5372 O.3     1  UNL1       -0.2703
     25 P          22.0715   73.5522    0.5494 P.3     1  UNL1        0.2208
     26 O          20.4845   73.7593    0.7287 O.3     1  UNL1       -0.4371
     27 O          22.7830   74.2006    1.6727 O.2     1  UNL1       -0.5170
     28 O          22.5459   74.2132   -0.8401 O.3     1  UNL1       -0.2865
     29 C          23.7229   73.8003   -1.5368 C.3     1  UNL1        0.2611
     30 C          24.7237   74.9575   -1.5800 C.3     1  UNL1        0.1582
     31 C          24.1082   76.1248   -2.3579 C.3     1  UNL1        0.1625
     32 C          23.7181   75.6422   -3.7576 C.3     1  UNL1        0.1686
     33 C          22.7557   74.4583   -3.6303 C.3     1  UNL1        0.1760
     34 O          25.0636   77.1825   -2.4664 O.3     1  UNL1       -0.3801
     35 O          24.8895   75.2321   -4.4652 O.3     1  UNL1       -0.3794
     36 O          23.3778   73.4203   -2.8705 O.3     1  UNL1       -0.3263
     37 H          24.7400   77.9563   -2.9478 H       1  UNL1        0.2105
     38 H          24.7166   74.9128   -5.3620 H       1  UNL1        0.2105
     39 C          26.3048   75.6687    0.1324 C.2     1  UNL1        0.2231
     40 C          26.6236   76.1117    1.5362 C.3     1  UNL1        0.0946
     41 N          25.0331   75.3882   -0.2142 N.am    1  UNL1       -0.2994
     42 O          27.1932   75.5639   -0.6874 O.2     1  UNL1       -0.2751
     43 H          24.3226   75.4709    0.4411 H       1  UNL1        0.1496
     44 C          22.4077   73.9321   -5.0241 C.3     1  UNL1        0.1693
     45 O          21.2821   74.6478   -5.5370 O.3     1  UNL1       -0.3794
     46 H          21.0051   74.3661   -6.4196 H       1  UNL1        0.2105
@<TRIPOS>BOND
     1    29    30    1
     2    30    41    1
     3    30    31    1
     4    31    34    1
     5    31    32    1
     6    32    35    1
     7    32    33    1
     8    33    36    1
     9    33    44    1
    10    39    40    1
    11    39    42    2
    12    39    41   am
    13    41    43    1
    14    29    28    1
    15    34    37    1
    16    35    38    1
    17    29    36    1
    18    44    45    1
    19    45    46    1
    20    15     6    1
    21    15    16   ar
    22    16    21    2
    23    16    17   ar
    24    17    23    1
    25    17    18   ar
    26    18    19   ar
    27    19    20   ar
    28    15    20   ar
    29    18    22    2
    30     6     7    1
    31     6    11    1
    32     7     9    1
    33     7     8    1
    34     8    13    1
    35     9    10    1
    36     9    12    1
    37    10     5    1
    38    10    11    1
    39    12    14    1
    40     5     4    1
    41     4     1    1
    42     1     2    1
    43     1    24    1
    44     1     3    2
    45    24    25    1
    46    28    25    1
    47    25    26    1
    48    25    27    2
@<TRIPOS>MOLECULE
UD2
 46 48 0 0 0
SMALL
GASTEIGER

@<TRIPOS>ATOM
      1 P          23.2091   73.0165   -3.3655 P.3     1  UNL1        0.2189
      2 O          23.4194   71.4320   -3.5564 O.3     1  UNL1       -0.4371
      3 O          23.0227   73.3206   -1.9296 O.2     1  UNL1       -0.5170
      4 O          24.5041   73.7997   -3.9163 O.3     1  UNL1       -0.3112
      5 C          24.6177   75.2239   -3.8965 C.3     1  UNL1        0.1811
      6 C          28.1763   75.4507   -4.3671 C.3     1  UNL1        0.2383
      7 C          27.6237   76.7880   -4.9225 C.3     1  UNL1        0.1895
      8 O          28.5716   77.8430   -4.7488 O.3     1  UNL1       -0.3779
      9 C          26.3744   77.0165   -4.0369 C.3     1  UNL1        0.1713
     10 C          26.0400   75.6160   -3.4888 C.3     1  UNL1        0.1764
     11 O          26.9835   74.6963   -4.0609 O.3     1  UNL1       -0.3308
     12 O          26.6784   77.9132   -2.9672 O.3     1  UNL1       -0.3794
     13 H          28.2721   78.6999   -5.0812 H       1  UNL1        0.2106
     14 H          26.9529   78.7937   -3.2569 H       1  UNL1        0.2105
     15 N          28.9764   74.7620   -5.3822 N.ar    1  UNL1       -0.2551
     16 C          30.0206   74.0026   -5.0054 C.ar    1  UNL1        0.3323
     17 N          30.7734   73.3584   -5.9167 N.ar    1  UNL1       -0.2743
     18 C          30.4878   73.4648   -7.2304 C.ar    1  UNL1        0.2626
     19 C          29.3909   74.2600   -7.6411 C.ar    1  UNL1        0.0795
     20 C          28.6508   74.8913   -6.7056 C.ar    1  UNL1        0.0869
     21 O          30.2896   73.8974   -3.8243 O.2     1  UNL1       -0.2464
     22 O          31.1681   72.8820   -8.0562 O.2     1  UNL1       -0.2670
     23 H          31.5234   72.8160   -5.6280 H       1  UNL1        0.1734
     24 O          21.9074   73.4884   -4.1878 O.3     1  UNL1       -0.2703
     25 P          21.4692   73.3988   -5.7347 P.3     1  UNL1        0.2208
     26 O          21.1573   74.8780   -6.2901 O.3     1  UNL1       -0.4371
     27 O          22.5659   72.7972   -6.5243 O.2     1  UNL1       -0.5170
     28 O          20.1492   72.4862   -5.8665 O.3     1  UNL1       -0.2865
     29 C          18.9242   72.9651   -6.4246 C.3     1  UNL1        0.2611
     30 C          17.7594   72.1221   -5.8999 C.3     1  UNL1        0.1582
     31 C          17.9433   70.6718   -6.3573 C.3     1  UNL1        0.1625
     32 C          18.0423   70.6382   -7.8849 C.3     1  UNL1        0.1686
     33 C          19.1966   71.5386   -8.3331 C.3     1  UNL1        0.1760
     34 O          16.8224   69.8922   -5.9341 O.3     1  UNL1       -0.3801
     35 O          16.8194   71.1101   -8.4533 O.3     1  UNL1       -0.3794
     36 O          18.9793   72.8654   -7.8491 O.3     1  UNL1       -0.3263
     37 H          16.8727   68.9609   -6.1896 H       1  UNL1        0.2105
     38 H          16.8113   71.1169   -9.4207 H       1  UNL1        0.2105
     39 C          16.5616   72.2403   -3.7812 C.2     1  UNL1        0.2231
     40 C          16.5384   72.2942   -2.2761 C.3     1  UNL1        0.0946
     41 N          17.7377   72.1749   -4.4360 N.am    1  UNL1       -0.2994
     42 O          15.5210   72.2557   -4.4050 O.2     1  UNL1       -0.2751
     43 H          18.5699   72.1635   -3.9376 H       1  UNL1        0.1496
     44 C          19.2646   71.5575   -9.8613 C.3     1  UNL1        0.1693
     45 O          18.3837   72.5635  -10.3656 O.3     1  UNL1       -0.3794
     46 H          18.3753   72.6322  -11.3301 H       1  UNL1        0.2105
@<TRIPOS>BOND
     1    29    30    1
     2    30    41    1
     3    30    31    1
     4    31    34    1
     5    31    32    1
     6    32    35    1
     7    32    33    1
     8    33    36    1
     9    33    44    1
    10    39    40    1
    11    39    42    2
    12    39    41   am
    13    41    43    1
    14    29    28    1
    15    34    37    1
    16    35    38    1
    17    29    36    1
    18    44    45    1
    19    45    46    1
    20    15     6    1
    21    15    16   ar
    22    16    21    2
    23    16    17   ar
    24    17    23    1
    25    17    18   ar
    26    18    19   ar
    27    19    20   ar
    28    15    20   ar
    29    18    22    2
    30     6     7    1
    31     6    11    1
    32     7     9    1
    33     7     8    1
    34     8    13    1
    35     9    10    1
    36     9    12    1
    37    10     5    1
    38    10    11    1
    39    12    14    1
    40     5     4    1
    41     4     1    1
    42     1     2    1
    43     1    24    1
    44     1     3    2
    45    24    25    1
    46    28    25    1
    47    25    26    1
    48    25    27    2
@<TRIPOS>MOLECULE
UD2
 46 48 0 0 0
SMALL
GASTEIGER

@<TRIPOS>ATOM
      1 P          22.7829   71.8034   -3.1401 P.3     1  UNL1        0.2189
      2 O          22.9788   72.2576   -1.6082 O.3     1  UNL1       -0.4371
      3 O          23.2849   70.4226   -3.3140 O.2     1  UNL1       -0.5170
      4 O          21.2188   71.8577   -3.5199 O.3     1  UNL1       -0.3112
      5 C          20.2067   72.2504   -2.5911 C.3     1  UNL1        0.1811
      6 C          17.9684   71.3836   -5.2697 C.3     1  UNL1        0.2383
      7 C          18.0446   70.1054   -4.3964 C.3     1  UNL1        0.1895
      8 O          16.8177   69.3752   -4.4530 O.3     1  UNL1       -0.3779
      9 C          18.2739   70.6913   -2.9817 C.3     1  UNL1        0.1713
     10 C          18.8304   72.1036   -3.2446 C.3     1  UNL1        0.1764
     11 O          18.9460   72.2598   -4.6679 O.3     1  UNL1       -0.3308
     12 O          17.0397   70.7647   -2.2660 O.3     1  UNL1       -0.3794
     13 H          16.8161   68.5666   -3.9231 H       1  UNL1        0.2106
     14 H          16.6149   69.9081   -2.1240 H       1  UNL1        0.2105
     15 N          18.3292   71.0828   -6.6569 N.ar    1  UNL1       -0.2551
     16 C          17.3659   70.7810   -7.5456 C.ar    1  UNL1        0.3323
     17 N          17.6687   70.5001   -8.8269 N.ar    1  UNL1       -0.2743
     18 C          18.9520   70.5194   -9.2410 C.ar    1  UNL1        0.2626
     19 C          19.9760   70.8365   -8.3164 C.ar    1  UNL1        0.0795
     20 C          19.6433   71.1181   -7.0391 C.ar    1  UNL1        0.0869
     21 O          16.2045   70.7600   -7.1863 O.2     1  UNL1       -0.2464
     22 O          19.2273   70.2659  -10.4005 O.2     1  UNL1       -0.2670
     23 H          16.9620   70.2833   -9.4544 H       1  UNL1        0.1734
     24 O          23.6035   72.7985   -4.1044 O.3     1  UNL1       -0.2703
     25 P          24.0191   74.3517   -4.0147 P.3     1  UNL1        0.2208
     26 O          23.6576   75.0844   -5.4026 O.3     1  UNL1       -0.4371
     27 O          23.2785   74.9978   -2.9091 O.2     1  UNL1       -0.5170
     28 O          25.6016   74.4688   -3.7419 O.3     1  UNL1       -0.2865
     29 C          26.3082   75.7100   -3.7791 C.3     1  UNL1        0.2611
     30 C          27.7928   75.4454   -4.0413 C.3     1  UNL1        0.1582
     31 C          28.3667   74.6179   -2.8871 C.3     1  UNL1        0.1625
     32 C          28.1340   75.3660   -1.5716 C.3     1  UNL1        0.1686
     33 C          26.6359   75.6337   -1.4046 C.3     1  UNL1        0.1760
     34 O          29.7694   74.4284   -3.0871 O.3     1  UNL1       -0.3801
     35 O          28.8416   76.6070   -1.5963 O.3     1  UNL1       -0.3794
     36 O          26.1590   76.3803   -2.5258 O.3     1  UNL1       -0.3263
     37 H          30.1989   73.9107   -2.3924 H       1  UNL1        0.2105
     38 H          28.7384   77.1355   -0.7925 H       1  UNL1        0.2105
     39 C          28.9412   75.0173   -6.1474 C.2     1  UNL1        0.2231
     40 C          29.0971   74.2569   -7.4382 C.3     1  UNL1        0.0946
     41 N          27.9436   74.7054   -5.2968 N.am    1  UNL1       -0.2994
     42 O          29.7139   75.9116   -5.8729 O.2     1  UNL1       -0.2751
     43 H          27.3250   73.9911   -5.5163 H       1  UNL1        0.1496
     44 C          26.4009   76.4333   -0.1217 C.3     1  UNL1        0.1693
     45 O          25.6322   75.6507    0.7943 O.3     1  UNL1       -0.3794
     46 H          25.4446   76.0960    1.6318 H       1  UNL1        0.2105
@<TRIPOS>BOND
     1    29    30    1
     2    30    41    1
     3    30    31    1
     4    31    34    1
     5    31    32    1
     6    32    35    1
     7    32    33    1
     8    33    36    1
     9    33    44    1
    10    39    40    1
    11    39    42    2
    12    39    41   am
    13    41    43    1
    14    29    28    1
    15    34    37    1
    16    35    38    1
    17    29    36    1
    18    44    45    1
    19    45    46    1
    20    15     6    1
    21    15    16   ar
    22    16    21    2
    23    16    17   ar
    24    17    23    1
    25    17    18   ar
    26    18    19   ar
    27    19    20   ar
    28    15    20   ar
    29    18    22    2
    30     6     7    1
    31     6    11    1
    32     7     9    1
    33     7     8    1
    34     8    13    1
    35     9    10    1
    36     9    12    1
    37    10     5    1
    38    10    11    1
    39    12    14    1
    40     5     4    1
    41     4     1    1
    42     1     2    1
    43     1    24    1
    44     1     3    2
    45    24    25    1
    46    28    25    1
    47    25    26    1
    48    25    27    2
@<TRIPOS>MOLECULE
UD2
 46 48 0 0 0
SMALL
GASTEIGER

@<TRIPOS>ATOM
      1 P          22.1182   70.3931   -0.1782 P.3     1  UNL1        0.2189
      2 O          21.1825   70.9176    1.0221 O.3     1  UNL1       -0.4371
      3 O          23.0863   69.4047    0.3460 O.2     1  UNL1       -0.5170
      4 O          21.2033   69.7009   -1.3085 O.3     1  UNL1       -0.3112
      5 C          21.2350   70.0936   -2.6819 C.3     1  UNL1        0.1811
      6 C          18.6006   70.8155   -5.0219 C.3     1  UNL1        0.2383
      7 C          18.2344   69.4269   -4.4389 C.3     1  UNL1        0.1895
      8 O          16.8176   69.2438   -4.4093 O.3     1  UNL1       -0.3779
      9 C          18.8102   69.5143   -3.0043 C.3     1  UNL1        0.1713
     10 C          19.8627   70.6362   -3.0887 C.3     1  UNL1        0.1764
     11 O          19.8997   71.0864   -4.4522 O.3     1  UNL1       -0.3308
     12 O          17.7825   69.8609   -2.0745 O.3     1  UNL1       -0.3794
     13 H          16.5386   68.3894   -4.0532 H       1  UNL1        0.2106
     14 H          17.0631   69.2172   -2.0242 H       1  UNL1        0.2105
     15 N          18.6797   70.7570   -6.4832 N.ar    1  UNL1       -0.2551
     16 C          17.5506   70.7879   -7.2134 C.ar    1  UNL1        0.3323
     17 N          17.5935   70.7353   -8.5578 N.ar    1  UNL1       -0.2743
     18 C          18.7783   70.6522   -9.1964 C.ar    1  UNL1        0.2626
     19 C          19.9747   70.6198   -8.4403 C.ar    1  UNL1        0.0795
     20 C          19.9023   70.6782   -7.0939 C.ar    1  UNL1        0.0869
     21 O          16.4753   70.8629   -6.6510 O.2     1  UNL1       -0.2464
     22 O          18.8185   70.6049  -10.4133 O.2     1  UNL1       -0.2670
     23 H          16.7699   70.7574   -9.0690 H       1  UNL1        0.1734
     24 O          22.9148   71.6364   -0.8207 O.3     1  UNL1       -0.2703
     25 P          22.6808   73.2296   -0.8295 P.3     1  UNL1        0.2208
     26 O          22.3862   73.7366    0.6705 O.3     1  UNL1       -0.4371
     27 O          23.8912   73.9034   -1.3485 O.2     1  UNL1       -0.5170
     28 O          21.4239   73.5821   -1.7722 O.3     1  UNL1       -0.2865
     29 C          21.2849   74.8327   -2.4489 C.3     1  UNL1        0.2611
     30 C          22.4523   75.7490   -2.0745 C.3     1  UNL1        0.1582
     31 C          22.4090   76.0276   -0.5689 C.3     1  UNL1        0.1625
     32 C          21.0521   76.6413   -0.2130 C.3     1  UNL1        0.1686
     33 C          19.9384   75.6902   -0.6592 C.3     1  UNL1        0.1760
     34 O          23.4521   76.9414   -0.2224 O.3     1  UNL1       -0.3801
     35 O          20.9055   77.8959   -0.8806 O.3     1  UNL1       -0.3794
     36 O          20.0545   75.4486   -2.0628 O.3     1  UNL1       -0.3263
     37 H          23.4845   77.1624    0.7185 H       1  UNL1        0.2105
     38 H          20.0661   78.3421   -0.7008 H       1  UNL1        0.2105
     39 C          24.6769   75.7781   -3.0686 C.2     1  UNL1        0.2231
     40 C          25.9780   75.1050   -3.4188 C.3     1  UNL1        0.0946
     41 N          23.7176   75.0935   -2.4150 N.am    1  UNL1       -0.2994
     42 O          24.4918   76.9374   -3.3750 O.2     1  UNL1       -0.2751
     43 H          23.8648   74.1663   -2.1707 H       1  UNL1        0.1496
     44 C          18.5778   76.3231   -0.3611 C.3     1  UNL1        0.1693
     45 O          17.5822   75.7297   -1.1971 O.3     1  UNL1       -0.3794
     46 H          16.6925   76.0836   -1.0621 H       1  UNL1        0.2105
@<TRIPOS>BOND
     1    29    30    1
     2    30    41    1
     3    30    31    1
     4    31    34    1
     5    31    32    1
     6    32    35    1
     7    32    33    1
     8    33    36    1
     9    33    44    1
    10    39    40    1
    11    39    42    2
    12    39    41   am
    13    41    43    1
    14    29    28    1
    15    34    37    1
    16    35    38    1
    17    29    36    1
    18    44    45    1
    19    45    46    1
    20    15     6    1
    21    15    16   ar
    22    16    21    2
    23    16    17   ar
    24    17    23    1
    25    17    18   ar
    26    18    19   ar
    27    19    20   ar
    28    15    20   ar
    29    18    22    2
    30     6     7    1
    31     6    11    1
    32     7     9    1
    33     7     8    1
    34     8    13    1
    35     9    10    1
    36     9    12    1
    37    10     5    1
    38    10    11    1
    39    12    14    1
    40     5     4    1
    41     4     1    1
    42     1     2    1
    43     1    24    1
    44     1     3    2
    45    24    25    1
    46    28    25    1
    47    25    26    1
    48    25    27    2
@<TRIPOS>MOLECULE
UD2
 46 48 0 0 0
SMALL
GASTEIGER

@<TRIPOS>ATOM
      1 P          22.1968   70.7870   -2.5883 P.3     1  UNL1        0.2189
      2 O          23.5881   70.5610   -3.3658 O.3     1  UNL1       -0.4371
      3 O          21.3188   69.6145   -2.7959 O.2     1  UNL1       -0.5170
      4 O          22.4854   70.9694   -1.0144 O.3     1  UNL1       -0.3112
      5 C          21.4452   71.1006   -0.0436 C.3     1  UNL1        0.1811
      6 C          21.4245   74.0297    2.0436 C.3     1  UNL1        0.2383
      7 C          22.8042   74.0634    1.3383 C.3     1  UNL1        0.1895
      8 O          23.2462   75.4087    1.1465 O.3     1  UNL1       -0.3779
      9 C          22.4927   73.3857   -0.0185 C.3     1  UNL1        0.1713
     10 C          21.2045   72.5838    0.2482 C.3     1  UNL1        0.1764
     11 O          20.8692   72.7611    1.6337 O.3     1  UNL1       -0.3308
     12 O          22.2690   74.3708   -1.0286 O.3     1  UNL1       -0.3794
     13 H          24.1054   75.4821    0.7094 H       1  UNL1        0.2106
     14 H          23.0296   74.9435   -1.1958 H       1  UNL1        0.2105
     15 N          21.5876   74.0761    3.4983 N.ar    1  UNL1       -0.2551
     16 C          22.0103   72.9822    4.1568 C.ar    1  UNL1        0.3323
     17 N          22.1688   72.9963    5.4935 N.ar    1  UNL1       -0.2743
     18 C          21.9057   74.1167    6.1964 C.ar    1  UNL1        0.2626
     19 C          21.4610   75.2758    5.5160 C.ar    1  UNL1        0.0795
     20 C          21.3150   75.2345    4.1750 C.ar    1  UNL1        0.0869
     21 O          22.2514   71.9650    3.5358 O.2     1  UNL1       -0.2464
     22 O          22.0492   74.1309    7.4063 O.2     1  UNL1       -0.2670
     23 H          22.4733   72.1984    5.9527 H       1  UNL1        0.1734
     24 O          21.4723   72.1080   -3.1570 O.3     1  UNL1       -0.2703
     25 P          21.3179   72.7546   -4.6236 P.3     1  UNL1        0.2208
     26 O          20.9409   74.3142   -4.4849 O.3     1  UNL1       -0.4371
     27 O          22.5942   72.6199   -5.3593 O.2     1  UNL1       -0.5170
     28 O          20.1512   71.9894   -5.4273 O.3     1  UNL1       -0.2865
     29 C          19.0716   72.6710   -6.0685 C.3     1  UNL1        0.2611
     30 C          17.7534   71.9682   -5.7353 C.3     1  UNL1        0.1582
     31 C          17.7934   70.5391   -6.2854 C.3     1  UNL1        0.1625
     32 C          18.0588   70.5909   -7.7924 C.3     1  UNL1        0.1686
     33 C          19.3656   71.3470   -8.0464 C.3     1  UNL1        0.1760
     34 O          16.5384   69.8992   -6.0431 O.3     1  UNL1       -0.3801
     35 O          16.9814   71.2659   -8.4442 O.3     1  UNL1       -0.3794
     36 O          19.2733   72.6571   -7.4832 O.3     1  UNL1       -0.3263
     37 H          16.4930   68.9886   -6.3655 H       1  UNL1        0.2105
     38 H          17.0835   71.3364   -9.4037 H       1  UNL1        0.2105
     39 C          16.3569   72.1497   -3.7466 C.2     1  UNL1        0.2231
     40 C          16.1715   72.1088   -2.2525 C.3     1  UNL1        0.0946
     41 N          17.5738   71.9285   -4.2818 N.am    1  UNL1       -0.2994
     42 O          15.4105   72.3819   -4.4694 O.2     1  UNL1       -0.2751
     43 H          18.3310   71.7438   -3.7042 H       1  UNL1        0.1496
     44 C          19.6075   71.4551   -9.5531 C.3     1  UNL1        0.1693
     45 O          18.7429   72.4503  -10.1049 O.3     1  UNL1       -0.3794
     46 H          18.8419   72.5729  -11.0589 H       1  UNL1        0.2105
@<TRIPOS>BOND
     1    29    30    1
     2    30    41    1
     3    30    31    1
     4    31    34    1
     5    31    32    1
     6    32    35    1
     7    32    33    1
     8    33    36    1
     9    33    44    1
    10    39    40    1
    11    39    42    2
    12    39    41   am
    13    41    43    1
    14    29    28    1
    15    34    37    1
    16    35    38    1
    17    29    36    1
    18    44    45    1
    19    45    46    1
    20    15     6    1
    21    15    16   ar
    22    16    21    2
    23    16    17   ar
    24    17    23    1
    25    17    18   ar
    26    18    19   ar
    27    19    20   ar
    28    15    20   ar
    29    18    22    2
    30     6     7    1
    31     6    11    1
    32     7     9    1
    33     7     8    1
    34     8    13    1
    35     9    10    1
    36     9    12    1
    37    10     5    1
    38    10    11    1
    39    12    14    1
    40     5     4    1
    41     4     1    1
    42     1     2    1
    43     1    24    1
    44     1     3    2
    45    24    25    1
    46    28    25    1
    47    25    26    1
    48    25    27    2
@<TRIPOS>MOLECULE
UD2
 46 48 0 0 0
SMALL
GASTEIGER

@<TRIPOS>ATOM
      1 P          21.2492   70.7989   -2.9554 P.3     1  UNL1        0.2189
      2 O          22.7945   70.3507   -2.9054 O.3     1  UNL1       -0.4371
      3 O          20.5153   69.9364   -3.9074 O.2     1  UNL1       -0.5170
      4 O          20.6005   70.6526   -1.4886 O.3     1  UNL1       -0.3112
      5 C          21.3162   70.9524   -0.2889 C.3     1  UNL1        0.1811
      6 C          21.5752   73.8897    1.7708 C.3     1  UNL1        0.2383
      7 C          22.9781   73.7383    1.1296 C.3     1  UNL1        0.1895
      8 O          23.5959   75.0138    0.9473 O.3     1  UNL1       -0.3779
      9 C          22.6438   73.0864   -0.2344 C.3     1  UNL1        0.1713
     10 C          21.2534   72.4581   -0.0207 C.3     1  UNL1        0.1764
     11 O          20.8819   72.6961    1.3463 O.3     1  UNL1       -0.3308
     12 O          22.5927   74.0776   -1.2619 O.3     1  UNL1       -0.3794
     13 H          24.4761   74.9716    0.5496 H       1  UNL1        0.2106
     14 H          23.4267   74.5469   -1.3986 H       1  UNL1        0.2105
     15 N          21.6776   73.9356    3.2310 N.ar    1  UNL1       -0.2551
     16 C          21.9064   72.8028    3.9190 C.ar    1  UNL1        0.3323
     17 N          22.0050   72.8154    5.2615 N.ar    1  UNL1       -0.2743
     18 C          21.8766   73.9734    5.9406 C.ar    1  UNL1        0.2626
     19 C          21.6366   75.1735    5.2291 C.ar    1  UNL1        0.0795
     20 C          21.5466   75.1321    3.8831 C.ar    1  UNL1        0.0869
     21 O          22.0245   71.7514    3.3197 O.2     1  UNL1       -0.2464
     22 O          21.9660   73.9863    7.1556 O.2     1  UNL1       -0.2670
     23 H          22.1690   71.9894    5.7420 H       1  UNL1        0.1734
     24 O          21.1503   72.3331   -3.4345 O.3     1  UNL1       -0.2703
     25 P          21.4978   73.1002   -4.8070 P.3     1  UNL1        0.2208
     26 O          21.6427   74.6779   -4.5177 O.3     1  UNL1       -0.4371
     27 O          22.7703   72.5808   -5.3542 O.2     1  UNL1       -0.5170
     28 O          20.3155   72.8559   -5.8724 O.3     1  UNL1       -0.2865
     29 C          20.3726   71.8450   -6.8805 C.3     1  UNL1        0.2611
     30 C          20.0976   72.4720   -8.2494 C.3     1  UNL1        0.1582
     31 C          18.6823   73.0579   -8.2579 C.3     1  UNL1        0.1625
     32 C          17.6812   71.9515   -7.9146 C.3     1  UNL1        0.1686
     33 C          18.0495   71.3444   -6.5582 C.3     1  UNL1        0.1760
     34 O          18.3900   73.5806   -9.5559 O.3     1  UNL1       -0.3801
     35 O          17.7263   70.9376   -8.9202 O.3     1  UNL1       -0.3794
     36 O          19.3877   70.8458   -6.6088 O.3     1  UNL1       -0.3263
     37 H          17.5078   73.9691   -9.6335 H       1  UNL1        0.2105
     38 H          17.1164   70.2026   -8.7663 H       1  UNL1        0.2105
     39 C          20.7667   74.8145   -8.1977 C.2     1  UNL1        0.2231
     40 C          21.7662   75.9106   -8.4587 C.3     1  UNL1        0.0946
     41 N          21.0702   73.5377   -8.5038 N.am    1  UNL1       -0.2994
     42 O          19.6874   75.0807   -7.7116 O.2     1  UNL1       -0.2751
     43 H          21.9327   73.3246   -8.8934 H       1  UNL1        0.1496
     44 C          17.0895   70.1978   -6.2353 C.3     1  UNL1        0.1693
     45 O          16.7025   70.2721   -4.8616 O.3     1  UNL1       -0.3794
     46 H          16.0928   69.5741   -4.5859 H       1  UNL1        0.2105
@<TRIPOS>BOND
     1    29    30    1
     2    30    41    1
     3    30    31    1
     4    31    34    1
     5    31    32    1
     6    32    35    1
     7    32    33    1
     8    33    36    1
     9    33    44    1
    10    39    40    1
    11    39    42    2
    12    39    41   am
    13    41    43    1
    14    29    28    1
    15    34    37    1
    16    35    38    1
    17    29    36    1
    18    44    45    1
    19    45    46    1
    20    15     6    1
    21    15    16   ar
    22    16    21    2
    23    16    17   ar
    24    17    23    1
    25    17    18   ar
    26    18    19   ar
    27    19    20   ar
    28    15    20   ar
    29    18    22    2
    30     6     7    1
    31     6    11    1
    32     7     9    1
    33     7     8    1
    34     8    13    1
    35     9    10    1
    36     9    12    1
    37    10     5    1
    38    10    11    1
    39    12    14    1
    40     5     4    1
    41     4     1    1
    42     1     2    1
    43     1    24    1
    44     1     3    2
    45    24    25    1
    46    28    25    1
    47    25    26    1
    48    25    27    2
@<TRIPOS>MOLECULE
UD2
 46 48 0 0 0
SMALL
GASTEIGER

@<TRIPOS>ATOM
      1 P          22.0088   74.8607   -6.8385 P.3     1  UNL1        0.2189
      2 O          23.4800   74.8404   -7.4915 O.3     1  UNL1       -0.4371
      3 O          21.3117   76.1056   -7.2301 O.2     1  UNL1       -0.5170
      4 O          21.1714   73.5889   -7.3631 O.3     1  UNL1       -0.3112
      5 C          20.7604   73.4363   -8.7230 C.3     1  UNL1        0.1811
      6 C          18.3074   71.2086   -7.3242 C.3     1  UNL1        0.2383
      7 C          17.6466   72.6088   -7.2551 C.3     1  UNL1        0.1895
      8 O          16.2266   72.5094   -7.3794 O.3     1  UNL1       -0.3779
      9 C          18.2605   73.3194   -8.4862 C.3     1  UNL1        0.1713
     10 C          19.5397   72.5150   -8.7861 C.3     1  UNL1        0.1764
     11 O          19.6470   71.4922   -7.7832 O.3     1  UNL1       -0.3308
     12 O          17.3615   73.2621   -9.5949 O.3     1  UNL1       -0.3794
     13 H          15.7677   73.3595   -7.3415 H       1  UNL1        0.2106
     14 H          16.5152   73.7025   -9.4393 H       1  UNL1        0.2105
     15 N          18.3367   70.5860   -5.9989 N.ar    1  UNL1       -0.2551
     16 C          17.3065   69.8188   -5.6001 C.ar    1  UNL1        0.3323
     17 N          17.3067   69.2345   -4.3874 N.ar    1  UNL1       -0.2743
     18 C          18.3487   69.4100   -3.5495 C.ar    1  UNL1        0.2626
     19 C          19.4402   70.2143   -3.9567 C.ar    1  UNL1        0.0795
     20 C          19.4154   70.7845   -5.1797 C.ar    1  UNL1        0.0869
     21 O          16.3604   69.6516   -6.3453 O.2     1  UNL1       -0.2464
     22 O          18.3502   68.8814   -2.4517 O.2     1  UNL1       -0.2670
     23 H          16.5553   68.6854   -4.1151 H       1  UNL1        0.1734
     24 O          22.1324   74.7962   -5.2342 O.3     1  UNL1       -0.2703
     25 P          23.3588   74.5693   -4.2157 P.3     1  UNL1        0.2208
     26 O          23.8939   73.0562   -4.3495 O.3     1  UNL1       -0.4371
     27 O          24.4529   75.5095   -4.5433 O.2     1  UNL1       -0.5170
     28 O          22.8593   74.8310   -2.7076 O.3     1  UNL1       -0.2865
     29 C          21.5680   74.4411   -2.2365 C.3     1  UNL1        0.2611
     30 C          21.3699   74.9508   -0.8070 C.3     1  UNL1        0.1582
     31 C          22.4139   74.3014    0.1067 C.3     1  UNL1        0.1625
     32 C          22.2846   72.7788    0.0102 C.3     1  UNL1        0.1686
     33 C          22.4475   72.3527   -1.4512 C.3     1  UNL1        0.1760
     34 O          22.1901   74.7152    1.4565 O.3     1  UNL1       -0.3801
     35 O          20.9980   72.3777    0.4846 O.3     1  UNL1       -0.3794
     36 O          21.4665   73.0156   -2.2512 O.3     1  UNL1       -0.3263
     37 H          22.8170   74.3415    2.0910 H       1  UNL1        0.2105
     38 H          20.8459   71.4228    0.4516 H       1  UNL1        0.2105
     39 C          20.5097   77.1922   -0.3901 C.2     1  UNL1        0.2231
     40 C          20.6766   78.6889   -0.3614 C.3     1  UNL1        0.0946
     41 N          21.5330   76.4065   -0.7796 N.am    1  UNL1       -0.2994
     42 O          19.4534   76.6931   -0.0625 O.2     1  UNL1       -0.2751
     43 H          22.3773   76.8052   -1.0425 H       1  UNL1        0.1496
     44 C          22.2602   70.8386   -1.5647 C.3     1  UNL1        0.1693
     45 O          22.8164   70.3802   -2.7987 O.3     1  UNL1       -0.3794
     46 H          22.7332   69.4270   -2.9383 H       1  UNL1        0.2105
@<TRIPOS>BOND
     1    29    30    1
     2    30    41    1
     3    30    31    1
     4    31    34    1
     5    31    32    1
     6    32    35    1
     7    32    33    1
     8    33    36    1
     9    33    44    1
    10    39    40    1
    11    39    42    2
    12    39    41   am
    13    41    43    1
    14    29    28    1
    15    34    37    1
    16    35    38    1
    17    29    36    1
    18    44    45    1
    19    45    46    1
    20    15     6    1
    21    15    16   ar
    22    16    21    2
    23    16    17   ar
    24    17    23    1
    25    17    18   ar
    26    18    19   ar
    27    19    20   ar
    28    15    20   ar
    29    18    22    2
    30     6     7    1
    31     6    11    1
    32     7     9    1
    33     7     8    1
    34     8    13    1
    35     9    10    1
    36     9    12    1
    37    10     5    1
    38    10    11    1
    39    12    14    1
    40     5     4    1
    41     4     1    1
    42     1     2    1
    43     1    24    1
    44     1     3    2
    45    24    25    1
    46    28    25    1
    47    25    26    1
    48    25    27    2
@<TRIPOS>MOLECULE
UD2
 46 48 0 0 0
SMALL
GASTEIGER

@<TRIPOS>ATOM
      1 P          21.1679   74.4385   -4.4863 P.3     1  UNL1        0.2189
      2 O          21.4514   74.1570   -6.0457 O.3     1  UNL1       -0.4371
      3 O          20.1585   75.5120   -4.3537 O.2     1  UNL1       -0.5170
      4 O          20.6171   73.0948   -3.7900 O.3     1  UNL1       -0.3112
      5 C          19.5736   73.0969   -2.8140 C.3     1  UNL1        0.1811
      6 C          17.6272   71.5374   -5.4055 C.3     1  UNL1        0.2383
      7 C          17.9385   70.3919   -4.4090 C.3     1  UNL1        0.1895
      8 O          16.8870   69.4243   -4.3996 O.3     1  UNL1       -0.3779
      9 C          18.0078   71.1456   -3.0583 C.3     1  UNL1        0.1713
     10 C          18.2729   72.6098   -3.4573 C.3     1  UNL1        0.1764
     11 O          18.3911   72.6486   -4.8884 O.3     1  UNL1       -0.3308
     12 O          16.7664   71.0338   -2.3604 O.3     1  UNL1       -0.3794
     13 H          17.0358   68.6873   -3.7919 H       1  UNL1        0.2106
     14 H          16.5206   70.1262   -2.1362 H       1  UNL1        0.2105
     15 N          18.0771   71.1846   -6.7539 N.ar    1  UNL1       -0.2551
     16 C          17.2073   70.6462   -7.6270 C.ar    1  UNL1        0.3323
     17 N          17.5933   70.3122   -8.8727 N.ar    1  UNL1       -0.2743
     18 C          18.8670   70.5160   -9.2662 C.ar    1  UNL1        0.2626
     19 C          19.7929   71.0830   -8.3577 C.ar    1  UNL1        0.0795
     20 C          19.3774   71.4122   -7.1165 C.ar    1  UNL1        0.0869
     21 O          16.0557   70.4569   -7.2860 O.2     1  UNL1       -0.2464
     22 O          19.2175   70.2145  -10.3935 O.2     1  UNL1       -0.2670
     23 H          16.9536   69.9238   -9.4893 H       1  UNL1        0.1734
     24 O          22.5342   74.8941   -3.7659 O.3     1  UNL1       -0.2703
     25 P          23.9310   74.1577   -3.4506 P.3     1  UNL1        0.2208
     26 O          24.1957   74.1675   -1.8620 O.3     1  UNL1       -0.4371
     27 O          23.8718   72.7600   -3.9316 O.2     1  UNL1       -0.5170
     28 O          25.1273   74.9331   -4.1992 O.3     1  UNL1       -0.2865
     29 C          25.8170   76.0430   -3.6217 C.3     1  UNL1        0.2611
     30 C          25.9497   77.1591   -4.6606 C.3     1  UNL1        0.1582
     31 C          26.7883   76.6519   -5.8379 C.3     1  UNL1        0.1625
     32 C          28.1482   76.1798   -5.3162 C.3     1  UNL1        0.1686
     33 C          27.9307   75.1012   -4.2518 C.3     1  UNL1        0.1760
     34 O          26.9792   77.7108   -6.7790 O.3     1  UNL1       -0.3801
     35 O          28.8489   77.2843   -4.7414 O.3     1  UNL1       -0.3794
     36 O          27.1183   75.6282   -3.2009 O.3     1  UNL1       -0.3263
     37 H          27.5023   77.4594   -7.5525 H       1  UNL1        0.2105
     38 H          29.7208   77.0574   -4.3889 H       1  UNL1        0.2105
     39 C          24.0957   76.9508   -6.2280 C.2     1  UNL1        0.2231
     40 C          22.7277   77.3463   -6.7187 C.3     1  UNL1        0.0946
     41 N          24.6191   77.5446   -5.1374 N.am    1  UNL1       -0.2994
     42 O          24.7274   76.0971   -6.8149 O.2     1  UNL1       -0.2751
     43 H          24.1148   78.2279   -4.6685 H       1  UNL1        0.1496
     44 C          29.2826   74.6666   -3.6826 C.3     1  UNL1        0.1693
     45 O          29.8203   73.6117   -4.4829 O.3     1  UNL1       -0.3794
     46 H          30.6787   73.2857   -4.1798 H       1  UNL1        0.2105
@<TRIPOS>BOND
     1    29    30    1
     2    30    41    1
     3    30    31    1
     4    31    34    1
     5    31    32    1
     6    32    35    1
     7    32    33    1
     8    33    36    1
     9    33    44    1
    10    39    40    1
    11    39    42    2
    12    39    41   am
    13    41    43    1
    14    29    28    1
    15    34    37    1
    16    35    38    1
    17    29    36    1
    18    44    45    1
    19    45    46    1
    20    15     6    1
    21    15    16   ar
    22    16    21    2
    23    16    17   ar
    24    17    23    1
    25    17    18   ar
    26    18    19   ar
    27    19    20   ar
    28    15    20   ar
    29    18    22    2
    30     6     7    1
    31     6    11    1
    32     7     9    1
    33     7     8    1
    34     8    13    1
    35     9    10    1
    36     9    12    1
    37    10     5    1
    38    10    11    1
    39    12    14    1
    40     5     4    1
    41     4     1    1
    42     1     2    1
    43     1    24    1
    44     1     3    2
    45    24    25    1
    46    28    25    1
    47    25    26    1
    48    25    27    2
@<TRIPOS>MOLECULE
UD2
 46 48 0 0 0
SMALL
GASTEIGER

@<TRIPOS>ATOM
      1 P          22.8660   72.1179   -3.3064 P.3     1  UNL1        0.2189
      2 O          23.5214   70.6514   -3.2011 O.3     1  UNL1       -0.4371
      3 O          23.5192   72.8736   -4.3978 O.2     1  UNL1       -0.5170
      4 O          21.2915   71.9809   -3.6160 O.3     1  UNL1       -0.3112
      5 C          20.2861   72.1294   -2.6117 C.3     1  UNL1        0.1811
      6 C          18.0061   71.3550   -5.2834 C.3     1  UNL1        0.2383
      7 C          18.0498   70.0668   -4.4227 C.3     1  UNL1        0.1895
      8 O          16.8014   69.3738   -4.4780 O.3     1  UNL1       -0.3779
      9 C          18.3054   70.6320   -3.0040 C.3     1  UNL1        0.1713
     10 C          18.9019   72.0297   -3.2575 C.3     1  UNL1        0.1764
     11 O          19.0131   72.1960   -4.6799 O.3     1  UNL1       -0.3308
     12 O          17.0785   70.7352   -2.2796 O.3     1  UNL1       -0.3794
     13 H          16.7792   68.5606   -3.9557 H       1  UNL1        0.2106
     14 H          16.6294   69.8902   -2.1427 H       1  UNL1        0.2105
     15 N          18.3489   71.0569   -6.6758 N.ar    1  UNL1       -0.2551
     16 C          17.3728   70.7735   -7.5565 C.ar    1  UNL1        0.3323
     17 N          17.6590   70.4956   -8.8422 N.ar    1  UNL1       -0.2743
     18 C          18.9382   70.4993   -9.2689 C.ar    1  UNL1        0.2626
     19 C          19.9757   70.7969   -8.3528 C.ar    1  UNL1        0.0795
     20 C          19.6596   71.0759   -7.0707 C.ar    1  UNL1        0.0869
     21 O          16.2148   70.7668   -7.1858 O.2     1  UNL1       -0.2464
     22 O          19.1985   70.2484  -10.4324 O.2     1  UNL1       -0.2670
     23 H          16.9431   70.2922   -9.4638 H       1  UNL1        0.1734
     24 O          23.0723   72.8996   -1.9137 O.3     1  UNL1       -0.2703
     25 P          23.5800   74.3777   -1.5260 P.3     1  UNL1        0.2208
     26 O          22.5272   75.4669   -2.0727 O.3     1  UNL1       -0.4371
     27 O          23.6884   74.4924   -0.0551 O.2     1  UNL1       -0.5170
     28 O          25.0215   74.6421   -2.1930 O.3     1  UNL1       -0.2865
     29 C          25.5036   75.9485   -2.5126 C.3     1  UNL1        0.2611
     30 C          26.0153   75.9658   -3.9550 C.3     1  UNL1        0.1582
     31 C          27.1910   74.9922   -4.0823 C.3     1  UNL1        0.1625
     32 C          28.2765   75.3852   -3.0765 C.3     1  UNL1        0.1686
     33 C          27.6775   75.3901   -1.6676 C.3     1  UNL1        0.1760
     34 O          27.7223   75.0563   -5.4078 O.3     1  UNL1       -0.3801
     35 O          28.7697   76.6887   -3.3910 O.3     1  UNL1       -0.3794
     36 O          26.5702   76.2923   -1.6257 O.3     1  UNL1       -0.3263
     37 H          28.4710   74.4634   -5.5601 H       1  UNL1        0.2105
     38 H          29.4617   77.0031   -2.7924 H       1  UNL1        0.2105
     39 C          24.1636   76.4860   -5.4511 C.2     1  UNL1        0.2231
     40 C          23.0575   76.0650   -6.3827 C.3     1  UNL1        0.0946
     41 N          24.9394   75.5555   -4.8609 N.am    1  UNL1       -0.2994
     42 O          24.3567   77.6636   -5.2315 O.2     1  UNL1       -0.2751
     43 H          24.7848   74.6139   -5.0354 H       1  UNL1        0.1496
     44 C          28.7404   75.8397   -0.6633 C.3     1  UNL1        0.1693
     45 O          30.0026   75.2711   -1.0180 O.3     1  UNL1       -0.3794
     46 H          30.7252   75.5141   -0.4231 H       1  UNL1        0.2105
@<TRIPOS>BOND
     1    29    30    1
     2    30    41    1
     3    30    31    1
     4    31    34    1
     5    31    32    1
     6    32    35    1
     7    32    33    1
     8    33    36    1
     9    33    44    1
    10    39    40    1
    11    39    42    2
    12    39    41   am
    13    41    43    1
    14    29    28    1
    15    34    37    1
    16    35    38    1
    17    29    36    1
    18    44    45    1
    19    45    46    1
    20    15     6    1
    21    15    16   ar
    22    16    21    2
    23    16    17   ar
    24    17    23    1
    25    17    18   ar
    26    18    19   ar
    27    19    20   ar
    28    15    20   ar
    29    18    22    2
    30     6     7    1
    31     6    11    1
    32     7     9    1
    33     7     8    1
    34     8    13    1
    35     9    10    1
    36     9    12    1
    37    10     5    1
    38    10    11    1
    39    12    14    1
    40     5     4    1
    41     4     1    1
    42     1     2    1
    43     1    24    1
    44     1     3    2
    45    24    25    1
    46    28    25    1
    47    25    26    1
    48    25    27    2
@<TRIPOS>MOLECULE
UD2
 46 48 0 0 0
SMALL
GASTEIGER

@<TRIPOS>ATOM
      1 P          22.2963   70.3838   -0.0819 P.3     1  UNL1        0.2189
      2 O          21.3928   70.8090    1.1808 O.3     1  UNL1       -0.4371
      3 O          23.2759   69.3565    0.3353 O.2     1  UNL1       -0.5170
      4 O          21.3513   69.7852   -1.2405 O.3     1  UNL1       -0.3112
      5 C          21.3127   70.3194   -2.5652 C.3     1  UNL1        0.1811
      6 C          18.5968   70.6608   -4.8984 C.3     1  UNL1        0.2383
      7 C          18.5175   69.1885   -4.4208 C.3     1  UNL1        0.1895
      8 O          17.1672   68.7210   -4.4307 O.3     1  UNL1       -0.3779
      9 C          19.0573   69.2866   -2.9729 C.3     1  UNL1        0.1713
     10 C          19.8606   70.6012   -2.9589 C.3     1  UNL1        0.1764
     11 O          19.8114   71.1468   -4.2868 O.3     1  UNL1       -0.3308
     12 O          17.9767   69.3504   -2.0408 O.3     1  UNL1       -0.3794
     13 H          17.0659   67.8045   -4.1404 H       1  UNL1        0.2106
     14 H          17.4027   68.5726   -2.0491 H       1  UNL1        0.2105
     15 N          18.6924   70.7250   -6.3584 N.ar    1  UNL1       -0.2551
     16 C          17.5724   70.6842   -7.1020 C.ar    1  UNL1        0.3323
     17 N          17.6305   70.7412   -8.4457 N.ar    1  UNL1       -0.2743
     18 C          18.8216   70.8426   -9.0699 C.ar    1  UNL1        0.2626
     19 C          20.0085   70.8875   -8.2995 C.ar    1  UNL1        0.0795
     20 C          19.9203   70.8328   -6.9539 C.ar    1  UNL1        0.0869
     21 O          16.4915   70.5931   -6.5527 O.2     1  UNL1       -0.2464
     22 O          18.8756   70.8947  -10.2860 O.2     1  UNL1       -0.2670
     23 H          16.8134   70.7094   -8.9668 H       1  UNL1        0.1734
     24 O          23.0783   71.6754   -0.6419 O.3     1  UNL1       -0.2703
     25 P          22.8442   73.2639   -0.5196 P.3     1  UNL1        0.2208
     26 O          21.3809   73.6349   -1.0807 O.3     1  UNL1       -0.4371
     27 O          22.9454   73.6699    0.8993 O.2     1  UNL1       -0.5170
     28 O          23.9622   74.0389   -1.3811 O.3     1  UNL1       -0.2865
     29 C          23.9706   75.4577   -1.5487 C.3     1  UNL1        0.2611
     30 C          24.1694   75.7965   -3.0280 C.3     1  UNL1        0.1582
     31 C          25.5315   75.2660   -3.4859 C.3     1  UNL1        0.1625
     32 C          26.6258   75.8682   -2.6003 C.3     1  UNL1        0.1686
     33 C          26.3322   75.5265   -1.1371 C.3     1  UNL1        0.1760
     34 O          25.7574   75.6420   -4.8463 O.3     1  UNL1       -0.3801
     35 O          26.6465   77.2873   -2.7650 O.3     1  UNL1       -0.3794
     36 O          25.0387   76.0209   -0.7844 O.3     1  UNL1       -0.3263
     37 H          26.6032   75.3377   -5.2029 H       1  UNL1        0.2105
     38 H          27.3172   77.7361   -2.2314 H       1  UNL1        0.2105
     39 C          23.2851   73.9328   -4.3250 C.2     1  UNL1        0.2231
     40 C          22.1946   73.2878   -5.1396 C.3     1  UNL1        0.0946
     41 N          23.1083   75.1699   -3.8205 N.am    1  UNL1       -0.2994
     42 O          24.3235   73.3388   -4.1228 O.2     1  UNL1       -0.2751
     43 H          22.2787   75.6456   -3.9827 H       1  UNL1        0.1496
     44 C          27.3885   76.1750   -0.2403 C.3     1  UNL1        0.1693
     45 O          28.5958   75.4125   -0.2970 O.3     1  UNL1       -0.3794
     46 H          29.3112   75.7663    0.2490 H       1  UNL1        0.2105
@<TRIPOS>BOND
     1    29    30    1
     2    30    41    1
     3    30    31    1
     4    31    34    1
     5    31    32    1
     6    32    35    1
     7    32    33    1
     8    33    36    1
     9    33    44    1
    10    39    40    1
    11    39    42    2
    12    39    41   am
    13    41    43    1
    14    29    28    1
    15    34    37    1
    16    35    38    1
    17    29    36    1
    18    44    45    1
    19    45    46    1
    20    15     6    1
    21    15    16   ar
    22    16    21    2
    23    16    17   ar
    24    17    23    1
    25    17    18   ar
    26    18    19   ar
    27    19    20   ar
    28    15    20   ar
    29    18    22    2
    30     6     7    1
    31     6    11    1
    32     7     9    1
    33     7     8    1
    34     8    13    1
    35     9    10    1
    36     9    12    1
    37    10     5    1
    38    10    11    1
    39    12    14    1
    40     5     4    1
    41     4     1    1
    42     1     2    1
    43     1    24    1
    44     1     3    2
    45    24    25    1
    46    28    25    1
    47    25    26    1
    48    25    27    2
@<TRIPOS>MOLECULE
UD2
 46 48 0 0 0
SMALL
GASTEIGER

@<TRIPOS>ATOM
      1 P          20.2376   74.6048   -2.8195 P.3     1  UNL1        0.2189
      2 O          18.7760   74.7127   -3.4854 O.3     1  UNL1       -0.4371
      3 O          20.8361   75.9542   -2.7205 O.2     1  UNL1       -0.5170
      4 O          20.1104   73.9647   -1.3472 O.3     1  UNL1       -0.3112
      5 C          20.3139   72.5752   -1.0836 C.3     1  UNL1        0.1811
      6 C          22.7816   72.3761    1.5254 C.3     1  UNL1        0.2383
      7 C          22.2862   70.9186    1.3455 C.3     1  UNL1        0.1895
      8 O          23.3268   69.9857    1.6434 O.3     1  UNL1       -0.3779
      9 C          21.9251   70.8812   -0.1597 C.3     1  UNL1        0.1713
     10 C          21.7273   72.3620   -0.5363 C.3     1  UNL1        0.1764
     11 O          21.9102   73.1358    0.6600 O.3     1  UNL1       -0.3308
     12 O          22.9949   70.3110   -0.9154 O.3     1  UNL1       -0.3794
     13 H          23.0653   69.0601    1.5460 H       1  UNL1        0.2106
     14 H          23.2018   69.3971   -0.6777 H       1  UNL1        0.2105
     15 N          22.6286   72.8048    2.9175 N.ar    1  UNL1       -0.2551
     16 C          21.4764   72.5613    3.5669 C.ar    1  UNL1        0.3323
     17 N          21.3080   72.9443    4.8465 N.ar    1  UNL1       -0.2743
     18 C          22.3008   73.5807    5.5007 C.ar    1  UNL1        0.2626
     19 C          23.5194   73.8425    4.8296 C.ar    1  UNL1        0.0795
     20 C          23.6622   73.4436    3.5482 C.ar    1  UNL1        0.0869
     21 O          20.5727   71.9882    2.9895 O.2     1  UNL1       -0.2464
     22 O          22.1498   73.9274    6.6589 O.2     1  UNL1       -0.2670
     23 H          20.4703   72.7619    5.2995 H       1  UNL1        0.1734
     24 O          21.1757   73.6669   -3.7325 O.3     1  UNL1       -0.2703
     25 P          21.2685   73.3801   -5.3143 P.3     1  UNL1        0.2208
     26 O          21.1763   74.7728   -6.1180 O.3     1  UNL1       -0.4371
     27 O          22.5554   72.7184   -5.6213 O.2     1  UNL1       -0.5170
     28 O          20.0527   72.4223   -5.7583 O.3     1  UNL1       -0.2865
     29 C          18.8282   72.9196   -6.3011 C.3     1  UNL1        0.2611
     30 C          17.6651   72.0479   -5.8215 C.3     1  UNL1        0.1582
     31 C          17.8592   70.6206   -6.3427 C.3     1  UNL1        0.1625
     32 C          17.9666   70.6564   -7.8696 C.3     1  UNL1        0.1686
     33 C          19.1185   71.5819   -8.2704 C.3     1  UNL1        0.1760
     34 O          16.7403   69.8170   -5.9612 O.3     1  UNL1       -0.3801
     35 O          16.7443   71.1471   -8.4230 O.3     1  UNL1       -0.3794
     36 O          18.8915   72.8845   -7.7284 O.3     1  UNL1       -0.3263
     37 H          16.7969   68.8984   -6.2581 H       1  UNL1        0.2105
     38 H          16.7414   71.1974   -9.3892 H       1  UNL1        0.2105
     39 C          16.4574   72.1067   -3.7059 C.2     1  UNL1        0.2231
     40 C          16.4258   72.0927   -2.2001 C.3     1  UNL1        0.0946
     41 N          17.6352   72.0346   -4.3568 N.am    1  UNL1       -0.2994
     42 O          15.4220   72.1829   -4.3339 O.2     1  UNL1       -0.2751
     43 H          18.4633   71.9746   -3.8551 H       1  UNL1        0.1496
     44 C          19.1946   71.6699   -9.7958 C.3     1  UNL1        0.1693
     45 O          18.7231   70.4483  -10.3683 O.3     1  UNL1       -0.3794
     46 H          18.7430   70.4328  -11.3349 H       1  UNL1        0.2105
@<TRIPOS>BOND
     1    29    30    1
     2    30    41    1
     3    30    31    1
     4    31    34    1
     5    31    32    1
     6    32    35    1
     7    32    33    1
     8    33    36    1
     9    33    44    1
    10    39    40    1
    11    39    42    2
    12    39    41   am
    13    41    43    1
    14    29    28    1
    15    34    37    1
    16    35    38    1
    17    29    36    1
    18    44    45    1
    19    45    46    1
    20    15     6    1
    21    15    16   ar
    22    16    21    2
    23    16    17   ar
    24    17    23    1
    25    17    18   ar
    26    18    19   ar
    27    19    20   ar
    28    15    20   ar
    29    18    22    2
    30     6     7    1
    31     6    11    1
    32     7     9    1
    33     7     8    1
    34     8    13    1
    35     9    10    1
    36     9    12    1
    37    10     5    1
    38    10    11    1
    39    12    14    1
    40     5     4    1
    41     4     1    1
    42     1     2    1
    43     1    24    1
    44     1     3    2
    45    24    25    1
    46    28    25    1
    47    25    26    1
    48    25    27    2
@<TRIPOS>MOLECULE
UD2
 46 48 0 0 0
SMALL
GASTEIGER

@<TRIPOS>ATOM
      1 P          23.0844   72.8199   -3.9398 P.3     1  UNL1        0.2189
      2 O          24.2873   73.8467   -3.6394 O.3     1  UNL1       -0.4371
      3 O          23.5217   71.4417   -3.6265 O.2     1  UNL1       -0.5170
      4 O          21.8136   73.2005   -3.0266 O.3     1  UNL1       -0.3112
      5 C          21.9369   73.7385   -1.7087 C.3     1  UNL1        0.1811
      6 C          22.9673   72.2442    1.3964 C.3     1  UNL1        0.2383
      7 C          21.8630   71.2999    0.8571 C.3     1  UNL1        0.1895
      8 O          22.1000   69.9517    1.2667 O.3     1  UNL1       -0.3779
      9 C          22.0277   71.4487   -0.6753 C.3     1  UNL1        0.1713
     10 C          22.7703   72.7878   -0.8459 C.3     1  UNL1        0.1764
     11 O          22.9497   73.3475    0.4648 O.3     1  UNL1       -0.3308
     12 O          22.8079   70.3732   -1.2000 O.3     1  UNL1       -0.3794
     13 H          21.4354   69.3228    0.9543 H       1  UNL1        0.2106
     14 H          22.4151   69.5000   -1.0671 H       1  UNL1        0.2105
     15 N          22.6382   72.7040    2.7475 N.ar    1  UNL1       -0.2551
     16 C          21.3940   72.5278    3.2268 C.ar    1  UNL1        0.3323
     17 N          21.0635   72.9406    4.4647 N.ar    1  UNL1       -0.2743
     18 C          21.9830   73.5397    5.2485 C.ar    1  UNL1        0.2626
     19 C          23.2968   73.7307    4.7571 C.ar    1  UNL1        0.0795
     20 C          23.6015   73.3031    3.5138 C.ar    1  UNL1        0.0869
     21 O          20.5547   71.9889    2.5312 O.2     1  UNL1       -0.2464
     22 O          21.6852   73.9134    6.3693 O.2     1  UNL1       -0.2670
     23 H          20.1615   72.8068    4.7943 H       1  UNL1        0.1734
     24 O          22.6745   72.9130   -5.4943 O.3     1  UNL1       -0.2703
     25 P          21.2728   73.0554   -6.2741 P.3     1  UNL1        0.2208
     26 O          20.8861   74.6136   -6.4016 O.3     1  UNL1       -0.4371
     27 O          21.3978   72.4666   -7.6254 O.2     1  UNL1       -0.5170
     28 O          20.1223   72.2818   -5.4554 O.3     1  UNL1       -0.2865
     29 C          19.4206   71.1522   -5.9779 C.3     1  UNL1        0.2611
     30 C          17.9367   71.4963   -6.1269 C.3     1  UNL1        0.1582
     31 C          17.3526   71.8084   -4.7457 C.3     1  UNL1        0.1625
     32 C          17.5803   70.6074   -3.8237 C.3     1  UNL1        0.1686
     33 C          19.0784   70.2975   -3.7634 C.3     1  UNL1        0.1760
     34 O          15.9505   72.0591   -4.8660 O.3     1  UNL1       -0.3801
     35 O          16.8776   69.4731   -4.3346 O.3     1  UNL1       -0.3794
     36 O          19.5648   70.0470   -5.0835 O.3     1  UNL1       -0.3263
     37 H          15.5148   72.2650   -4.0275 H       1  UNL1        0.2105
     38 H          16.9780   68.6735   -3.7992 H       1  UNL1        0.2105
     39 C          16.7797   72.7236   -7.8855 C.2     1  UNL1        0.2231
     40 C          16.6287   73.9265   -8.7794 C.3     1  UNL1        0.0946
     41 N          17.7906   72.6665   -6.9962 N.am    1  UNL1       -0.2994
     42 O          15.9910   71.8051   -7.9659 O.2     1  UNL1       -0.2751
     43 H          18.4220   73.4002   -6.9323 H       1  UNL1        0.1496
     44 C          19.3087   69.0617   -2.8915 C.3     1  UNL1        0.1693
     45 O          18.2826   68.1001   -3.1464 O.3     1  UNL1       -0.3794
     46 H          18.3654   67.2888   -2.6268 H       1  UNL1        0.2105
@<TRIPOS>BOND
     1    29    30    1
     2    30    41    1
     3    30    31    1
     4    31    34    1
     5    31    32    1
     6    32    35    1
     7    32    33    1
     8    33    36    1
     9    33    44    1
    10    39    40    1
    11    39    42    2
    12    39    41   am
    13    41    43    1
    14    29    28    1
    15    34    37    1
    16    35    38    1
    17    29    36    1
    18    44    45    1
    19    45    46    1
    20    15     6    1
    21    15    16   ar
    22    16    21    2
    23    16    17   ar
    24    17    23    1
    25    17    18   ar
    26    18    19   ar
    27    19    20   ar
    28    15    20   ar
    29    18    22    2
    30     6     7    1
    31     6    11    1
    32     7     9    1
    33     7     8    1
    34     8    13    1
    35     9    10    1
    36     9    12    1
    37    10     5    1
    38    10    11    1
    39    12    14    1
    40     5     4    1
    41     4     1    1
    42     1     2    1
    43     1    24    1
    44     1     3    2
    45    24    25    1
    46    28    25    1
    47    25    26    1
    48    25    27    2
