@<TRIPOS>MOLECULE
UD1
 46 48 0 0 0
SMALL
GASTEIGER

@<TRIPOS>ATOM
      1 P          20.5436   71.0221   -3.0341 P.3     1  UNL1        0.2189
      2 O          20.3748   72.4896   -3.1168 O.2     1  UNL1       -0.5170
      3 O          20.8738   70.4366   -4.4971 O.3     1  UNL1       -0.4371
      4 O          19.1841   70.3563   -2.4850 O.3     1  UNL1       -0.3112
      5 C          18.1934   71.3853   -2.4763 C.3     1  UNL1        0.1811
      6 C          16.8501   70.4853   -5.6876 C.3     1  UNL1        0.2383
      7 C          17.1168   69.1305   -4.9849 C.3     1  UNL1        0.1895
      8 O          16.1842   68.1388   -5.4160 O.3     1  UNL1       -0.3779
      9 C          16.8938   69.4884   -3.4925 C.3     1  UNL1        0.1713
     10 C          17.0675   71.0187   -3.4444 C.3     1  UNL1        0.1764
     11 O          17.4035   71.4549   -4.7726 O.3     1  UNL1       -0.3308
     12 O          15.5774   69.1147   -3.0797 O.3     1  UNL1       -0.3794
     13 H          16.4039   67.3236   -4.9441 H       1  UNL1        0.2106
     14 H          15.5119   68.1566   -3.1890 H       1  UNL1        0.2105
     15 N          17.5357   70.5443   -6.9791 N.ar    1  UNL1       -0.2551
     16 C          16.8189   70.5125   -8.1160 C.ar    1  UNL1        0.3323
     17 N          17.4227   70.5692   -9.3179 N.ar    1  UNL1       -0.2743
     18 C          18.7661   70.6502   -9.4003 C.ar    1  UNL1        0.2626
     19 C          19.5332   70.6785   -8.2114 C.ar    1  UNL1        0.0795
     20 C          18.9016   70.6256   -7.0191 C.ar    1  UNL1        0.0869
     21 O          15.6065   70.4397   -8.0581 O.2     1  UNL1       -0.2464
     22 O          19.3133   70.6967  -10.4865 O.2     1  UNL1       -0.2670
     23 H          16.8898   70.5499  -10.1277 H       1  UNL1        0.1734
     24 O          21.7533   70.6767   -2.0311 O.3     1  UNL1       -0.2703
     25 P          22.9734   71.6505   -2.4214 P.3     1  UNL1        0.2208
     26 O          22.5351   72.5921   -3.4751 O.2     1  UNL1       -0.5170
     27 O          24.2081   70.7729   -2.9668 O.3     1  UNL1       -0.4371
     28 O          23.4380   72.4783   -1.1217 O.3     1  UNL1       -0.2865
     29 C          22.5494   72.1192   -0.0621 C.3     1  UNL1        0.2611
     30 C          21.9682   73.3892    0.5619 C.3     1  UNL1        0.1582
     31 C          23.1151   74.2589    1.0888 C.3     1  UNL1        0.1625
     32 C          23.9832   73.4110    2.0246 C.3     1  UNL1        0.1686
     33 C          24.4150   72.1406    1.2891 C.3     1  UNL1        0.1760
     34 O          22.5806   75.3736    1.8052 O.3     1  UNL1       -0.3801
     35 O          25.1387   74.1572    2.4114 O.3     1  UNL1       -0.3794
     36 O          23.2641   71.3793    0.9254 O.3     1  UNL1       -0.3263
     37 H          23.3346   75.8924    2.1177 H       1  UNL1        0.2105
     38 H          25.6563   73.5873    2.9978 H       1  UNL1        0.2105
     39 C          19.9143   74.4189   -0.2477 C.2     1  UNL1        0.2231
     40 C          19.1388   75.1829   -1.2904 C.3     1  UNL1        0.0946
     41 N          21.2146   74.1318   -0.4505 N.am    1  UNL1       -0.2994
     42 O          19.3675   74.0619    0.7739 O.2     1  UNL1       -0.2751
     43 H          21.6524   74.4172   -1.2681 H       1  UNL1        0.1496
     44 C          25.3095   71.3020    2.2043 C.3     1  UNL1        0.1693
     45 O          24.9584   69.9224    2.0804 O.3     1  UNL1       -0.3794
     46 H          25.5438   69.4304    2.6719 H       1  UNL1        0.2105
@<TRIPOS>BOND
     1    29    30    1
     2    29    28    1
     3    29    36    1
     4    30    31    1
     5    30    41    1
     6    31    32    1
     7    31    34    1
     8    32    33    1
     9    32    35    1
    10    33    44    1
    11    33    36    1
    12    44    45    1
    13    39    40    1
    14    39    41   am
    15    39    42    2
    16    41    43    1
    17    28    25    1
    18    34    37    1
    19    35    38    1
    20    45    46    1
    21    15    16   ar
    22    15    20   ar
    23    15     6    1
    24    16    17   ar
    25    16    21    2
    26    17    18   ar
    27    17    23    1
    28    18    19   ar
    29    18    22    2
    30    19    20   ar
    31     6     7    1
    32     6    11    1
    33     7     8    1
    34     7     9    1
    35     8    13    1
    36     9    10    1
    37     9    12    1
    38    10    11    1
    39    10     5    1
    40    12    14    1
    41     5     4    1
    42     4     1    1
    43     1     2    2
    44     1     3    1
    45     1    24    1
    46    24    25    1
    47    25    26    2
    48    25    27    1
@<TRIPOS>MOLECULE
UD1
 46 48 0 0 0
SMALL
GASTEIGER

@<TRIPOS>ATOM
      1 P          20.8998   71.3676   -2.1336 P.3     1  UNL1        0.2189
      2 O          20.5629   72.8042   -2.0267 O.2     1  UNL1       -0.5170
      3 O          22.4101   71.2088   -2.6687 O.3     1  UNL1       -0.4371
      4 O          19.8886   70.6552   -3.1646 O.3     1  UNL1       -0.3112
      5 C          18.6927   70.3666   -2.4387 C.3     1  UNL1        0.1811
      6 C          17.0513   70.4462   -5.6366 C.3     1  UNL1        0.2383
      7 C          16.8958   68.9814   -5.1568 C.3     1  UNL1        0.1895
      8 O          15.6873   68.4060   -5.6546 O.3     1  UNL1       -0.3779
      9 C          16.8357   69.1479   -3.6161 C.3     1  UNL1        0.1713
     10 C          17.4839   70.5227   -3.3627 C.3     1  UNL1        0.1764
     11 O          17.9055   71.0403   -4.6361 O.3     1  UNL1       -0.3308
     12 O          15.4799   69.1359   -3.1641 O.3     1  UNL1       -0.3794
     13 H          15.6512   67.4985   -5.3220 H       1  UNL1        0.2106
     14 H          15.1130   68.2746   -3.4042 H       1  UNL1        0.2105
     15 N          17.6867   70.4967   -6.9538 N.ar    1  UNL1       -0.2551
     16 C          16.9255   70.4805   -8.0619 C.ar    1  UNL1        0.3323
     17 N          17.4827   70.5299   -9.2863 N.ar    1  UNL1       -0.2743
     18 C          18.8230   70.5874   -9.4211 C.ar    1  UNL1        0.2626
     19 C          19.6365   70.5990   -8.2631 C.ar    1  UNL1        0.0795
     20 C          19.0512   70.5540   -7.0471 C.ar    1  UNL1        0.0869
     21 O          15.7152   70.4289   -7.9566 O.2     1  UNL1       -0.2464
     22 O          19.3281   70.6273  -10.5278 O.2     1  UNL1       -0.2670
     23 H          16.9182   70.5222  -10.0747 H       1  UNL1        0.1734
     24 O          20.7664   70.6759   -0.6871 O.3     1  UNL1       -0.2703
     25 P          21.7733   71.4563    0.2960 P.3     1  UNL1        0.2208
     26 O          23.0538   70.7197    0.3764 O.2     1  UNL1       -0.5170
     27 O          21.1202   71.5575    1.7642 O.3     1  UNL1       -0.4371
     28 O          22.0412   72.9375   -0.2738 O.3     1  UNL1       -0.2865
     29 C          23.3247   73.3407    0.2069 C.3     1  UNL1        0.2611
     30 C          23.1904   74.6699    0.9519 C.3     1  UNL1        0.1582
     31 C          22.6144   75.7229   -0.0015 C.3     1  UNL1        0.1625
     32 C          23.4818   75.7678   -1.2639 C.3     1  UNL1        0.1686
     33 C          23.5917   74.3560   -1.8436 C.3     1  UNL1        0.1760
     34 O          22.6236   77.0018    0.6356 O.3     1  UNL1       -0.3801
     35 O          22.8803   76.6357   -2.2265 O.3     1  UNL1       -0.3794
     36 O          24.2171   73.4927   -0.8949 O.3     1  UNL1       -0.3263
     37 H          22.2537   77.6321    0.0022 H       1  UNL1        0.2105
     38 H          23.4570   76.6341   -3.0036 H       1  UNL1        0.2105
     39 C          22.8005   74.3362    3.3333 C.2     1  UNL1        0.2231
     40 C          21.8762   74.1623    4.5113 C.3     1  UNL1        0.0946
     41 N          22.2929   74.5014    2.0967 N.am    1  UNL1       -0.2994
     42 O          24.0017   74.3269    3.4986 O.2     1  UNL1       -0.2751
     43 H          21.3316   74.5086    1.9641 H       1  UNL1        0.1496
     44 C          24.4295   74.3952   -3.1233 C.3     1  UNL1        0.1693
     45 O          24.3618   73.1260   -3.7765 O.3     1  UNL1       -0.3794
     46 H          24.9018   73.1935   -4.5755 H       1  UNL1        0.2105
@<TRIPOS>BOND
     1    29    30    1
     2    29    28    1
     3    29    36    1
     4    30    31    1
     5    30    41    1
     6    31    32    1
     7    31    34    1
     8    32    33    1
     9    32    35    1
    10    33    44    1
    11    33    36    1
    12    44    45    1
    13    39    40    1
    14    39    41   am
    15    39    42    2
    16    41    43    1
    17    28    25    1
    18    34    37    1
    19    35    38    1
    20    45    46    1
    21    15    16   ar
    22    15    20   ar
    23    15     6    1
    24    16    17   ar
    25    16    21    2
    26    17    18   ar
    27    17    23    1
    28    18    19   ar
    29    18    22    2
    30    19    20   ar
    31     6     7    1
    32     6    11    1
    33     7     8    1
    34     7     9    1
    35     8    13    1
    36     9    10    1
    37     9    12    1
    38    10    11    1
    39    10     5    1
    40    12    14    1
    41     5     4    1
    42     4     1    1
    43     1     2    2
    44     1     3    1
    45     1    24    1
    46    24    25    1
    47    25    26    2
    48    25    27    1
@<TRIPOS>MOLECULE
UD1
 46 48 0 0 0
SMALL
GASTEIGER

@<TRIPOS>ATOM
      1 P          20.9372   71.4251   -1.9821 P.3     1  UNL1        0.2189
      2 O          20.3918   72.7925   -1.8357 O.2     1  UNL1       -0.5170
      3 O          22.4638   71.5074   -2.4875 O.3     1  UNL1       -0.4371
      4 O          20.0597   70.6104   -3.0587 O.3     1  UNL1       -0.3112
      5 C          18.8766   70.1774   -2.3856 C.3     1  UNL1        0.1811
      6 C          17.1818   70.4210   -5.5473 C.3     1  UNL1        0.2383
      7 C          16.9546   68.9562   -5.0969 C.3     1  UNL1        0.1895
      8 O          15.7069   68.4597   -5.5828 O.3     1  UNL1       -0.3779
      9 C          16.9330   69.0901   -3.5520 C.3     1  UNL1        0.1713
     10 C          17.6610   70.4210   -3.2814 C.3     1  UNL1        0.1764
     11 O          18.0864   70.9439   -4.5513 O.3     1  UNL1       -0.3308
     12 O          15.5873   69.1421   -3.0730 O.3     1  UNL1       -0.3794
     13 H          15.6270   67.5481   -5.2696 H       1  UNL1        0.2106
     14 H          15.1689   68.3080   -3.3247 H       1  UNL1        0.2105
     15 N          17.7941   70.4670   -6.8756 N.ar    1  UNL1       -0.2551
     16 C          17.0135   70.4498   -7.9700 C.ar    1  UNL1        0.3323
     17 N          17.5492   70.4950   -9.2042 N.ar    1  UNL1       -0.2743
     18 C          18.8870   70.5494   -9.3627 C.ar    1  UNL1        0.2626
     19 C          19.7208   70.5620   -8.2192 C.ar    1  UNL1        0.0795
     20 C          19.1569   70.5212   -6.9930 C.ar    1  UNL1        0.0869
     21 O          15.8051   70.4010   -7.8433 O.2     1  UNL1       -0.2464
     22 O          19.3726   70.5855  -10.4782 O.2     1  UNL1       -0.2670
     23 H          16.9709   70.4866   -9.9825 H       1  UNL1        0.1734
     24 O          20.8809   70.6700   -0.5624 O.3     1  UNL1       -0.2703
     25 P          21.5630   71.6525    0.5141 P.3     1  UNL1        0.2208
     26 O          21.9541   70.8765    1.7115 O.2     1  UNL1       -0.5170
     27 O          20.5135   72.7979    0.9370 O.3     1  UNL1       -0.4371
     28 O          22.8689   72.3356   -0.1328 O.3     1  UNL1       -0.2865
     29 C          23.2417   73.4138    0.7272 C.3     1  UNL1        0.2611
     30 C          23.6473   72.8543    2.0919 C.3     1  UNL1        0.1582
     31 C          22.4688   72.0728    2.6836 C.3     1  UNL1        0.1625
     32 C          21.2339   72.9800    2.6917 C.3     1  UNL1        0.1686
     33 C          21.0085   73.5276    1.2809 C.3     1  UNL1        0.1760
     34 O          22.7819   71.6726    4.0190 O.3     1  UNL1       -0.3801
     35 O          20.0907   72.2273    3.1020 O.3     1  UNL1       -0.3794
     36 O          22.1371   74.3029    0.8787 O.3     1  UNL1       -0.3263
     37 H          22.0155   71.1854    4.3516 H       1  UNL1        0.2105
     38 H          19.3375   72.8349    3.0923 H       1  UNL1        0.2105
     39 C          25.9509   72.2274    2.5764 C.2     1  UNL1        0.2231
     40 C          27.1348   71.3088    2.4125 C.3     1  UNL1        0.0946
     41 N          24.7975   71.9620    1.9334 N.am    1  UNL1       -0.2994
     42 O          26.0368   73.2062    3.2869 O.2     1  UNL1       -0.2751
     43 H          24.7286   71.1789    1.3645 H       1  UNL1        0.1496
     44 C          19.7580   74.4093    1.2711 C.3     1  UNL1        0.1693
     45 O          19.7954   75.2770    0.1363 O.3     1  UNL1       -0.3794
     46 H          18.9920   75.8139    0.1680 H       1  UNL1        0.2105
@<TRIPOS>BOND
     1    29    30    1
     2    29    28    1
     3    29    36    1
     4    30    31    1
     5    30    41    1
     6    31    32    1
     7    31    34    1
     8    32    33    1
     9    32    35    1
    10    33    44    1
    11    33    36    1
    12    44    45    1
    13    39    40    1
    14    39    41   am
    15    39    42    2
    16    41    43    1
    17    28    25    1
    18    34    37    1
    19    35    38    1
    20    45    46    1
    21    15    16   ar
    22    15    20   ar
    23    15     6    1
    24    16    17   ar
    25    16    21    2
    26    17    18   ar
    27    17    23    1
    28    18    19   ar
    29    18    22    2
    30    19    20   ar
    31     6     7    1
    32     6    11    1
    33     7     8    1
    34     7     9    1
    35     8    13    1
    36     9    10    1
    37     9    12    1
    38    10    11    1
    39    10     5    1
    40    12    14    1
    41     5     4    1
    42     4     1    1
    43     1     2    2
    44     1     3    1
    45     1    24    1
    46    24    25    1
    47    25    26    2
    48    25    27    1
@<TRIPOS>MOLECULE
UD1
 46 48 0 0 0
SMALL
GASTEIGER

@<TRIPOS>ATOM
      1 P          21.7729   71.1803   -0.0285 P.3     1  UNL1        0.2189
      2 O          21.5643   70.2231    1.0802 O.2     1  UNL1       -0.5170
      3 O          23.3234   71.1692   -0.4625 O.3     1  UNL1       -0.4371
      4 O          21.3630   72.6600    0.4565 O.3     1  UNL1       -0.3112
      5 C          21.0229   72.5626    1.8404 C.3     1  UNL1        0.1811
      6 C          24.0975   73.8899    3.1490 C.3     1  UNL1        0.2383
      7 C          23.8742   74.6616    1.8244 C.3     1  UNL1        0.1895
      8 O          24.4208   75.9786    1.9017 O.3     1  UNL1       -0.3779
      9 C          22.3268   74.7092    1.7320 C.3     1  UNL1        0.1713
     10 C          21.8618   73.5575    2.6440 C.3     1  UNL1        0.1764
     11 O          23.0403   72.9071    3.1495 O.3     1  UNL1       -0.3308
     12 O          21.8355   75.9636    2.2094 O.3     1  UNL1       -0.3794
     13 H          24.2498   76.4034    1.0497 H       1  UNL1        0.2106
     14 H          22.2083   76.6462    1.6357 H       1  UNL1        0.2105
     15 N          25.4078   73.2384    3.1561 N.ar    1  UNL1       -0.2551
     16 C          26.4474   73.8393    3.7607 C.ar    1  UNL1        0.3323
     17 N          27.6630   73.2614    3.7862 N.ar    1  UNL1       -0.2743
     18 C          27.8599   72.0666    3.1932 C.ar    1  UNL1        0.2626
     19 C          26.7756   71.4257    2.5479 C.ar    1  UNL1        0.0795
     20 C          25.5656   72.0252    2.5420 C.ar    1  UNL1        0.0869
     21 O          26.2856   74.9171    4.3000 O.2     1  UNL1       -0.2464
     22 O          28.9596   71.5455    3.2114 O.2     1  UNL1       -0.2670
     23 H          28.4005   73.7069    4.2310 H       1  UNL1        0.1734
     24 O          20.8603   70.7551   -1.2835 O.3     1  UNL1       -0.2703
     25 P          21.4445   71.5301   -2.5670 P.3     1  UNL1        0.2208
     26 O          22.6508   70.8292   -3.0594 O.2     1  UNL1       -0.5170
     27 O          21.8316   73.0374   -2.1543 O.3     1  UNL1       -0.4371
     28 O          20.3311   71.5624   -3.7287 O.3     1  UNL1       -0.2865
     29 C          20.4340   70.3254   -4.4360 C.3     1  UNL1        0.2611
     30 C          20.0732   70.5522   -5.9052 C.3     1  UNL1        0.1582
     31 C          18.6471   71.1076   -5.9911 C.3     1  UNL1        0.1625
     32 C          17.7083   70.1681   -5.2266 C.3     1  UNL1        0.1686
     33 C          18.2461   69.9728   -3.8074 C.3     1  UNL1        0.1760
     34 O          18.2441   71.1828   -7.3598 O.3     1  UNL1       -0.3801
     35 O          16.4010   70.7418   -5.1690 O.3     1  UNL1       -0.3794
     36 O          19.5406   69.3746   -3.8605 O.3     1  UNL1       -0.3263
     37 H          17.3440   71.5365   -7.3670 H       1  UNL1        0.2105
     38 H          15.8439   70.1198   -4.6799 H       1  UNL1        0.2105
     39 C          20.6958   72.8193   -6.5431 C.2     1  UNL1        0.2231
     40 C          21.6595   73.8049   -7.1532 C.3     1  UNL1        0.0946
     41 N          21.0092   71.5101   -6.4974 N.am    1  UNL1       -0.2994
     42 O          19.6377   73.2048   -6.0937 O.2     1  UNL1       -0.2751
     43 H          21.8558   71.2013   -6.8571 H       1  UNL1        0.1496
     44 C          17.2980   69.0617   -3.0251 C.3     1  UNL1        0.1693
     45 O          17.8325   67.7369   -2.9877 O.3     1  UNL1       -0.3794
     46 H          17.2063   67.1965   -2.4873 H       1  UNL1        0.2105
@<TRIPOS>BOND
     1    29    30    1
     2    29    28    1
     3    29    36    1
     4    30    31    1
     5    30    41    1
     6    31    32    1
     7    31    34    1
     8    32    33    1
     9    32    35    1
    10    33    44    1
    11    33    36    1
    12    44    45    1
    13    39    40    1
    14    39    41   am
    15    39    42    2
    16    41    43    1
    17    28    25    1
    18    34    37    1
    19    35    38    1
    20    45    46    1
    21    15    16   ar
    22    15    20   ar
    23    15     6    1
    24    16    17   ar
    25    16    21    2
    26    17    18   ar
    27    17    23    1
    28    18    19   ar
    29    18    22    2
    30    19    20   ar
    31     6     7    1
    32     6    11    1
    33     7     8    1
    34     7     9    1
    35     8    13    1
    36     9    10    1
    37     9    12    1
    38    10    11    1
    39    10     5    1
    40    12    14    1
    41     5     4    1
    42     4     1    1
    43     1     2    2
    44     1     3    1
    45     1    24    1
    46    24    25    1
    47    25    26    2
    48    25    27    1
@<TRIPOS>MOLECULE
UD1
 46 48 0 0 0
SMALL
GASTEIGER

@<TRIPOS>ATOM
      1 P          20.5253   71.0412   -1.7250 P.3     1  UNL1        0.2189
      2 O          20.6498   70.6194   -0.3125 O.2     1  UNL1       -0.5170
      3 O          20.5450   72.6491   -1.8087 O.3     1  UNL1       -0.4371
      4 O          19.1379   70.4904   -2.3287 O.3     1  UNL1       -0.3112
      5 C          18.2647   71.6142   -2.4514 C.3     1  UNL1        0.1811
      6 C          16.8441   70.6879   -5.6217 C.3     1  UNL1        0.2383
      7 C          17.0728   69.3413   -4.8905 C.3     1  UNL1        0.1895
      8 O          16.0995   68.3737   -5.2851 O.3     1  UNL1       -0.3779
      9 C          16.8842   69.7417   -3.4042 C.3     1  UNL1        0.1713
     10 C          17.1127   71.2656   -3.3951 C.3     1  UNL1        0.1764
     11 O          17.4446   71.6583   -4.7378 O.3     1  UNL1       -0.3308
     12 O          15.5615   69.4251   -2.9647 O.3     1  UNL1       -0.3794
     13 H          16.2971   67.5625   -4.7969 H       1  UNL1        0.2106
     14 H          15.4606   68.4677   -3.0502 H       1  UNL1        0.2105
     15 N          17.5126   70.6922   -6.9235 N.ar    1  UNL1       -0.2551
     16 C          16.7978   70.4709   -8.0403 C.ar    1  UNL1        0.3323
     17 N          17.3857   70.4730   -9.2514 N.ar    1  UNL1       -0.2743
     18 C          18.7118   70.6895   -9.3625 C.ar    1  UNL1        0.2626
     19 C          19.4774   70.9179   -8.1943 C.ar    1  UNL1        0.0795
     20 C          18.8614   70.9157   -6.9928 C.ar    1  UNL1        0.0869
     21 O          15.6008   70.2742   -7.9564 O.2     1  UNL1       -0.2464
     22 O          19.2452   70.6869  -10.4565 O.2     1  UNL1       -0.2670
     23 H          16.8539   70.3163  -10.0468 H       1  UNL1        0.1734
     24 O          21.7545   70.4436   -2.5739 O.3     1  UNL1       -0.2703
     25 P          23.0040   71.4302   -2.3404 P.3     1  UNL1        0.2208
     26 O          24.2045   70.8702   -2.9992 O.2     1  UNL1       -0.5170
     27 O          23.2809   71.5823   -0.7617 O.3     1  UNL1       -0.4371
     28 O          22.6729   72.8752   -2.9673 O.3     1  UNL1       -0.2865
     29 C          23.8423   73.3003   -3.6694 C.3     1  UNL1        0.2611
     30 C          23.9082   74.8285   -3.6620 C.3     1  UNL1        0.1582
     31 C          22.6451   75.3879   -4.3262 C.3     1  UNL1        0.1625
     32 C          22.4951   74.7484   -5.7106 C.3     1  UNL1        0.1686
     33 C          22.5327   73.2259   -5.5630 C.3     1  UNL1        0.1760
     34 O          22.7622   76.8056   -4.4601 O.3     1  UNL1       -0.3801
     35 O          21.2487   75.1434   -6.2870 O.3     1  UNL1       -0.3794
     36 O          23.7872   72.8257   -5.0129 O.3     1  UNL1       -0.3263
     37 H          21.9482   77.1147   -4.8809 H       1  UNL1        0.2105
     38 H          21.1949   74.7189   -7.1550 H       1  UNL1        0.2105
     39 C          25.0268   76.0767   -1.8942 C.2     1  UNL1        0.2231
     40 C          25.1109   76.5703   -0.4724 C.3     1  UNL1        0.0946
     41 N          23.9901   75.3087   -2.2810 N.am    1  UNL1       -0.2994
     42 O          25.8931   76.3703   -2.6901 O.2     1  UNL1       -0.2751
     43 H          23.2968   75.0734   -1.6442 H       1  UNL1        0.1496
     44 C          22.3510   72.5769   -6.9366 C.3     1  UNL1        0.1693
     45 O          23.1426   73.2732   -7.9013 O.3     1  UNL1       -0.3794
     46 H          22.9994   72.8338   -8.7505 H       1  UNL1        0.2105
@<TRIPOS>BOND
     1    29    30    1
     2    29    28    1
     3    29    36    1
     4    30    31    1
     5    30    41    1
     6    31    32    1
     7    31    34    1
     8    32    33    1
     9    32    35    1
    10    33    44    1
    11    33    36    1
    12    44    45    1
    13    39    40    1
    14    39    41   am
    15    39    42    2
    16    41    43    1
    17    28    25    1
    18    34    37    1
    19    35    38    1
    20    45    46    1
    21    15    16   ar
    22    15    20   ar
    23    15     6    1
    24    16    17   ar
    25    16    21    2
    26    17    18   ar
    27    17    23    1
    28    18    19   ar
    29    18    22    2
    30    19    20   ar
    31     6     7    1
    32     6    11    1
    33     7     8    1
    34     7     9    1
    35     8    13    1
    36     9    10    1
    37     9    12    1
    38    10    11    1
    39    10     5    1
    40    12    14    1
    41     5     4    1
    42     4     1    1
    43     1     2    2
    44     1     3    1
    45     1    24    1
    46    24    25    1
    47    25    26    2
    48    25    27    1
@<TRIPOS>MOLECULE
UD1
 46 48 0 0 0
SMALL
GASTEIGER

@<TRIPOS>ATOM
      1 P          20.7815   71.7281   -1.8802 P.3     1  UNL1        0.2189
      2 O          21.2640   73.1149   -1.6999 O.2     1  UNL1       -0.5170
      3 O          21.9882   70.8049   -2.4132 O.3     1  UNL1       -0.4371
      4 O          19.5813   71.7133   -2.9536 O.3     1  UNL1       -0.3112
      5 C          18.6553   70.7135   -2.5255 C.3     1  UNL1        0.1811
      6 C          17.0011   70.4707   -5.7085 C.3     1  UNL1        0.2383
      7 C          16.9611   69.0303   -5.1394 C.3     1  UNL1        0.1895
      8 O          15.7989   68.3343   -5.5912 O.3     1  UNL1       -0.3779
      9 C          16.8939   69.2858   -3.6112 C.3     1  UNL1        0.1713
     10 C          17.4348   70.7193   -3.4471 C.3     1  UNL1        0.1764
     11 O          17.8105   71.1889   -4.7531 O.3     1  UNL1       -0.3308
     12 O          15.5447   69.1972   -3.1479 O.3     1  UNL1       -0.3794
     13 H          15.8344   67.4488   -5.2038 H       1  UNL1        0.2106
     14 H          15.2447   68.2971   -3.3323 H       1  UNL1        0.2105
     15 N          17.6260   70.4892   -7.0316 N.ar    1  UNL1       -0.2551
     16 C          16.8553   70.4652   -8.1329 C.ar    1  UNL1        0.3323
     17 N          17.4027   70.4853   -9.3626 N.ar    1  UNL1       -0.2743
     18 C          18.7425   70.5209   -9.5094 C.ar    1  UNL1        0.2626
     19 C          19.5659   70.5405   -8.3585 C.ar    1  UNL1        0.0795
     20 C          18.9903   70.5250   -7.1371 C.ar    1  UNL1        0.0869
     21 O          15.6453   70.4331   -8.0168 O.2     1  UNL1       -0.2464
     22 O          19.2387   70.5343  -10.6207 O.2     1  UNL1       -0.2670
     23 H          16.8315   70.4723  -10.1460 H       1  UNL1        0.1734
     24 O          20.2494   71.1577   -0.4729 O.3     1  UNL1       -0.2703
     25 P          21.4534   71.3250    0.5816 P.3     1  UNL1        0.2208
     26 O          22.5727   72.0500   -0.0589 O.2     1  UNL1       -0.5170
     27 O          21.9580   69.8716    1.0560 O.3     1  UNL1       -0.4371
     28 O          20.9374   72.1560    1.8598 O.3     1  UNL1       -0.2865
     29 C          21.7038   73.3608    1.9078 C.3     1  UNL1        0.2611
     30 C          22.6762   73.2941    3.0868 C.3     1  UNL1        0.1582
     31 C          21.8801   73.1071    4.3832 C.3     1  UNL1        0.1625
     32 C          20.8221   74.2120    4.4724 C.3     1  UNL1        0.1686
     33 C          19.9875   74.2074    3.1900 C.3     1  UNL1        0.1760
     34 O          22.7626   73.1930    5.5036 O.3     1  UNL1       -0.3801
     35 O          19.9741   73.9721    5.5971 O.3     1  UNL1       -0.3794
     36 O          20.8271   74.4740    2.0673 O.3     1  UNL1       -0.3263
     37 H          22.2213   73.0698    6.2956 H       1  UNL1        0.2105
     38 H          19.3240   74.6887    5.6152 H       1  UNL1        0.2105
     39 C          24.8615   72.3807    2.5169 C.2     1  UNL1        0.2231
     40 C          25.8015   71.2173    2.3294 C.3     1  UNL1        0.0946
     41 N          23.5899   72.1643    2.9049 N.am    1  UNL1       -0.2994
     42 O          25.2497   73.5120    2.3179 O.2     1  UNL1       -0.2751
     43 H          23.2789   71.2590    3.0640 H       1  UNL1        0.1496
     44 C          18.9066   75.2864    3.2826 C.3     1  UNL1        0.1693
     45 O          17.7124   74.7196    3.8256 O.3     1  UNL1       -0.3794
     46 H          17.0587   75.4307    3.8666 H       1  UNL1        0.2105
@<TRIPOS>BOND
     1    29    30    1
     2    29    28    1
     3    29    36    1
     4    30    31    1
     5    30    41    1
     6    31    32    1
     7    31    34    1
     8    32    33    1
     9    32    35    1
    10    33    44    1
    11    33    36    1
    12    44    45    1
    13    39    40    1
    14    39    41   am
    15    39    42    2
    16    41    43    1
    17    28    25    1
    18    34    37    1
    19    35    38    1
    20    45    46    1
    21    15    16   ar
    22    15    20   ar
    23    15     6    1
    24    16    17   ar
    25    16    21    2
    26    17    18   ar
    27    17    23    1
    28    18    19   ar
    29    18    22    2
    30    19    20   ar
    31     6     7    1
    32     6    11    1
    33     7     8    1
    34     7     9    1
    35     8    13    1
    36     9    10    1
    37     9    12    1
    38    10    11    1
    39    10     5    1
    40    12    14    1
    41     5     4    1
    42     4     1    1
    43     1     2    2
    44     1     3    1
    45     1    24    1
    46    24    25    1
    47    25    26    2
    48    25    27    1
@<TRIPOS>MOLECULE
UD1
 46 48 0 0 0
SMALL
GASTEIGER

@<TRIPOS>ATOM
      1 P          21.1020   70.9943   -3.7359 P.3     1  UNL1        0.2189
      2 O          21.5451   71.6436   -4.9892 O.2     1  UNL1       -0.5170
      3 O          20.6470   69.4814   -4.0470 O.3     1  UNL1       -0.4371
      4 O          19.8590   71.8113   -3.1192 O.3     1  UNL1       -0.3112
      5 C          18.9295   70.8435   -2.6296 C.3     1  UNL1        0.1811
      6 C          17.1523   70.5545   -5.7417 C.3     1  UNL1        0.2383
      7 C          17.1060   69.1299   -5.1345 C.3     1  UNL1        0.1895
      8 O          15.9145   68.4464   -5.5248 O.3     1  UNL1       -0.3779
      9 C          17.1013   69.4249   -3.6120 C.3     1  UNL1        0.1713
     10 C          17.6755   70.8509   -3.5051 C.3     1  UNL1        0.1764
     11 O          18.0107   71.2799   -4.8358 O.3     1  UNL1       -0.3308
     12 O          15.7690   69.3752   -3.0968 O.3     1  UNL1       -0.3794
     13 H          15.9475   67.5704   -5.1162 H       1  UNL1        0.2106
     14 H          15.4451   68.4770   -3.2466 H       1  UNL1        0.2105
     15 N          17.7272   70.5272   -7.0871 N.ar    1  UNL1       -0.2551
     16 C          16.9174   70.4306   -8.1559 C.ar    1  UNL1        0.3323
     17 N          17.4183   70.4073   -9.4052 N.ar    1  UNL1       -0.2743
     18 C          18.7502   70.4717   -9.6046 C.ar    1  UNL1        0.2626
     19 C          19.6145   70.5677   -8.4881 C.ar    1  UNL1        0.0795
     20 C          19.0851   70.5945   -7.2462 C.ar    1  UNL1        0.0869
     21 O          15.7139   70.3717   -7.9923 O.2     1  UNL1       -0.2464
     22 O          19.2044   70.4459  -10.7335 O.2     1  UNL1       -0.2670
     23 H          16.8191   70.3420  -10.1648 H       1  UNL1        0.1734
     24 O          22.3148   70.9843   -2.6786 O.3     1  UNL1       -0.2703
     25 P          23.0852   72.3876   -2.8417 P.3     1  UNL1        0.2208
     26 O          22.1144   73.4441   -3.2023 O.2     1  UNL1       -0.5170
     27 O          24.1941   72.2601   -4.0020 O.3     1  UNL1       -0.4371
     28 O          23.8045   72.7708   -1.4538 O.3     1  UNL1       -0.2865
     29 C          22.9786   73.7455   -0.8142 C.3     1  UNL1        0.2611
     30 C          23.8645   74.7680   -0.1003 C.3     1  UNL1        0.1582
     31 C          24.7397   74.0419    0.9275 C.3     1  UNL1        0.1625
     32 C          23.8339   73.2118    1.8433 C.3     1  UNL1        0.1686
     33 C          22.9524   72.3043    0.9827 C.3     1  UNL1        0.1760
     34 O          25.4618   75.0000    1.7035 O.3     1  UNL1       -0.3801
     35 O          24.6375   72.4135    2.7142 O.3     1  UNL1       -0.3794
     36 O          22.1285   73.0995    0.1310 O.3     1  UNL1       -0.3263
     37 H          25.9979   74.5010    2.3351 H       1  UNL1        0.2105
     38 H          24.0289   71.9078    3.2712 H       1  UNL1        0.2105
     39 C          24.8639   76.7838   -1.0341 C.2     1  UNL1        0.2231
     40 C          25.7413   77.4810   -2.0422 C.3     1  UNL1        0.0946
     41 N          24.7171   75.4456   -1.0792 N.am    1  UNL1       -0.2994
     42 O          24.2894   77.4277   -0.1823 O.2     1  UNL1       -0.2751
     43 H          25.1766   74.9301   -1.7609 H       1  UNL1        0.1496
     44 C          22.0665   71.4473    1.8893 C.3     1  UNL1        0.1693
     45 O          21.6240   70.2938    1.1711 O.3     1  UNL1       -0.3794
     46 H          21.0702   69.7826    1.7765 H       1  UNL1        0.2105
@<TRIPOS>BOND
     1    29    30    1
     2    29    28    1
     3    29    36    1
     4    30    31    1
     5    30    41    1
     6    31    32    1
     7    31    34    1
     8    32    33    1
     9    32    35    1
    10    33    44    1
    11    33    36    1
    12    44    45    1
    13    39    40    1
    14    39    41   am
    15    39    42    2
    16    41    43    1
    17    28    25    1
    18    34    37    1
    19    35    38    1
    20    45    46    1
    21    15    16   ar
    22    15    20   ar
    23    15     6    1
    24    16    17   ar
    25    16    21    2
    26    17    18   ar
    27    17    23    1
    28    18    19   ar
    29    18    22    2
    30    19    20   ar
    31     6     7    1
    32     6    11    1
    33     7     8    1
    34     7     9    1
    35     8    13    1
    36     9    10    1
    37     9    12    1
    38    10    11    1
    39    10     5    1
    40    12    14    1
    41     5     4    1
    42     4     1    1
    43     1     2    2
    44     1     3    1
    45     1    24    1
    46    24    25    1
    47    25    26    2
    48    25    27    1
@<TRIPOS>MOLECULE
UD1
 46 48 0 0 0
SMALL
GASTEIGER

@<TRIPOS>ATOM
      1 P          23.3425   71.8429   -3.0882 P.3     1  UNL1        0.2189
      2 O          24.2313   70.6645   -2.9879 O.2     1  UNL1       -0.5170
      3 O          24.1550   73.0747   -3.7324 O.3     1  UNL1       -0.4371
      4 O          22.8264   72.2517   -1.6187 O.3     1  UNL1       -0.3112
      5 C          23.8845   71.9471   -0.7088 C.3     1  UNL1        0.1811
      6 C          22.9694   71.9028    2.7679 C.3     1  UNL1        0.2383
      7 C          21.6888   72.3757    2.0355 C.3     1  UNL1        0.1895
      8 O          20.5161   71.9608    2.7368 O.3     1  UNL1       -0.3779
      9 C          21.8054   71.6462    0.6719 C.3     1  UNL1        0.1713
     10 C          23.3044   71.3093    0.5545 C.3     1  UNL1        0.1764
     11 O          23.9577   71.8461    1.7174 O.3     1  UNL1       -0.3308
     12 O          21.0167   70.4542    0.6732 O.3     1  UNL1       -0.3794
     13 H          19.7579   72.2855    2.2316 H       1  UNL1        0.2106
     14 H          20.0994   70.7263    0.8095 H       1  UNL1        0.2105
     15 N          23.3646   72.8653    3.7969 N.ar    1  UNL1       -0.2551
     16 C          24.3359   73.7577    3.5367 C.ar    1  UNL1        0.3323
     17 N          24.7171   74.6572    4.4630 N.ar    1  UNL1       -0.2743
     18 C          24.1325   74.6708    5.6779 C.ar    1  UNL1        0.2626
     19 C          23.1128   73.7330    5.9672 C.ar    1  UNL1        0.0795
     20 C          22.7462   72.8454    5.0180 C.ar    1  UNL1        0.0869
     21 O          24.8726   73.7580    2.4456 O.2     1  UNL1       -0.2464
     22 O          24.4796   75.4804    6.5177 O.2     1  UNL1       -0.2670
     23 H          25.4161   75.2967    4.2565 H       1  UNL1        0.1734
     24 O          22.0803   71.4855   -4.0199 O.3     1  UNL1       -0.2703
     25 P          20.7810   72.1042   -3.2998 P.3     1  UNL1        0.2208
     26 O          21.1122   73.4342   -2.7428 O.2     1  UNL1       -0.5170
     27 O          20.3096   71.1272   -2.1101 O.3     1  UNL1       -0.4371
     28 O          19.5910   72.2532   -4.3732 O.3     1  UNL1       -0.2865
     29 C          19.7964   71.2434   -5.3627 C.3     1  UNL1        0.2611
     30 C          19.3994   71.7921   -6.7343 C.3     1  UNL1        0.1582
     31 C          17.9283   72.2208   -6.6960 C.3     1  UNL1        0.1625
     32 C          17.0868   71.0413   -6.1972 C.3     1  UNL1        0.1686
     33 C          17.6565   70.5512   -4.8643 C.3     1  UNL1        0.1760
     34 O          17.5042   72.5948   -8.0082 O.3     1  UNL1       -0.3801
     35 O          15.7339   71.4630   -6.0141 O.3     1  UNL1       -0.3794
     36 O          18.9989   70.1036   -5.0492 O.3     1  UNL1       -0.3263
     37 H          16.5759   72.8569   -7.9377 H       1  UNL1        0.2105
     38 H          15.2408   70.6920   -5.6996 H       1  UNL1        0.2105
     39 C          19.8548   74.1849   -6.6957 C.2     1  UNL1        0.2231
     40 C          20.7187   75.3731   -7.0334 C.3     1  UNL1        0.0946
     41 N          20.2385   72.9467   -7.0616 N.am    1  UNL1       -0.2994
     42 O          18.8135   74.3435   -6.0951 O.2     1  UNL1       -0.2751
     43 H          21.0717   72.8195   -7.5425 H       1  UNL1        0.1496
     44 C          16.8034   69.3937   -4.3413 C.3     1  UNL1        0.1693
     45 O          16.0702   68.8151   -5.4228 O.3     1  UNL1       -0.3794
     46 H          15.5471   68.0920   -5.0511 H       1  UNL1        0.2105
@<TRIPOS>BOND
     1    29    30    1
     2    29    28    1
     3    29    36    1
     4    30    31    1
     5    30    41    1
     6    31    32    1
     7    31    34    1
     8    32    33    1
     9    32    35    1
    10    33    44    1
    11    33    36    1
    12    44    45    1
    13    39    40    1
    14    39    41   am
    15    39    42    2
    16    41    43    1
    17    28    25    1
    18    34    37    1
    19    35    38    1
    20    45    46    1
    21    15    16   ar
    22    15    20   ar
    23    15     6    1
    24    16    17   ar
    25    16    21    2
    26    17    18   ar
    27    17    23    1
    28    18    19   ar
    29    18    22    2
    30    19    20   ar
    31     6     7    1
    32     6    11    1
    33     7     8    1
    34     7     9    1
    35     8    13    1
    36     9    10    1
    37     9    12    1
    38    10    11    1
    39    10     5    1
    40    12    14    1
    41     5     4    1
    42     4     1    1
    43     1     2    2
    44     1     3    1
    45     1    24    1
    46    24    25    1
    47    25    26    2
    48    25    27    1
@<TRIPOS>MOLECULE
UD1
 46 48 0 0 0
SMALL
GASTEIGER

@<TRIPOS>ATOM
      1 P          16.3868   69.6775   -2.6364 P.3     1  UNL1        0.2189
      2 O          15.8193   69.1455   -3.8949 O.2     1  UNL1       -0.5170
      3 O          17.2784   68.5401   -1.9267 O.3     1  UNL1       -0.4371
      4 O          15.1903   70.1130   -1.6507 O.3     1  UNL1       -0.3112
      5 C          14.9746   69.0218   -0.7545 C.3     1  UNL1        0.1811
      6 C          12.1306   67.9596    1.1718 C.3     1  UNL1        0.2383
      7 C          12.4120   69.4031    1.6588 C.3     1  UNL1        0.1895
      8 O          11.2055   70.0493    2.0664 O.3     1  UNL1       -0.3779
      9 C          12.9932   70.0692    0.3845 C.3     1  UNL1        0.1713
     10 C          13.4782   68.8823   -0.4702 C.3     1  UNL1        0.1764
     11 O          13.2334   67.6822    0.2828 O.3     1  UNL1       -0.3308
     12 O          11.9792   70.8067   -0.3015 O.3     1  UNL1       -0.3794
     13 H          11.4488   70.9392    2.3572 H       1  UNL1        0.2106
     14 H          11.6756   71.4949    0.3054 H       1  UNL1        0.2105
     15 N          12.1263   67.0235    2.2966 N.ar    1  UNL1       -0.2551
     16 C          13.2907   66.5538    2.7770 C.ar    1  UNL1        0.3323
     17 N          13.3170   65.6948    3.8132 N.ar    1  UNL1       -0.2743
     18 C          12.1668   65.2824    4.3832 C.ar    1  UNL1        0.2626
     19 C          10.9336   65.7643    3.8835 C.ar    1  UNL1        0.0795
     20 C          10.9364   66.6293    2.8466 C.ar    1  UNL1        0.0869
     21 O          14.3365   66.9165    2.2735 O.2     1  UNL1       -0.2464
     22 O          12.1892   64.5021    5.3170 O.2     1  UNL1       -0.2670
     23 H          14.1662   65.3698    4.1499 H       1  UNL1        0.1734
     24 O          17.3067   70.9570   -2.9613 O.3     1  UNL1       -0.2703
     25 P          18.7985   70.4064   -3.2081 P.3     1  UNL1        0.2208
     26 O          18.7331   69.0336   -3.7558 O.2     1  UNL1       -0.5170
     27 O          19.6026   70.3892   -1.8134 O.3     1  UNL1       -0.4371
     28 O          19.5597   71.3652   -4.2530 O.3     1  UNL1       -0.2865
     29 C          20.7064   70.6483   -4.7138 C.3     1  UNL1        0.2611
     30 C          21.9512   71.5199   -4.5379 C.3     1  UNL1        0.1582
     31 C          21.7700   72.8186   -5.3316 C.3     1  UNL1        0.1625
     32 C          21.4226   72.4629   -6.7810 C.3     1  UNL1        0.1686
     33 C          20.2156   71.5225   -6.7878 C.3     1  UNL1        0.1760
     34 O          22.9825   73.5736   -5.2977 O.3     1  UNL1       -0.3801
     35 O          21.1059   73.6546   -7.5029 O.3     1  UNL1       -0.3794
     36 O          20.5378   70.3195   -6.0911 O.3     1  UNL1       -0.3263
     37 H          22.8239   74.3800   -5.8075 H       1  UNL1        0.2105
     38 H          20.8931   73.3853   -8.4077 H       1  UNL1        0.2105
     39 C          23.2533   71.4435   -2.4805 C.2     1  UNL1        0.2231
     40 C          23.4400   71.7660   -1.0199 C.3     1  UNL1        0.0946
     41 N          22.1333   71.8333   -3.1191 N.am    1  UNL1       -0.2994
     42 O          24.1113   70.8324   -3.0809 O.2     1  UNL1       -0.2751
     43 H          21.4464   72.3222   -2.6387 H       1  UNL1        0.1496
     44 C          19.8403   71.1868   -8.2327 C.3     1  UNL1        0.1693
     45 O          18.6913   70.3373   -8.2417 O.3     1  UNL1       -0.3794
     46 H          18.4890   70.1500   -9.1684 H       1  UNL1        0.2105
@<TRIPOS>BOND
     1    29    30    1
     2    29    28    1
     3    29    36    1
     4    30    31    1
     5    30    41    1
     6    31    32    1
     7    31    34    1
     8    32    33    1
     9    32    35    1
    10    33    44    1
    11    33    36    1
    12    44    45    1
    13    39    40    1
    14    39    41   am
    15    39    42    2
    16    41    43    1
    17    28    25    1
    18    34    37    1
    19    35    38    1
    20    45    46    1
    21    15    16   ar
    22    15    20   ar
    23    15     6    1
    24    16    17   ar
    25    16    21    2
    26    17    18   ar
    27    17    23    1
    28    18    19   ar
    29    18    22    2
    30    19    20   ar
    31     6     7    1
    32     6    11    1
    33     7     8    1
    34     7     9    1
    35     8    13    1
    36     9    10    1
    37     9    12    1
    38    10    11    1
    39    10     5    1
    40    12    14    1
    41     5     4    1
    42     4     1    1
    43     1     2    2
    44     1     3    1
    45     1    24    1
    46    24    25    1
    47    25    26    2
    48    25    27    1
@<TRIPOS>MOLECULE
UD1
 46 48 0 0 0
SMALL
GASTEIGER

@<TRIPOS>ATOM
      1 P          21.0681   71.0972   -2.2925 P.3     1  UNL1        0.2189
      2 O          20.9487   72.5699   -2.3688 O.2     1  UNL1       -0.5170
      3 O          22.4653   70.6374   -2.9475 O.3     1  UNL1       -0.4371
      4 O          19.8500   70.4182   -3.0975 O.3     1  UNL1       -0.3112
      5 C          18.6698   70.6356   -2.3228 C.3     1  UNL1        0.1811
      6 C          17.0247   70.5061   -5.5173 C.3     1  UNL1        0.2383
      7 C          16.9593   69.0516   -4.9877 C.3     1  UNL1        0.1895
      8 O          15.7880   68.3870   -5.4626 O.3     1  UNL1       -0.3779
      9 C          16.8900   69.2665   -3.4534 C.3     1  UNL1        0.1713
     10 C          17.4532   70.6861   -3.2484 C.3     1  UNL1        0.1764
     11 O          17.8416   71.1848   -4.5397 O.3     1  UNL1       -0.3308
     12 O          15.5377   69.1871   -2.9976 O.3     1  UNL1       -0.3794
     13 H          15.8077   67.4908   -5.0993 H       1  UNL1        0.2106
     14 H          15.2241   68.2973   -3.2075 H       1  UNL1        0.2105
     15 N          17.6552   70.5505   -6.8371 N.ar    1  UNL1       -0.2551
     16 C          16.8949   70.4596   -7.9421 C.ar    1  UNL1        0.3323
     17 N          17.4473   70.5015   -9.1690 N.ar    1  UNL1       -0.2743
     18 C          18.7824   70.6270   -9.3091 C.ar    1  UNL1        0.2626
     19 C          19.5953   70.7177   -8.1541 C.ar    1  UNL1        0.0795
     20 C          19.0145   70.6783   -6.9357 C.ar    1  UNL1        0.0869
     21 O          15.6892   70.3462   -7.8321 O.2     1  UNL1       -0.2464
     22 O          19.2835   70.6601  -10.4178 O.2     1  UNL1       -0.2670
     23 H          16.8832   70.4394   -9.9552 H       1  UNL1        0.1734
     24 O          21.0179   70.6337   -0.7526 O.3     1  UNL1       -0.2703
     25 P          22.2956   71.2904   -0.0276 P.3     1  UNL1        0.2208
     26 O          23.3614   71.5274   -1.0259 O.2     1  UNL1       -0.5170
     27 O          22.8403   70.2906    1.1108 O.3     1  UNL1       -0.4371
     28 O          21.8716   72.6890    0.6467 O.3     1  UNL1       -0.2865
     29 C          20.7158   72.4304    1.4458 C.3     1  UNL1        0.2611
     30 C          19.8873   73.7108    1.5650 C.3     1  UNL1        0.1582
     31 C          20.7492   74.8082    2.1993 C.3     1  UNL1        0.1625
     32 C          21.3248   74.2790    3.5172 C.3     1  UNL1        0.1686
     33 C          22.0476   72.9571    3.2501 C.3     1  UNL1        0.1760
     34 O          19.9452   75.9617    2.4531 O.3     1  UNL1       -0.3801
     35 O          22.2473   75.2302    4.0519 O.3     1  UNL1       -0.3794
     36 O          21.1231   71.9963    2.7416 O.3     1  UNL1       -0.3263
     37 H          20.5259   76.6251    2.8506 H       1  UNL1        0.2105
     38 H          22.5855   74.8577    4.8785 H       1  UNL1        0.2105
     39 C          20.1502   75.0727   -0.4376 C.2     1  UNL1        0.2231
     40 C          19.7003   75.5121   -1.8076 C.3     1  UNL1        0.0946
     41 N          19.4510   74.1376    0.2339 N.am    1  UNL1       -0.2994
     42 O          21.1417   75.5615    0.0607 O.2     1  UNL1       -0.2751
     43 H          18.6574   73.7464   -0.1645 H       1  UNL1        0.1496
     44 C          22.6542   72.4363    4.5547 C.3     1  UNL1        0.1693
     45 O          21.8936   72.9235    5.6620 O.3     1  UNL1       -0.3794
     46 H          22.3084   72.5734    6.4620 H       1  UNL1        0.2105
@<TRIPOS>BOND
     1    29    30    1
     2    29    28    1
     3    29    36    1
     4    30    31    1
     5    30    41    1
     6    31    32    1
     7    31    34    1
     8    32    33    1
     9    32    35    1
    10    33    44    1
    11    33    36    1
    12    44    45    1
    13    39    40    1
    14    39    41   am
    15    39    42    2
    16    41    43    1
    17    28    25    1
    18    34    37    1
    19    35    38    1
    20    45    46    1
    21    15    16   ar
    22    15    20   ar
    23    15     6    1
    24    16    17   ar
    25    16    21    2
    26    17    18   ar
    27    17    23    1
    28    18    19   ar
    29    18    22    2
    30    19    20   ar
    31     6     7    1
    32     6    11    1
    33     7     8    1
    34     7     9    1
    35     8    13    1
    36     9    10    1
    37     9    12    1
    38    10    11    1
    39    10     5    1
    40    12    14    1
    41     5     4    1
    42     4     1    1
    43     1     2    2
    44     1     3    1
    45     1    24    1
    46    24    25    1
    47    25    26    2
    48    25    27    1
@<TRIPOS>MOLECULE
UD1
 46 48 0 0 0
SMALL
GASTEIGER

@<TRIPOS>ATOM
      1 P          21.7592   72.3354   -6.2584 P.3     1  UNL1        0.2189
      2 O          20.7617   73.3712   -6.6061 O.2     1  UNL1       -0.5170
      3 O          23.2285   72.8426   -6.6786 O.3     1  UNL1       -0.4371
      4 O          21.4163   70.9745   -7.0479 O.3     1  UNL1       -0.3112
      5 C          20.5610   71.3309   -8.1350 C.3     1  UNL1        0.1811
      6 C          17.4186   70.0832   -6.9121 C.3     1  UNL1        0.2383
      7 C          17.0291   71.1366   -7.9792 C.3     1  UNL1        0.1895
      8 O          15.7966   70.7913   -8.6123 O.3     1  UNL1       -0.3779
      9 C          18.2109   71.0397   -8.9789 C.3     1  UNL1        0.1713
     10 C          19.3464   70.4017   -8.1555 C.3     1  UNL1        0.1764
     11 O          18.8532   70.2121   -6.8183 O.3     1  UNL1       -0.3308
     12 O          17.8610   70.2093  -10.0882 O.3     1  UNL1       -0.3794
     13 H          15.6116   71.4837   -9.2618 H       1  UNL1        0.2106
     14 H          17.1093   70.6303  -10.5261 H       1  UNL1        0.2105
     15 N          16.7879   70.3877   -5.6272 N.ar    1  UNL1       -0.2551
     16 C          16.3783   69.3844   -4.8316 C.ar    1  UNL1        0.3323
     17 N          15.7986   69.6350   -3.6427 N.ar    1  UNL1       -0.2743
     18 C          15.6103   70.9057   -3.2330 C.ar    1  UNL1        0.2626
     19 C          16.0313   71.9716   -4.0634 C.ar    1  UNL1        0.0795
     20 C          16.6148   71.6917   -5.2486 C.ar    1  UNL1        0.0869
     21 O          16.5413   68.2331   -5.1872 O.2     1  UNL1       -0.2464
     22 O          15.0820   71.1335   -2.1605 O.2     1  UNL1       -0.2670
     23 H          15.5136   68.8990   -3.0795 H       1  UNL1        0.1734
     24 O          21.7180   72.0611   -4.6735 O.3     1  UNL1       -0.2703
     25 P          22.6898   73.1454   -3.9887 P.3     1  UNL1        0.2208
     26 O          22.5479   74.4436   -4.6839 O.2     1  UNL1       -0.5170
     27 O          24.2158   72.6436   -4.0970 O.3     1  UNL1       -0.4371
     28 O          22.2928   73.3206   -2.4388 O.3     1  UNL1       -0.2865
     29 C          23.1623   72.4699   -1.6894 C.3     1  UNL1        0.2611
     30 C          22.3256   71.5620   -0.7863 C.3     1  UNL1        0.1582
     31 C          21.4785   72.4303    0.1507 C.3     1  UNL1        0.1625
     32 C          22.4041   73.4063    0.8849 C.3     1  UNL1        0.1686
     33 C          23.2328   74.1773   -0.1447 C.3     1  UNL1        0.1760
     34 O          20.8066   71.5980    1.0979 O.3     1  UNL1       -0.3801
     35 O          21.6208   74.3221    1.6526 O.3     1  UNL1       -0.3794
     36 O          24.0370   73.2680   -0.8949 O.3     1  UNL1       -0.3263
     37 H          20.2868   72.1838    1.6654 H       1  UNL1        0.2105
     38 H          22.2414   74.9172    2.0965 H       1  UNL1        0.2105
     39 C          20.1708   71.0984   -1.8236 C.2     1  UNL1        0.2231
     40 C          19.2673   70.2385   -2.6701 C.3     1  UNL1        0.0946
     41 N          21.4477   70.7273   -1.6090 N.am    1  UNL1       -0.2994
     42 O          19.7480   72.1244   -1.3349 O.2     1  UNL1       -0.2751
     43 H          21.7862   69.9062   -1.9997 H       1  UNL1        0.1496
     44 C          24.1376   75.1782    0.5770 C.3     1  UNL1        0.1693
     45 O          23.4178   76.3907    0.8085 O.3     1  UNL1       -0.3794
     46 H          24.0223   76.9925    1.2635 H       1  UNL1        0.2105
@<TRIPOS>BOND
     1    29    30    1
     2    29    28    1
     3    29    36    1
     4    30    31    1
     5    30    41    1
     6    31    32    1
     7    31    34    1
     8    32    33    1
     9    32    35    1
    10    33    44    1
    11    33    36    1
    12    44    45    1
    13    39    40    1
    14    39    41   am
    15    39    42    2
    16    41    43    1
    17    28    25    1
    18    34    37    1
    19    35    38    1
    20    45    46    1
    21    15    16   ar
    22    15    20   ar
    23    15     6    1
    24    16    17   ar
    25    16    21    2
    26    17    18   ar
    27    17    23    1
    28    18    19   ar
    29    18    22    2
    30    19    20   ar
    31     6     7    1
    32     6    11    1
    33     7     8    1
    34     7     9    1
    35     8    13    1
    36     9    10    1
    37     9    12    1
    38    10    11    1
    39    10     5    1
    40    12    14    1
    41     5     4    1
    42     4     1    1
    43     1     2    2
    44     1     3    1
    45     1    24    1
    46    24    25    1
    47    25    26    2
    48    25    27    1
@<TRIPOS>MOLECULE
UD1
 46 48 0 0 0
SMALL
GASTEIGER

@<TRIPOS>ATOM
      1 P          16.1624   69.4656   -2.3976 P.3     1  UNL1        0.2189
      2 O          15.9799   69.3882   -3.8637 O.2     1  UNL1       -0.5170
      3 O          16.8507   68.1090   -1.8700 O.3     1  UNL1       -0.4371
      4 O          14.7287   69.6499   -1.6879 O.3     1  UNL1       -0.3112
      5 C          14.8714   69.1934   -0.3420 C.3     1  UNL1        0.1811
      6 C          12.7272   67.4528    1.9602 C.3     1  UNL1        0.2383
      7 C          12.0695   68.8457    1.7945 C.3     1  UNL1        0.1895
      8 O          10.6518   68.7627    1.9446 O.3     1  UNL1       -0.3779
      9 C          12.4511   69.2148    0.3373 C.3     1  UNL1        0.1713
     10 C          13.6705   68.3234    0.0325 C.3     1  UNL1        0.1764
     11 O          13.9628   67.5732    1.2237 O.3     1  UNL1       -0.3308
     12 O          11.3723   68.9193   -0.5525 O.3     1  UNL1       -0.3794
     13 H          10.3052   69.6585    1.8312 H       1  UNL1        0.2106
     14 H          10.6234   69.4629   -0.2736 H       1  UNL1        0.2105
     15 N          12.9928   67.1683    3.3709 N.ar    1  UNL1       -0.2551
     16 C          12.9262   65.9027    3.8193 C.ar    1  UNL1        0.3323
     17 N          13.1695   65.6113    5.1109 N.ar    1  UNL1       -0.2743
     18 C          13.4769   66.5928    5.9827 C.ar    1  UNL1        0.2626
     19 C          13.5446   67.9304    5.5252 C.ar    1  UNL1        0.0795
     20 C          13.3011   68.1939    4.2234 C.ar    1  UNL1        0.0869
     21 O          12.6503   65.0065    3.0452 O.2     1  UNL1       -0.2464
     22 O          13.6924   66.3311    7.1516 O.2     1  UNL1       -0.2670
     23 H          13.1218   64.6922    5.4161 H       1  UNL1        0.1734
     24 O          17.1035   70.7205   -2.0394 O.3     1  UNL1       -0.2703
     25 P          18.4965   70.4924   -2.8119 P.3     1  UNL1        0.2208
     26 O          18.6128   69.0722   -3.2101 O.2     1  UNL1       -0.5170
     27 O          19.7200   70.8781   -1.8391 O.3     1  UNL1       -0.4371
     28 O          18.5424   71.4230   -4.1243 O.3     1  UNL1       -0.2865
     29 C          19.3143   70.7232   -5.1019 C.3     1  UNL1        0.2611
     30 C          20.2539   71.7065   -5.8020 C.3     1  UNL1        0.1582
     31 C          19.4218   72.8128   -6.4602 C.3     1  UNL1        0.1625
     32 C          18.3683   72.1623   -7.3631 C.3     1  UNL1        0.1686
     33 C          17.5688   71.1467   -6.5443 C.3     1  UNL1        0.1760
     34 O          20.2740   73.6525   -7.2412 O.3     1  UNL1       -0.3801
     35 O          17.4887   73.1669   -7.8716 O.3     1  UNL1       -0.3794
     36 O          18.4402   70.1267   -6.0577 O.3     1  UNL1       -0.3263
     37 H          19.7108   74.3326   -7.6356 H       1  UNL1        0.2105
     38 H          16.8426   72.7150   -8.4327 H       1  UNL1        0.2105
     39 C          22.4545   72.5172   -5.1427 C.2     1  UNL1        0.2231
     40 C          23.3926   73.1244   -4.1310 C.3     1  UNL1        0.0946
     41 N          21.1655   72.2968   -4.8197 N.am    1  UNL1       -0.2994
     42 O          22.8602   72.2262   -6.2476 O.2     1  UNL1       -0.2751
     43 H          20.8406   72.5294   -3.9355 H       1  UNL1        0.1496
     44 C          16.4922   70.5146   -7.4288 C.3     1  UNL1        0.1693
     45 O          16.9218   70.5359   -8.7916 O.3     1  UNL1       -0.3794
     46 H          16.2166   70.1300   -9.3137 H       1  UNL1        0.2105
@<TRIPOS>BOND
     1    29    30    1
     2    29    28    1
     3    29    36    1
     4    30    31    1
     5    30    41    1
     6    31    32    1
     7    31    34    1
     8    32    33    1
     9    32    35    1
    10    33    44    1
    11    33    36    1
    12    44    45    1
    13    39    40    1
    14    39    41   am
    15    39    42    2
    16    41    43    1
    17    28    25    1
    18    34    37    1
    19    35    38    1
    20    45    46    1
    21    15    16   ar
    22    15    20   ar
    23    15     6    1
    24    16    17   ar
    25    16    21    2
    26    17    18   ar
    27    17    23    1
    28    18    19   ar
    29    18    22    2
    30    19    20   ar
    31     6     7    1
    32     6    11    1
    33     7     8    1
    34     7     9    1
    35     8    13    1
    36     9    10    1
    37     9    12    1
    38    10    11    1
    39    10     5    1
    40    12    14    1
    41     5     4    1
    42     4     1    1
    43     1     2    2
    44     1     3    1
    45     1    24    1
    46    24    25    1
    47    25    26    2
    48    25    27    1
@<TRIPOS>MOLECULE
UD1
 46 48 0 0 0
SMALL
GASTEIGER

@<TRIPOS>ATOM
      1 P          22.0818   71.2576   -0.0910 P.3     1  UNL1        0.2189
      2 O          21.4992   70.2404    0.8116 O.2     1  UNL1       -0.5170
      3 O          23.6194   70.8884   -0.3944 O.3     1  UNL1       -0.4371
      4 O          22.0070   72.7042    0.6123 O.3     1  UNL1       -0.3112
      5 C          23.0703   72.7568    1.5647 C.3     1  UNL1        0.1811
      6 C          22.7283   73.3505    5.0942 C.3     1  UNL1        0.2383
      7 C          21.5644   74.1463    4.4522 C.3     1  UNL1        0.1895
      8 O          20.4420   74.2103    5.3327 O.3     1  UNL1       -0.3779
      9 C          21.2374   73.2918    3.2000 C.3     1  UNL1        0.1713
     10 C          22.5192   72.4702    2.9623 C.3     1  UNL1        0.1764
     11 O          23.4769   72.8707    3.9571 O.3     1  UNL1       -0.3308
     12 O          20.1250   72.4321    3.4575 O.3     1  UNL1       -0.3794
     13 H          19.7561   74.7166    4.8760 H       1  UNL1        0.2106
     14 H          19.3712   73.0031    3.6571 H       1  UNL1        0.2105
     15 N          23.5571   74.2231    5.9268 N.ar    1  UNL1       -0.2551
     16 C          23.1758   74.5015    7.1855 C.ar    1  UNL1        0.3323
     17 N          23.9205   75.2979    7.9752 N.ar    1  UNL1       -0.2743
     18 C          25.0638   75.8396    7.5091 C.ar    1  UNL1        0.2626
     19 C          25.4739   75.5596    6.1839 C.ar    1  UNL1        0.0795
     20 C          24.7107   74.7533    5.4152 C.ar    1  UNL1        0.0869
     21 O          22.1472   74.0204    7.6203 O.2     1  UNL1       -0.2464
     22 O          25.7354   76.5636    8.2207 O.2     1  UNL1       -0.2670
     23 H          23.6327   75.4842    8.8822 H       1  UNL1        0.1734
     24 O          21.2540   71.2883   -1.4704 O.3     1  UNL1       -0.2703
     25 P          22.2037   71.9847   -2.5670 P.3     1  UNL1        0.2208
     26 O          23.2316   71.0190   -3.0137 O.2     1  UNL1       -0.5170
     27 O          22.9226   73.2701   -1.9166 O.3     1  UNL1       -0.4371
     28 O          21.3183   72.4480   -3.8288 O.3     1  UNL1       -0.2865
     29 C          21.7778   71.6985   -4.9550 C.3     1  UNL1        0.2611
     30 C          22.1306   72.6597   -6.0914 C.3     1  UNL1        0.1582
     31 C          20.8888   73.4803   -6.4576 C.3     1  UNL1        0.1625
     32 C          19.7344   72.5169   -6.7533 C.3     1  UNL1        0.1686
     33 C          19.5603   71.5683   -5.5654 C.3     1  UNL1        0.1760
     34 O          21.1629   74.2736   -7.6139 O.3     1  UNL1       -0.3801
     35 O          18.5307   73.2604   -6.9533 O.3     1  UNL1       -0.3794
     36 O          20.7514   70.8044   -5.3798 O.3     1  UNL1       -0.3263
     37 H          20.3572   74.7721   -7.8081 H       1  UNL1        0.2105
     38 H          17.8314   72.6167   -7.1353 H       1  UNL1        0.2105
     39 C          22.9024   74.7669   -5.1437 C.2     1  UNL1        0.2231
     40 C          24.0059   75.6921   -4.6980 C.3     1  UNL1        0.0946
     41 N          23.2022   73.5586   -5.6578 N.am    1  UNL1       -0.2994
     42 O          21.7443   75.1106   -5.0401 O.2     1  UNL1       -0.2751
     43 H          24.1290   73.2835   -5.7411 H       1  UNL1        0.1496
     44 C          18.3884   70.6227   -5.8369 C.3     1  UNL1        0.1693
     45 O          18.3018   70.3613   -7.2391 O.3     1  UNL1       -0.3794
     46 H          17.5526   69.7636   -7.3665 H       1  UNL1        0.2105
@<TRIPOS>BOND
     1    29    30    1
     2    29    28    1
     3    29    36    1
     4    30    31    1
     5    30    41    1
     6    31    32    1
     7    31    34    1
     8    32    33    1
     9    32    35    1
    10    33    44    1
    11    33    36    1
    12    44    45    1
    13    39    40    1
    14    39    41   am
    15    39    42    2
    16    41    43    1
    17    28    25    1
    18    34    37    1
    19    35    38    1
    20    45    46    1
    21    15    16   ar
    22    15    20   ar
    23    15     6    1
    24    16    17   ar
    25    16    21    2
    26    17    18   ar
    27    17    23    1
    28    18    19   ar
    29    18    22    2
    30    19    20   ar
    31     6     7    1
    32     6    11    1
    33     7     8    1
    34     7     9    1
    35     8    13    1
    36     9    10    1
    37     9    12    1
    38    10    11    1
    39    10     5    1
    40    12    14    1
    41     5     4    1
    42     4     1    1
    43     1     2    2
    44     1     3    1
    45     1    24    1
    46    24    25    1
    47    25    26    2
    48    25    27    1
@<TRIPOS>MOLECULE
UD1
 46 48 0 0 0
SMALL
GASTEIGER

@<TRIPOS>ATOM
      1 P          21.1164   71.2572   -0.8308 P.3     1  UNL1        0.2189
      2 O          21.9949   70.7075   -1.8866 O.2     1  UNL1       -0.5170
      3 O          21.1852   70.3117    0.4707 O.3     1  UNL1       -0.4371
      4 O          19.6007   71.3153   -1.3711 O.3     1  UNL1       -0.3112
      5 C          19.5209   70.4156   -2.4776 C.3     1  UNL1        0.1811
      6 C          17.4535   70.5649   -5.4154 C.3     1  UNL1        0.2383
      7 C          17.2703   69.1209   -4.8849 C.3     1  UNL1        0.1895
      8 O          15.9682   68.6236   -5.1953 O.3     1  UNL1       -0.3779
      9 C          17.4395   69.3121   -3.3552 C.3     1  UNL1        0.1713
     10 C          18.2069   70.6422   -3.2267 C.3     1  UNL1        0.1764
     11 O          18.4779   71.1121   -4.5583 O.3     1  UNL1       -0.3308
     12 O          16.1633   69.3997   -2.7177 O.3     1  UNL1       -0.3794
     13 H          15.9193   67.7253   -4.8400 H       1  UNL1        0.2106
     14 H          15.7099   68.5626   -2.8842 H       1  UNL1        0.2105
     15 N          17.8986   70.5536   -6.8094 N.ar    1  UNL1       -0.2551
     16 C          16.9891   70.5229   -7.7990 C.ar    1  UNL1        0.3323
     17 N          17.3698   70.5158   -9.0902 N.ar    1  UNL1       -0.2743
     18 C          18.6789   70.5302   -9.4128 C.ar    1  UNL1        0.2626
     19 C          19.6470   70.5565   -8.3808 C.ar    1  UNL1        0.0795
     20 C          19.2374   70.5685   -7.0942 C.ar    1  UNL1        0.0869
     21 O          15.8047   70.5097   -7.5240 O.2     1  UNL1       -0.2464
     22 O          19.0242   70.5189  -10.5798 O.2     1  UNL1       -0.2670
     23 H          16.7001   70.4983   -9.7912 H       1  UNL1        0.1734
     24 O          21.6054   72.7405   -0.4442 O.3     1  UNL1       -0.2703
     25 P          20.9426   73.0923    0.9793 P.3     1  UNL1        0.2208
     26 O          20.3982   71.8587    1.5881 O.2     1  UNL1       -0.5170
     27 O          19.7528   74.1566    0.7697 O.3     1  UNL1       -0.4371
     28 O          22.0595   73.7227    1.9517 O.3     1  UNL1       -0.2865
     29 C          22.2012   72.8270    3.0557 C.3     1  UNL1        0.2611
     30 C          22.8008   73.5810    4.2439 C.3     1  UNL1        0.1582
     31 C          24.1614   74.1575    3.8368 C.3     1  UNL1        0.1625
     32 C          25.0279   73.0228    3.2802 C.3     1  UNL1        0.1686
     33 C          24.2613   72.3128    2.1624 C.3     1  UNL1        0.1760
     34 O          24.7979   74.7347    4.9784 O.3     1  UNL1       -0.3801
     35 O          26.2445   73.5617    2.7597 O.3     1  UNL1       -0.3794
     36 O          23.0586   71.7497    2.6848 O.3     1  UNL1       -0.3263
     37 H          25.6479   75.0844    4.6774 H       1  UNL1        0.2105
     38 H          26.7582   72.8153    2.4198 H       1  UNL1        0.2105
     39 C          21.4446   74.7437    5.9001 C.2     1  UNL1        0.2231
     40 C          20.5210   75.8648    6.3032 C.3     1  UNL1        0.0946
     41 N          21.9039   74.6701    4.6361 N.am    1  UNL1       -0.2994
     42 O          21.7738   73.9072    6.7138 O.2     1  UNL1       -0.2751
     43 H          21.6405   75.3393    3.9847 H       1  UNL1        0.1496
     44 C          25.1311   71.1981    1.5775 C.3     1  UNL1        0.1693
     45 O          24.9226   69.9931    2.3169 O.3     1  UNL1       -0.3794
     46 H          25.4878   69.3182    1.9173 H       1  UNL1        0.2105
@<TRIPOS>BOND
     1    29    30    1
     2    29    28    1
     3    29    36    1
     4    30    31    1
     5    30    41    1
     6    31    32    1
     7    31    34    1
     8    32    33    1
     9    32    35    1
    10    33    44    1
    11    33    36    1
    12    44    45    1
    13    39    40    1
    14    39    41   am
    15    39    42    2
    16    41    43    1
    17    28    25    1
    18    34    37    1
    19    35    38    1
    20    45    46    1
    21    15    16   ar
    22    15    20   ar
    23    15     6    1
    24    16    17   ar
    25    16    21    2
    26    17    18   ar
    27    17    23    1
    28    18    19   ar
    29    18    22    2
    30    19    20   ar
    31     6     7    1
    32     6    11    1
    33     7     8    1
    34     7     9    1
    35     8    13    1
    36     9    10    1
    37     9    12    1
    38    10    11    1
    39    10     5    1
    40    12    14    1
    41     5     4    1
    42     4     1    1
    43     1     2    2
    44     1     3    1
    45     1    24    1
    46    24    25    1
    47    25    26    2
    48    25    27    1
@<TRIPOS>MOLECULE
UD1
 46 48 0 0 0
SMALL
GASTEIGER

@<TRIPOS>ATOM
      1 P          17.2215   69.5225   -2.8161 P.3     1  UNL1        0.2189
      2 O          17.0966   68.3752   -1.8904 O.2     1  UNL1       -0.5170
      3 O          18.4229   70.4772   -2.3285 O.3     1  UNL1       -0.4371
      4 O          15.8443   70.3567   -2.8249 O.3     1  UNL1       -0.3112
      5 C          15.3829   70.4082   -1.4741 C.3     1  UNL1        0.1811
      6 C          12.5432   68.7529   -0.0167 C.3     1  UNL1        0.2383
      7 C          12.4768   70.1982    0.5375 C.3     1  UNL1        0.1895
      8 O          11.1250   70.5931    0.7743 O.3     1  UNL1       -0.3779
      9 C          13.0986   71.0202   -0.6213 C.3     1  UNL1        0.1713
     10 C          13.9143   69.9846   -1.4192 C.3     1  UNL1        0.1764
     11 O          13.7939   68.7248   -0.7370 O.3     1  UNL1       -0.3308
     12 O          12.0727   71.5932   -1.4350 O.3     1  UNL1       -0.3794
     13 H          11.1532   71.4971    1.1170 H       1  UNL1        0.2106
     14 H          11.5621   72.1841   -0.8656 H       1  UNL1        0.2105
     15 N          12.5541   67.7781    1.0746 N.ar    1  UNL1       -0.2551
     16 C          11.4165   67.1490    1.4174 C.ar    1  UNL1        0.3323
     17 N          11.3978   66.2448    2.4146 N.ar    1  UNL1       -0.2743
     18 C          12.5263   65.9612    3.0958 C.ar    1  UNL1        0.2626
     19 C          13.7296   66.6205    2.7493 C.ar    1  UNL1        0.0795
     20 C          13.7212   67.5191    1.7414 C.ar    1  UNL1        0.0869
     21 O          10.3906   67.3941    0.8123 O.2     1  UNL1       -0.2464
     22 O          12.5096   65.1473    4.0007 O.2     1  UNL1       -0.2670
     23 H          10.5693   65.7970    2.6453 H       1  UNL1        0.1734
     24 O          17.5317   68.9835   -4.3001 O.3     1  UNL1       -0.2703
     25 P          17.5549   70.2699   -5.2665 P.3     1  UNL1        0.2208
     26 O          16.7229   71.3430   -4.6792 O.2     1  UNL1       -0.5170
     27 O          16.9688   69.8674   -6.7111 O.3     1  UNL1       -0.4371
     28 O          19.0683   70.7928   -5.4298 O.3     1  UNL1       -0.2865
     29 C          19.0011   72.2096   -5.6011 C.3     1  UNL1        0.2611
     30 C          19.7338   72.5982   -6.8864 C.3     1  UNL1        0.1582
     31 C          21.1914   72.1331   -6.7927 C.3     1  UNL1        0.1625
     32 C          21.8010   72.6885   -5.5012 C.3     1  UNL1        0.1686
     33 C          20.9138   72.2903   -4.3198 C.3     1  UNL1        0.1760
     34 O          21.9228   72.6199   -7.9194 O.3     1  UNL1       -0.3801
     35 O          23.1112   72.1480   -5.3202 O.3     1  UNL1       -0.3794
     36 O          19.6120   72.8515   -4.4839 O.3     1  UNL1       -0.3263
     37 H          22.8315   72.3044   -7.8201 H       1  UNL1        0.2105
     38 H          23.4570   72.5222   -4.4974 H       1  UNL1        0.2105
     39 C          19.5748   70.8005   -8.5226 C.2     1  UNL1        0.2231
     40 C          18.9086   70.1403   -9.7027 C.3     1  UNL1        0.0946
     41 N          19.0867   71.9562   -8.0325 N.am    1  UNL1       -0.2994
     42 O          20.5509   70.2915   -8.0144 O.2     1  UNL1       -0.2751
     43 H          18.3057   72.3639   -8.4391 H       1  UNL1        0.1496
     44 C          21.5313   72.8127   -3.0210 C.3     1  UNL1        0.1693
     45 O          22.3803   73.9252   -3.3105 O.3     1  UNL1       -0.3794
     46 H          22.7484   74.2230   -2.4676 H       1  UNL1        0.2105
@<TRIPOS>BOND
     1    29    30    1
     2    29    28    1
     3    29    36    1
     4    30    31    1
     5    30    41    1
     6    31    32    1
     7    31    34    1
     8    32    33    1
     9    32    35    1
    10    33    44    1
    11    33    36    1
    12    44    45    1
    13    39    40    1
    14    39    41   am
    15    39    42    2
    16    41    43    1
    17    28    25    1
    18    34    37    1
    19    35    38    1
    20    45    46    1
    21    15    16   ar
    22    15    20   ar
    23    15     6    1
    24    16    17   ar
    25    16    21    2
    26    17    18   ar
    27    17    23    1
    28    18    19   ar
    29    18    22    2
    30    19    20   ar
    31     6     7    1
    32     6    11    1
    33     7     8    1
    34     7     9    1
    35     8    13    1
    36     9    10    1
    37     9    12    1
    38    10    11    1
    39    10     5    1
    40    12    14    1
    41     5     4    1
    42     4     1    1
    43     1     2    2
    44     1     3    1
    45     1    24    1
    46    24    25    1
    47    25    26    2
    48    25    27    1
@<TRIPOS>MOLECULE
UD1
 46 48 0 0 0
SMALL
GASTEIGER

@<TRIPOS>ATOM
      1 P          20.5867   72.1507   -1.7572 P.3     1  UNL1        0.2189
      2 O          19.8137   73.1224   -0.9528 O.2     1  UNL1       -0.5170
      3 O          19.8031   70.7448   -1.7991 O.3     1  UNL1       -0.4371
      4 O          22.0367   71.9362   -1.0907 O.3     1  UNL1       -0.3112
      5 C          21.8162   71.5893    0.2773 C.3     1  UNL1        0.1811
      6 C          24.4015   73.2202    2.1703 C.3     1  UNL1        0.2383
      7 C          24.4554   73.8959    0.7772 C.3     1  UNL1        0.1895
      8 O          24.8865   75.2531    0.8837 O.3     1  UNL1       -0.3779
      9 C          22.9752   73.8197    0.3208 C.3     1  UNL1        0.1713
     10 C          22.3762   72.6896    1.1801 C.3     1  UNL1        0.1764
     11 O          23.4366   72.1611    1.9946 O.3     1  UNL1       -0.3308
     12 O          22.3086   75.0579    0.5759 O.3     1  UNL1       -0.3794
     13 H          24.8990   75.6144   -0.0134 H       1  UNL1        0.2106
     14 H          22.7657   75.7333    0.0572 H       1  UNL1        0.2105
     15 N          25.7091   72.6723    2.5328 N.ar    1  UNL1       -0.2551
     16 C          26.0394   71.4271    2.1488 C.ar    1  UNL1        0.3323
     17 N          27.2367   70.8990    2.4647 N.ar    1  UNL1       -0.2743
     18 C          28.1257   71.6129    3.1843 C.ar    1  UNL1        0.2626
     19 C          27.7885   72.9230    3.6002 C.ar    1  UNL1        0.0795
     20 C          26.5828   73.4301    3.2650 C.ar    1  UNL1        0.0869
     21 O          25.2483   70.7707    1.4993 O.2     1  UNL1       -0.2464
     22 O          29.2067   71.1347    3.4746 O.2     1  UNL1       -0.2670
     23 H          27.4602   70.0009    2.1754 H       1  UNL1        0.1734
     24 O          20.7625   72.7130   -3.2545 O.3     1  UNL1       -0.2703
     25 P          21.2929   71.4874   -4.1521 P.3     1  UNL1        0.2208
     26 O          21.7536   70.3930   -3.2695 O.2     1  UNL1       -0.5170
     27 O          22.5169   71.9852   -5.0719 O.3     1  UNL1       -0.4371
     28 O          20.1003   70.9530   -5.0916 O.3     1  UNL1       -0.2865
     29 C          19.4085   72.1044   -5.5783 C.3     1  UNL1        0.2611
     30 C          17.9144   71.9572   -5.2852 C.3     1  UNL1        0.1582
     31 C          17.3933   70.6856   -5.9642 C.3     1  UNL1        0.1625
     32 C          17.7643   70.7361   -7.4501 C.3     1  UNL1        0.1686
     33 C          19.2706   70.9723   -7.5798 C.3     1  UNL1        0.1760
     34 O          15.9731   70.6156   -5.8240 O.3     1  UNL1       -0.3801
     35 O          17.4182   69.4969   -8.0715 O.3     1  UNL1       -0.3794
     36 O          19.6156   72.2224   -6.9842 O.3     1  UNL1       -0.3263
     37 H          15.6887   69.8027   -6.2639 H       1  UNL1        0.2105
     38 H          17.6689   69.5715   -9.0032 H       1  UNL1        0.2105
     39 C          16.6697   72.5013   -3.2631 C.2     1  UNL1        0.2231
     40 C          16.4559   72.4031   -1.7741 C.3     1  UNL1        0.0946
     41 N          17.7060   71.8618   -3.8389 N.am    1  UNL1       -0.2994
     42 O          15.9092   73.1566   -3.9429 O.2     1  UNL1       -0.2751
     43 H          18.3149   71.3374   -3.2951 H       1  UNL1        0.1496
     44 C          19.6568   70.9920   -9.0602 C.3     1  UNL1        0.1693
     45 O          18.5051   71.2967   -9.8494 O.3     1  UNL1       -0.3794
     46 H          18.7912   71.2989  -10.7728 H       1  UNL1        0.2105
@<TRIPOS>BOND
     1    29    30    1
     2    29    28    1
     3    29    36    1
     4    30    31    1
     5    30    41    1
     6    31    32    1
     7    31    34    1
     8    32    33    1
     9    32    35    1
    10    33    44    1
    11    33    36    1
    12    44    45    1
    13    39    40    1
    14    39    41   am
    15    39    42    2
    16    41    43    1
    17    28    25    1
    18    34    37    1
    19    35    38    1
    20    45    46    1
    21    15    16   ar
    22    15    20   ar
    23    15     6    1
    24    16    17   ar
    25    16    21    2
    26    17    18   ar
    27    17    23    1
    28    18    19   ar
    29    18    22    2
    30    19    20   ar
    31     6     7    1
    32     6    11    1
    33     7     8    1
    34     7     9    1
    35     8    13    1
    36     9    10    1
    37     9    12    1
    38    10    11    1
    39    10     5    1
    40    12    14    1
    41     5     4    1
    42     4     1    1
    43     1     2    2
    44     1     3    1
    45     1    24    1
    46    24    25    1
    47    25    26    2
    48    25    27    1
@<TRIPOS>MOLECULE
UD1
 46 48 0 0 0
SMALL
GASTEIGER

@<TRIPOS>ATOM
      1 P          21.7847   72.1073   -1.2237 P.3     1  UNL1        0.2189
      2 O          21.9685   70.6660   -1.5028 O.2     1  UNL1       -0.5170
      3 O          20.2229   72.4112   -0.9768 O.3     1  UNL1       -0.4371
      4 O          22.3055   72.9675   -2.4813 O.3     1  UNL1       -0.3112
      5 C          21.2285   73.0255   -3.4177 C.3     1  UNL1        0.1811
      6 C          20.3760   71.2342   -6.4164 C.3     1  UNL1        0.2383
      7 C          21.0100   72.5550   -6.9202 C.3     1  UNL1        0.1895
      8 O          21.6740   72.3594   -8.1692 O.3     1  UNL1       -0.3779
      9 C          22.0290   72.8765   -5.7961 C.3     1  UNL1        0.1713
     10 C          21.5134   72.0775   -4.5836 C.3     1  UNL1        0.1764
     11 O          20.3001   71.4199   -4.9869 O.3     1  UNL1       -0.3308
     12 O          23.3388   72.4427   -6.1691 O.3     1  UNL1       -0.3794
     13 H          22.0445   73.2149   -8.4265 H       1  UNL1        0.2106
     14 H          23.5796   72.9346   -6.9654 H       1  UNL1        0.2105
     15 N          19.0401   71.0495   -6.9845 N.ar    1  UNL1       -0.2551
     16 C          18.8855   70.3108   -8.0971 C.ar    1  UNL1        0.3323
     17 N          17.6681   70.1208   -8.6393 N.ar    1  UNL1       -0.2743
     18 C          16.5784   70.6803   -8.0758 C.ar    1  UNL1        0.2626
     19 C          16.7276   71.4653   -6.9077 C.ar    1  UNL1        0.0795
     20 C          17.9596   71.6351   -6.3818 C.ar    1  UNL1        0.0869
     21 O          19.8587   69.7996   -8.6169 O.2     1  UNL1       -0.2464
     22 O          15.4779   70.5131   -8.5680 O.2     1  UNL1       -0.2670
     23 H          17.5745   69.5811   -9.4394 H       1  UNL1        0.1734
     24 O          22.6250   72.5114    0.0876 O.3     1  UNL1       -0.2703
     25 P          22.3655   71.3584    1.1796 P.3     1  UNL1        0.2208
     26 O          23.5809   70.5259    1.3161 O.2     1  UNL1       -0.5170
     27 O          21.1345   70.4357    0.7047 O.3     1  UNL1       -0.4371
     28 O          22.0136   72.0311    2.5988 O.3     1  UNL1       -0.2865
     29 C          22.3442   73.4170    2.4939 C.3     1  UNL1        0.2611
     30 C          23.3561   73.7786    3.5827 C.3     1  UNL1        0.1582
     31 C          22.7475   73.4699    4.9552 C.3     1  UNL1        0.1625
     32 C          21.3935   74.1795    5.0618 C.3     1  UNL1        0.1686
     33 C          20.5284   73.7851    3.8628 C.3     1  UNL1        0.1760
     34 O          23.6209   73.9408    5.9832 O.3     1  UNL1       -0.3801
     35 O          20.7426   73.7879    6.2720 O.3     1  UNL1       -0.3794
     36 O          21.1628   74.1994    2.6535 O.3     1  UNL1       -0.3263
     37 H          23.2003   73.7262    6.8272 H       1  UNL1        0.2105
     38 H          19.8960   74.2560    6.2984 H       1  UNL1        0.2105
     39 C          25.7609   73.6098    3.2325 C.2     1  UNL1        0.2231
     40 C          27.0168   72.7979    3.0426 C.3     1  UNL1        0.0946
     41 N          24.5764   72.9904    3.3986 N.am    1  UNL1       -0.2994
     42 O          25.8166   74.8210    3.2350 O.2     1  UNL1       -0.2751
     43 H          24.5316   72.0211    3.3964 H       1  UNL1        0.1496
     44 C          19.1616   74.4633    3.9767 C.3     1  UNL1        0.1693
     45 O          18.3144   73.6886    4.8277 O.3     1  UNL1       -0.3794
     46 H          17.4657   74.1494    4.8721 H       1  UNL1        0.2105
@<TRIPOS>BOND
     1    29    30    1
     2    29    28    1
     3    29    36    1
     4    30    31    1
     5    30    41    1
     6    31    32    1
     7    31    34    1
     8    32    33    1
     9    32    35    1
    10    33    44    1
    11    33    36    1
    12    44    45    1
    13    39    40    1
    14    39    41   am
    15    39    42    2
    16    41    43    1
    17    28    25    1
    18    34    37    1
    19    35    38    1
    20    45    46    1
    21    15    16   ar
    22    15    20   ar
    23    15     6    1
    24    16    17   ar
    25    16    21    2
    26    17    18   ar
    27    17    23    1
    28    18    19   ar
    29    18    22    2
    30    19    20   ar
    31     6     7    1
    32     6    11    1
    33     7     8    1
    34     7     9    1
    35     8    13    1
    36     9    10    1
    37     9    12    1
    38    10    11    1
    39    10     5    1
    40    12    14    1
    41     5     4    1
    42     4     1    1
    43     1     2    2
    44     1     3    1
    45     1    24    1
    46    24    25    1
    47    25    26    2
    48    25    27    1
@<TRIPOS>MOLECULE
UD1
 46 48 0 0 0
SMALL
GASTEIGER

@<TRIPOS>ATOM
      1 P          22.2970   71.1816   -0.1206 P.3     1  UNL1        0.2189
      2 O          21.6736   70.1931    0.7866 O.2     1  UNL1       -0.5170
      3 O          23.8776   70.8929   -0.2243 O.3     1  UNL1       -0.4371
      4 O          22.0603   72.6651    0.4589 O.3     1  UNL1       -0.3112
      5 C          23.1204   72.9233    1.3809 C.3     1  UNL1        0.1811
      6 C          22.9504   73.3499    4.9469 C.3     1  UNL1        0.2383
      7 C          21.7015   74.0911    4.4073 C.3     1  UNL1        0.1895
      8 O          20.6314   74.0440    5.3518 O.3     1  UNL1       -0.3779
      9 C          21.3568   73.2676    3.1391 C.3     1  UNL1        0.1713
     10 C          22.6727   72.5442    2.7934 C.3     1  UNL1        0.1764
     11 O          23.6598   72.9677    3.7493 O.3     1  UNL1       -0.3308
     12 O          20.3196   72.3256    3.4208 O.3     1  UNL1       -0.3794
     13 H          19.8884   74.5211    4.9572 H       1  UNL1        0.2106
     14 H          19.5436   72.8362    3.6877 H       1  UNL1        0.2105
     15 N          23.7688   74.2419    5.7690 N.ar    1  UNL1       -0.2551
     16 C          23.4769   74.4025    7.0715 C.ar    1  UNL1        0.3323
     17 N          24.2148   75.2135    7.8524 N.ar    1  UNL1       -0.2743
     18 C          25.2602   75.8892    7.3341 C.ar    1  UNL1        0.2626
     19 C          25.5750   75.7341    5.9631 C.ar    1  UNL1        0.0795
     20 C          24.8214   74.9101    5.2039 C.ar    1  UNL1        0.0869
     21 O          22.5372   73.7998    7.5535 O.2     1  UNL1       -0.2464
     22 O          25.9252   76.6264    8.0382 O.2     1  UNL1       -0.2670
     23 H          23.9928   75.3137    8.7909 H       1  UNL1        0.1734
     24 O          21.6320   71.0638   -1.5810 O.3     1  UNL1       -0.2703
     25 P          22.6866   71.6882   -2.6238 P.3     1  UNL1        0.2208
     26 O          23.8722   70.8077   -2.7129 O.2     1  UNL1       -0.5170
     27 O          23.1402   73.1485   -2.1199 O.3     1  UNL1       -0.4371
     28 O          22.0000   71.8119   -4.0742 O.3     1  UNL1       -0.2865
     29 C          21.2284   73.0144   -4.0663 C.3     1  UNL1        0.2611
     30 C          19.8012   72.7017   -4.5194 C.3     1  UNL1        0.1582
     31 C          19.8436   72.0951   -5.9265 C.3     1  UNL1        0.1625
     32 C          20.6267   73.0399   -6.8441 C.3     1  UNL1        0.1686
     33 C          21.9931   73.3247   -6.2170 C.3     1  UNL1        0.1760
     34 O          18.5121   71.9373   -6.4201 O.3     1  UNL1       -0.3801
     35 O          20.8044   72.4264   -8.1222 O.3     1  UNL1       -0.3794
     36 O          21.8196   73.9625   -4.9523 O.3     1  UNL1       -0.3263
     37 H          18.5858   71.5536   -7.3048 H       1  UNL1        0.2105
     38 H          21.3014   73.0533   -8.6668 H       1  UNL1        0.2105
     39 C          19.1980   70.4306   -3.8769 C.2     1  UNL1        0.2231
     40 C          18.5691   69.4483   -2.9220 C.3     1  UNL1        0.0946
     41 N          19.1909   71.7470   -3.5918 N.am    1  UNL1       -0.2994
     42 O          19.7101   70.0359   -4.9027 O.2     1  UNL1       -0.2751
     43 H          18.7809   72.0631   -2.7711 H       1  UNL1        0.1496
     44 C          22.7960   74.2419   -7.1418 C.3     1  UNL1        0.1693
     45 O          21.9009   75.0722   -7.8843 O.3     1  UNL1       -0.3794
     46 H          22.4459   75.6327   -8.4530 H       1  UNL1        0.2105
@<TRIPOS>BOND
     1    29    30    1
     2    29    28    1
     3    29    36    1
     4    30    31    1
     5    30    41    1
     6    31    32    1
     7    31    34    1
     8    32    33    1
     9    32    35    1
    10    33    44    1
    11    33    36    1
    12    44    45    1
    13    39    40    1
    14    39    41   am
    15    39    42    2
    16    41    43    1
    17    28    25    1
    18    34    37    1
    19    35    38    1
    20    45    46    1
    21    15    16   ar
    22    15    20   ar
    23    15     6    1
    24    16    17   ar
    25    16    21    2
    26    17    18   ar
    27    17    23    1
    28    18    19   ar
    29    18    22    2
    30    19    20   ar
    31     6     7    1
    32     6    11    1
    33     7     8    1
    34     7     9    1
    35     8    13    1
    36     9    10    1
    37     9    12    1
    38    10    11    1
    39    10     5    1
    40    12    14    1
    41     5     4    1
    42     4     1    1
    43     1     2    2
    44     1     3    1
    45     1    24    1
    46    24    25    1
    47    25    26    2
    48    25    27    1
@<TRIPOS>MOLECULE
UD1
 46 48 0 0 0
SMALL
GASTEIGER

@<TRIPOS>ATOM
      1 P          22.0304   72.5863   -5.2535 P.3     1  UNL1        0.2189
      2 O          22.9919   72.4292   -6.3669 O.2     1  UNL1       -0.5170
      3 O          22.0915   74.0973   -4.7007 O.3     1  UNL1       -0.4371
      4 O          22.4122   71.5662   -4.0676 O.3     1  UNL1       -0.3112
      5 C          22.3958   72.3184   -2.8534 C.3     1  UNL1        0.1811
      6 C          23.3377   71.3097    0.4667 C.3     1  UNL1        0.2383
      7 C          21.9647   72.0043    0.6469 C.3     1  UNL1        0.1895
      8 O          21.2447   71.4372    1.7420 O.3     1  UNL1       -0.3779
      9 C          21.2617   71.6904   -0.6994 C.3     1  UNL1        0.1713
     10 C          22.4214   71.3625   -1.6597 C.3     1  UNL1        0.1764
     11 O          23.6467   71.5289   -0.9262 O.3     1  UNL1       -0.3308
     12 O          20.3881   70.5681   -0.5580 O.3     1  UNL1       -0.3794
     13 H          20.4039   71.9118    1.8003 H       1  UNL1        0.2106
     14 H          19.7218   70.8138    0.0977 H       1  UNL1        0.2105
     15 N          24.3495   71.9288    1.3235 N.ar    1  UNL1       -0.2551
     16 C          25.1313   71.1556    2.0970 C.ar    1  UNL1        0.3323
     17 N          26.0728   71.6976    2.8920 N.ar    1  UNL1       -0.2743
     18 C          26.2410   73.0348    2.9317 C.ar    1  UNL1        0.2626
     19 C          25.4207   73.8610    2.1271 C.ar    1  UNL1        0.0795
     20 C          24.4877   73.2907    1.3349 C.ar    1  UNL1        0.0869
     21 O          24.9917   69.9479    2.0721 O.2     1  UNL1       -0.2464
     22 O          27.0887   73.5262    3.6538 O.2     1  UNL1       -0.2670
     23 H          26.6311   71.1244    3.4397 H       1  UNL1        0.1734
     24 O          20.5438   72.2657   -5.7790 O.3     1  UNL1       -0.2703
     25 P          19.9005   73.6675   -6.2379 P.3     1  UNL1        0.2208
     26 O          20.8687   74.4014   -7.0822 O.2     1  UNL1       -0.5170
     27 O          19.5483   74.5485   -4.9371 O.3     1  UNL1       -0.4371
     28 O          18.5558   73.3928   -7.0784 O.3     1  UNL1       -0.2865
     29 C          17.6182   72.7997   -6.1782 C.3     1  UNL1        0.2611
     30 C          17.0572   71.5212   -6.8033 C.3     1  UNL1        0.1582
     31 C          16.3830   71.8686   -8.1354 C.3     1  UNL1        0.1625
     32 C          15.3563   72.9793   -7.8900 C.3     1  UNL1        0.1686
     33 C          16.0465   74.1492   -7.1856 C.3     1  UNL1        0.1760
     34 O          15.7263   70.7113   -8.6558 O.3     1  UNL1       -0.3801
     35 O          14.8215   73.4203   -9.1395 O.3     1  UNL1       -0.3794
     36 O          16.5579   73.7189   -5.9248 O.3     1  UNL1       -0.3263
     37 H          15.3173   70.9744   -9.4917 H       1  UNL1        0.2105
     38 H          14.1818   74.1183   -8.9393 H       1  UNL1        0.2105
     39 C          18.7218   70.4914   -8.2534 C.2     1  UNL1        0.2231
     40 C          19.8432   69.5134   -8.4946 C.3     1  UNL1        0.0946
     41 N          18.1469   70.5716   -7.0379 N.am    1  UNL1       -0.2994
     42 O          18.3365   71.2061   -9.1539 O.2     1  UNL1       -0.2751
     43 H          18.4549   69.9996   -6.3172 H       1  UNL1        0.1496
     44 C          15.0368   75.2775   -6.9650 C.3     1  UNL1        0.1693
     45 O          13.7351   74.7210   -6.7696 O.3     1  UNL1       -0.3794
     46 H          13.1307   75.4634   -6.6349 H       1  UNL1        0.2105
@<TRIPOS>BOND
     1    29    30    1
     2    29    28    1
     3    29    36    1
     4    30    31    1
     5    30    41    1
     6    31    32    1
     7    31    34    1
     8    32    33    1
     9    32    35    1
    10    33    44    1
    11    33    36    1
    12    44    45    1
    13    39    40    1
    14    39    41   am
    15    39    42    2
    16    41    43    1
    17    28    25    1
    18    34    37    1
    19    35    38    1
    20    45    46    1
    21    15    16   ar
    22    15    20   ar
    23    15     6    1
    24    16    17   ar
    25    16    21    2
    26    17    18   ar
    27    17    23    1
    28    18    19   ar
    29    18    22    2
    30    19    20   ar
    31     6     7    1
    32     6    11    1
    33     7     8    1
    34     7     9    1
    35     8    13    1
    36     9    10    1
    37     9    12    1
    38    10    11    1
    39    10     5    1
    40    12    14    1
    41     5     4    1
    42     4     1    1
    43     1     2    2
    44     1     3    1
    45     1    24    1
    46    24    25    1
    47    25    26    2
    48    25    27    1
@<TRIPOS>MOLECULE
UD1
 46 48 0 0 0
SMALL
GASTEIGER

@<TRIPOS>ATOM
      1 P          21.1391   71.6905   -2.7357 P.3     1  UNL1        0.2189
      2 O          20.3847   71.9514   -1.4900 O.2     1  UNL1       -0.5170
      3 O          20.9696   70.1444   -3.1519 O.3     1  UNL1       -0.4371
      4 O          22.6984   72.0128   -2.4955 O.3     1  UNL1       -0.3112
      5 C          22.8003   72.6313   -1.2121 C.3     1  UNL1        0.1811
      6 C          24.5580   71.4426    1.6905 C.3     1  UNL1        0.2383
      7 C          23.2043   71.9576    2.2403 C.3     1  UNL1        0.1895
      8 O          22.8060   71.2163    3.3941 O.3     1  UNL1       -0.3779
      9 C          22.2460   71.6877    1.0512 C.3     1  UNL1        0.1713
     10 C          23.1826   71.5813   -0.1677 C.3     1  UNL1        0.1764
     11 O          24.5220   71.8196    0.2976 O.3     1  UNL1       -0.3308
     12 O          21.5330   70.4652    1.2506 O.3     1  UNL1       -0.3794
     13 H          21.9607   71.5849    3.6859 H       1  UNL1        0.2106
     14 H          21.0132   70.5736    2.0582 H       1  UNL1        0.2105
     15 N          25.6771   72.0935    2.3726 N.ar    1  UNL1       -0.2551
     16 C          25.5484   73.3601    2.8045 C.ar    1  UNL1        0.3323
     17 N          26.5599   73.9824    3.4385 N.ar    1  UNL1       -0.2743
     18 C          27.7292   73.3432    3.6433 C.ar    1  UNL1        0.2626
     19 C          27.8803   72.0116    3.1885 C.ar    1  UNL1        0.0795
     20 C          26.8479   71.4094    2.5602 C.ar    1  UNL1        0.0869
     21 O          24.4999   73.9499    2.6273 O.2     1  UNL1       -0.2464
     22 O          28.6460   73.9065    4.2121 O.2     1  UNL1       -0.2670
     23 H          26.4479   74.8947    3.7475 H       1  UNL1        0.1734
     24 O          20.5724   72.6295   -3.9130 O.3     1  UNL1       -0.2703
     25 P          18.9673   72.5324   -3.8531 P.3     1  UNL1        0.2208
     26 O          18.4152   73.8044   -3.3374 O.2     1  UNL1       -0.5170
     27 O          18.5379   71.3267   -2.8763 O.3     1  UNL1       -0.4371
     28 O          18.3897   72.2564   -5.3298 O.3     1  UNL1       -0.2865
     29 C          19.1413   71.1692   -5.8724 C.3     1  UNL1        0.2611
     30 C          19.3706   71.4093   -7.3656 C.3     1  UNL1        0.1582
     31 C          18.0135   71.5325   -8.0676 C.3     1  UNL1        0.1625
     32 C          17.1718   70.2981   -7.7274 C.3     1  UNL1        0.1686
     33 C          17.1059   70.1437   -6.2065 C.3     1  UNL1        0.1760
     34 O          18.2105   71.6072   -9.4808 O.3     1  UNL1       -0.3801
     35 O          15.8521   70.4606   -8.2503 O.3     1  UNL1       -0.3794
     36 O          18.4201   69.9537   -5.6838 O.3     1  UNL1       -0.3263
     37 H          17.3336   71.6839   -9.8815 H       1  UNL1        0.2105
     38 H          15.3571   69.6635   -8.0134 H       1  UNL1        0.2105
     39 C          21.4540   72.6694   -7.2885 C.2     1  UNL1        0.2231
     40 C          22.2385   73.9423   -7.4797 C.3     1  UNL1        0.0946
     41 N          20.1332   72.6455   -7.5517 N.am    1  UNL1       -0.2994
     42 O          22.0117   71.6665   -6.8970 O.2     1  UNL1       -0.2751
     43 H          19.6866   73.4480   -7.8648 H       1  UNL1        0.1496
     44 C          16.2402   68.9319   -5.8552 C.3     1  UNL1        0.1693
     45 O          16.5099   68.5267   -4.5117 O.3     1  UNL1       -0.3794
     46 H          15.9457   67.7626   -4.3312 H       1  UNL1        0.2105
@<TRIPOS>BOND
     1    29    30    1
     2    29    28    1
     3    29    36    1
     4    30    31    1
     5    30    41    1
     6    31    32    1
     7    31    34    1
     8    32    33    1
     9    32    35    1
    10    33    44    1
    11    33    36    1
    12    44    45    1
    13    39    40    1
    14    39    41   am
    15    39    42    2
    16    41    43    1
    17    28    25    1
    18    34    37    1
    19    35    38    1
    20    45    46    1
    21    15    16   ar
    22    15    20   ar
    23    15     6    1
    24    16    17   ar
    25    16    21    2
    26    17    18   ar
    27    17    23    1
    28    18    19   ar
    29    18    22    2
    30    19    20   ar
    31     6     7    1
    32     6    11    1
    33     7     8    1
    34     7     9    1
    35     8    13    1
    36     9    10    1
    37     9    12    1
    38    10    11    1
    39    10     5    1
    40    12    14    1
    41     5     4    1
    42     4     1    1
    43     1     2    2
    44     1     3    1
    45     1    24    1
    46    24    25    1
    47    25    26    2
    48    25    27    1
