
 OpenBabel04092510483D

 45 46  0  0  1  0  0  0  0  0999 V2000
    3.2190   -1.4807  -12.4418 O   0  0  0  0  0  0  0  0  0  0  0  0
    2.6116   -2.0578  -11.2921 C   0  0  0  0  0  0  0  0  0  0  0  0
    2.9269   -1.2880  -10.0001 C   0  0  1  0  0  0  0  0  0  0  0  0
    2.2115   -1.9086   -8.9279 O   0  0  0  0  0  0  0  0  0  0  0  0
    2.3479   -1.2304   -7.6791 C   0  0  1  0  0  0  0  0  0  0  0  0
    1.5154   -1.8425   -6.6798 O   0  0  0  0  0  0  0  0  0  0  0  0
    1.7558   -3.2395   -6.5085 C   0  0  0  0  0  0  0  0  0  0  0  0
    0.8238   -3.8421   -5.4477 C   0  0  1  0  0  0  0  0  0  0  0  0
   -0.5387   -3.7729   -5.8838 O   0  0  0  0  0  0  0  0  0  0  0  0
   -1.4508   -4.2692   -4.9048 C   0  0  1  0  0  0  0  0  0  0  0  0
   -2.7731   -4.0274   -5.3541 O   0  0  0  0  0  0  0  0  0  0  0  0
   -1.2051   -5.7712   -4.6492 C   0  0  2  0  0  0  0  0  0  0  0  0
   -2.1061   -6.3099   -3.6722 O   0  0  0  0  0  0  0  0  0  0  0  0
    0.2521   -5.9778   -4.2149 C   0  0  1  0  0  0  0  0  0  0  0  0
    0.5820   -7.3667   -4.0889 O   0  0  0  0  0  0  0  0  0  0  0  0
    1.2198   -5.3092   -5.2053 C   0  0  2  0  0  0  0  0  0  0  0  0
    2.5696   -5.3861   -4.7429 O   0  0  0  0  0  0  0  0  0  0  0  0
    3.8321   -1.1313   -7.2381 C   0  0  2  0  0  0  0  0  0  0  0  0
    3.9838   -0.3731   -6.0289 O   0  0  0  0  0  0  0  0  0  0  0  0
    4.6786   -0.5294   -8.3713 C   0  0  1  0  0  0  0  0  0  0  0  0
    6.0798   -0.5672   -8.0333 O   0  0  0  0  0  0  0  0  0  0  0  0
    4.4337   -1.2679   -9.6920 C   0  0  2  0  0  0  0  0  0  0  0  0
    5.1690   -0.6813  -10.7713 O   0  0  0  0  0  0  0  0  0  0  0  0
    4.1853   -1.4762  -12.2821 H   0  0  0  0  0  0  0  0  0  0  0  0
    2.9275   -3.1045  -11.2130 H   0  0  0  0  0  0  0  0  0  0  0  0
    1.5295   -2.0698  -11.4561 H   0  0  0  0  0  0  0  0  0  0  0  0
    2.5722   -0.2564  -10.1328 H   0  0  0  0  0  0  0  0  0  0  0  0
    1.9469   -0.2157   -7.7961 H   0  0  0  0  0  0  0  0  0  0  0  0
    2.7938   -3.3800   -6.1896 H   0  0  0  0  0  0  0  0  0  0  0  0
    1.5983   -3.7550   -7.4616 H   0  0  0  0  0  0  0  0  0  0  0  0
    0.9273   -3.2521   -4.5226 H   0  0  0  0  0  0  0  0  0  0  0  0
   -1.3368   -3.6979   -3.9740 H   0  0  0  0  0  0  0  0  0  0  0  0
   -2.9823   -4.7194   -6.0020 H   0  0  0  0  0  0  0  0  0  0  0  0
   -1.3938   -6.3370   -5.5690 H   0  0  0  0  0  0  0  0  0  0  0  0
   -1.9651   -5.8462   -2.8319 H   0  0  0  0  0  0  0  0  0  0  0  0
    0.4029   -5.5612   -3.2115 H   0  0  0  0  0  0  0  0  0  0  0  0
    0.2587   -7.8313   -4.8833 H   0  0  0  0  0  0  0  0  0  0  0  0
    1.1744   -5.8648   -6.1518 H   0  0  0  0  0  0  0  0  0  0  0  0
    2.5704   -5.7409   -3.8346 H   0  0  0  0  0  0  0  0  0  0  0  0
    4.2347   -2.1235   -7.0144 H   0  0  0  0  0  0  0  0  0  0  0  0
    3.6809    0.5373   -6.1939 H   0  0  0  0  0  0  0  0  0  0  0  0
    4.4479    0.5378   -8.4837 H   0  0  0  0  0  0  0  0  0  0  0  0
    6.3167   -1.4787   -7.7866 H   0  0  0  0  0  0  0  0  0  0  0  0
    4.8068   -2.2943   -9.5882 H   0  0  0  0  0  0  0  0  0  0  0  0
    5.0762    0.2875  -10.7158 H   0  0  0  0  0  0  0  0  0  0  0  0
  1  2  1  0  0  0  0
  1 24  1  0  0  0  0
  2 25  1  0  0  0  0
  2 26  1  0  0  0  0
  3  4  1  0  0  0  0
  3 22  1  0  0  0  0
  3  2  1  0  0  0  0
  3 27  1  6  0  0  0
  4  5  1  0  0  0  0
  5 18  1  0  0  0  0
  5  6  1  0  0  0  0
  5 28  1  6  0  0  0
  6  7  1  0  0  0  0
  7 29  1  0  0  0  0
  7 30  1  0  0  0  0
  8  9  1  0  0  0  0
  8 16  1  0  0  0  0
  8  7  1  0  0  0  0
  8 31  1  1  0  0  0
  9 10  1  0  0  0  0
 10 12  1  0  0  0  0
 10 11  1  0  0  0  0
 10 32  1  1  0  0  0
 11 33  1  0  0  0  0
 12 13  1  0  0  0  0
 12 14  1  0  0  0  0
 12 34  1  6  0  0  0
 13 35  1  0  0  0  0
 14 15  1  0  0  0  0
 14 16  1  0  0  0  0
 14 36  1  1  0  0  0
 15 37  1  0  0  0  0
 16 17  1  0  0  0  0
 16 38  1  6  0  0  0
 17 39  1  0  0  0  0
 18 19  1  0  0  0  0
 18 20  1  0  0  0  0
 18 40  1  1  0  0  0
 19 41  1  0  0  0  0
 20 21  1  0  0  0  0
 20 22  1  0  0  0  0
 20 42  1  6  0  0  0
 21 43  1  0  0  0  0
 22 23  1  0  0  0  0
 22 44  1  1  0  0  0
 23 45  1  0  0  0  0
M  END
$$$$
