


 31 32  0  0  0  0  0  0  0  0999 V2000
   -5.6501  -16.9893   -5.6801 O   0  0  0  0  0  0  0  0  0  0  0  0
   -9.2218  -17.4471   -5.0823 C   0  0  0  0  0  0  0  0  0  0  0  0
   -7.8066  -17.4881   -4.8777 O   0  0  0  0  0  0  0  0  0  0  0  0
   -7.0515  -17.0264   -5.9979 C   0  0  0  0  0  0  0  0  0  0  0  0
   -7.3507  -17.8566   -7.2740 C   0  0  0  0  0  0  0  0  0  0  0  0
   -6.6627  -17.3415   -8.4235 O   0  0  0  0  0  0  0  0  0  0  0  0
   -8.8666  -17.9114   -7.5226 C   0  0  0  0  0  0  0  0  0  0  0  0
   -9.1697  -18.7994   -8.6174 O   0  0  0  0  0  0  0  0  0  0  0  0
   -9.6149  -18.3546   -6.2603 C   0  0  0  0  0  0  0  0  0  0  0  0
  -11.0330  -18.3527   -6.4569 O   0  0  0  0  0  0  0  0  0  0  0  0
   -6.9825  -16.4386   -8.5973 H   0  0  0  0  0  0  0  0  0  0  0  0
   -8.7529  -19.6620   -8.4440 H   0  0  0  0  0  0  0  0  0  0  0  0
  -11.2780  -17.5310   -6.9205 H   0  0  0  0  0  0  0  0  0  0  0  0
   -9.2994  -17.2965   -2.6215 O   0  0  0  0  0  0  0  0  0  0  0  0
   -9.9053  -17.8715   -3.7731 C   0  0  0  0  0  0  0  0  0  0  0  0
   -9.3521  -16.3242   -2.7268 H   0  0  0  0  0  0  0  0  0  0  0  0
   -5.0648  -18.2807   -5.5110 C   0  0  0  0  0  0  0  0  0  0  0  0
   -3.8114  -18.2159   -4.6268 C   0  0  0  0  0  0  0  0  0  0  0  0
   -3.4055  -19.5338   -4.2398 O   0  0  0  0  0  0  0  0  0  0  0  0
   -2.2760  -19.5228   -3.3676 C   0  0  0  0  0  0  0  0  0  0  0  0
   -2.0369  -20.8460   -2.9196 O   0  0  0  0  0  0  0  0  0  0  0  0
   -1.0429  -18.9368   -4.0871 C   0  0  0  0  0  0  0  0  0  0  0  0
    0.1166  -18.9119   -3.2437 O   0  0  0  0  0  0  0  0  0  0  0  0
   -1.3759  -17.5266   -4.5925 C   0  0  0  0  0  0  0  0  0  0  0  0
   -0.3159  -16.9772   -5.3853 O   0  0  0  0  0  0  0  0  0  0  0  0
   -2.6782  -17.5302   -5.4101 C   0  0  0  0  0  0  0  0  0  0  0  0
   -3.0637  -16.2039   -5.7764 O   0  0  0  0  0  0  0  0  0  0  0  0
   -1.5687  -21.3061   -3.6348 H   0  0  0  0  0  0  0  0  0  0  0  0
   -0.0689  -18.3450   -2.4787 H   0  0  0  0  0  0  0  0  0  0  0  0
   -0.0345  -17.6527   -6.0303 H   0  0  0  0  0  0  0  0  0  0  0  0
   -2.4787  -15.5702   -5.3214 H   0  0  0  0  0  0  0  0  0  0  0  0
 14 15  1  0
 14 16  1  0
  2  3  1  0
  2  9  1  0
  2 15  1  0
  3  4  1  0
  4  5  1  0
  4  1  1  0
  1 17  1  0
 18 19  1  0
 18 26  1  0
 18 17  1  0
 19 20  1  0
 20 22  1  0
 20 21  1  0
 21 28  1  0
 22 23  1  0
 22 24  1  0
 23 29  1  0
 24 25  1  0
 24 26  1  0
 25 30  1  0
 26 27  1  0
 27 31  1  0
  5  6  1  0
  5  7  1  0
  6 11  1  0
  7  8  1  0
  7  9  1  0
  8 12  1  0
  9 10  1  0
 10 13  1  0
M  END
> <minimizedAffinity>
-5.58204

> <CNNscore>
0.9722844958

> <CNNaffinity>
3.3179461956

> <CNN_VS>
3.2259876728

> <CNNaffinity_variance>
0.4614837468

$$$$



 31 32  0  0  0  0  0  0  0  0999 V2000
   -5.8090  -17.5523   -5.3785 O   0  0  0  0  0  0  0  0  0  0  0  0
   -7.5446  -17.6026   -8.5893 C   0  0  0  0  0  0  0  0  0  0  0  0
   -6.5081  -17.4107   -7.6221 O   0  0  0  0  0  0  0  0  0  0  0  0
   -6.9252  -17.6534   -6.2786 C   0  0  0  0  0  0  0  0  0  0  0  0
   -8.1058  -16.7341   -5.8684 C   0  0  0  0  0  0  0  0  0  0  0  0
   -8.5879  -17.0346   -4.5503 O   0  0  0  0  0  0  0  0  0  0  0  0
   -9.2383  -16.8392   -6.9025 C   0  0  0  0  0  0  0  0  0  0  0  0
  -10.2784  -15.8827   -6.6152 O   0  0  0  0  0  0  0  0  0  0  0  0
   -8.7055  -16.6291   -8.3243 C   0  0  0  0  0  0  0  0  0  0  0  0
   -9.7371  -16.7837   -9.3049 O   0  0  0  0  0  0  0  0  0  0  0  0
   -8.9300  -17.9461   -4.5458 H   0  0  0  0  0  0  0  0  0  0  0  0
   -9.8769  -14.9992   -6.5377 H   0  0  0  0  0  0  0  0  0  0  0  0
  -10.2600  -17.5747   -9.0790 H   0  0  0  0  0  0  0  0  0  0  0  0
   -6.9573  -16.0520  -10.4155 O   0  0  0  0  0  0  0  0  0  0  0  0
   -6.9350  -17.4082   -9.9864 C   0  0  0  0  0  0  0  0  0  0  0  0
   -6.4517  -15.5353   -9.7547 H   0  0  0  0  0  0  0  0  0  0  0  0
   -4.9978  -18.7265   -5.3348 C   0  0  0  0  0  0  0  0  0  0  0  0
   -3.7670  -18.5237   -4.4397 C   0  0  0  0  0  0  0  0  0  0  0  0
   -3.2379  -19.7885   -4.0254 O   0  0  0  0  0  0  0  0  0  0  0  0
   -2.1250  -19.6516   -3.1426 C   0  0  0  0  0  0  0  0  0  0  0  0
   -1.7620  -20.9372   -2.6688 O   0  0  0  0  0  0  0  0  0  0  0  0
   -0.9474  -18.9592   -3.8605 C   0  0  0  0  0  0  0  0  0  0  0  0
    0.1944  -18.8060   -3.0064 O   0  0  0  0  0  0  0  0  0  0  0  0
   -1.4116  -17.5974   -4.3942 C   0  0  0  0  0  0  0  0  0  0  0  0
   -0.4019  -16.9596   -5.1862 O   0  0  0  0  0  0  0  0  0  0  0  0
   -2.6978  -17.7430   -5.2241 C   0  0  0  0  0  0  0  0  0  0  0  0
   -3.2077  -16.4675   -5.6177 O   0  0  0  0  0  0  0  0  0  0  0  0
   -1.2427  -21.3609   -3.3711 H   0  0  0  0  0  0  0  0  0  0  0  0
   -0.0547  -18.2474   -2.2535 H   0  0  0  0  0  0  0  0  0  0  0  0
   -0.0481  -17.6148   -5.8164 H   0  0  0  0  0  0  0  0  0  0  0  0
   -2.6931  -15.7716   -5.1684 H   0  0  0  0  0  0  0  0  0  0  0  0
 14 15  1  0
 14 16  1  0
  2  3  1  0
  2  9  1  0
  2 15  1  0
  3  4  1  0
  4  5  1  0
  4  1  1  0
  1 17  1  0
 18 19  1  0
 18 26  1  0
 18 17  1  0
 19 20  1  0
 20 22  1  0
 20 21  1  0
 21 28  1  0
 22 23  1  0
 22 24  1  0
 23 29  1  0
 24 25  1  0
 24 26  1  0
 25 30  1  0
 26 27  1  0
 27 31  1  0
  5  6  1  0
  5  7  1  0
  6 11  1  0
  7  8  1  0
  7  9  1  0
  8 12  1  0
  9 10  1  0
 10 13  1  0
M  END
> <minimizedAffinity>
-5.51886

> <CNNscore>
0.9643395543

> <CNNaffinity>
3.0426235199

> <CNN_VS>
2.9341223240

> <CNNaffinity_variance>
0.6204913259

$$$$



 31 32  0  0  0  0  0  0  0  0999 V2000
   -5.3160  -18.0916   -5.1451 O   0  0  0  0  0  0  0  0  0  0  0  0
   -2.5725  -19.9411   -3.6033 C   0  0  0  0  0  0  0  0  0  0  0  0
   -3.8641  -19.3545   -3.7886 O   0  0  0  0  0  0  0  0  0  0  0  0
   -3.9665  -18.5529   -4.9655 C   0  0  0  0  0  0  0  0  0  0  0  0
   -2.9365  -17.3926   -4.9618 C   0  0  0  0  0  0  0  0  0  0  0  0
   -2.9738  -16.6372   -6.1816 O   0  0  0  0  0  0  0  0  0  0  0  0
   -1.5249  -17.9430   -4.7020 C   0  0  0  0  0  0  0  0  0  0  0  0
   -0.5798  -16.8648   -4.5490 O   0  0  0  0  0  0  0  0  0  0  0  0
   -1.5055  -18.8424   -3.4609 C   0  0  0  0  0  0  0  0  0  0  0  0
   -0.2109  -19.4120   -3.2394 O   0  0  0  0  0  0  0  0  0  0  0  0
   -2.7285  -17.2250   -6.9178 H   0  0  0  0  0  0  0  0  0  0  0  0
   -0.9115  -16.2535   -3.8677 H   0  0  0  0  0  0  0  0  0  0  0  0
    0.1348  -19.7310   -4.0933 H   0  0  0  0  0  0  0  0  0  0  0  0
   -3.0617  -22.1720   -2.6716 O   0  0  0  0  0  0  0  0  0  0  0  0
   -2.6348  -20.8499   -2.3658 C   0  0  0  0  0  0  0  0  0  0  0  0
   -2.4248  -22.5344   -3.3214 H   0  0  0  0  0  0  0  0  0  0  0  0
   -6.1296  -18.9797   -5.9120 C   0  0  0  0  0  0  0  0  0  0  0  0
   -7.2280  -19.6182   -5.0500 C   0  0  0  0  0  0  0  0  0  0  0  0
   -6.7447  -20.8178   -4.4346 O   0  0  0  0  0  0  0  0  0  0  0  0
   -7.7493  -21.4804   -3.6675 C   0  0  0  0  0  0  0  0  0  0  0  0
   -7.2326  -22.7226   -3.2215 O   0  0  0  0  0  0  0  0  0  0  0  0
   -8.1978  -20.5960   -2.4851 C   0  0  0  0  0  0  0  0  0  0  0  0
   -9.2060  -21.2291   -1.6856 O   0  0  0  0  0  0  0  0  0  0  0  0
   -8.6994  -19.2494   -3.0234 C   0  0  0  0  0  0  0  0  0  0  0  0
   -9.0079  -18.3312   -1.9672 O   0  0  0  0  0  0  0  0  0  0  0  0
   -7.6637  -18.6156   -3.9669 C   0  0  0  0  0  0  0  0  0  0  0  0
   -8.1736  -17.4259   -4.5721 O   0  0  0  0  0  0  0  0  0  0  0  0
   -6.6700  -22.5349   -2.4530 H   0  0  0  0  0  0  0  0  0  0  0  0
   -9.9858  -21.3888   -2.2401 H   0  0  0  0  0  0  0  0  0  0  0  0
   -8.2680  -18.3363   -1.3315 H   0  0  0  0  0  0  0  0  0  0  0  0
   -9.1187  -17.3400   -4.3477 H   0  0  0  0  0  0  0  0  0  0  0  0
 14 15  1  0
 14 16  1  0
  2  3  1  0
  2  9  1  0
  2 15  1  0
  3  4  1  0
  4  5  1  0
  4  1  1  0
  1 17  1  0
 18 19  1  0
 18 26  1  0
 18 17  1  0
 19 20  1  0
 20 22  1  0
 20 21  1  0
 21 28  1  0
 22 23  1  0
 22 24  1  0
 23 29  1  0
 24 25  1  0
 24 26  1  0
 25 30  1  0
 26 27  1  0
 27 31  1  0
  5  6  1  0
  5  7  1  0
  6 11  1  0
  7  8  1  0
  7  9  1  0
  8 12  1  0
  9 10  1  0
 10 13  1  0
M  END
> <minimizedAffinity>
-4.53262

> <CNNscore>
0.9542825818

> <CNNaffinity>
2.8855922222

> <CNN_VS>
2.7536704540

> <CNNaffinity_variance>
0.7651937604

$$$$



 31 32  0  0  0  0  0  0  0  0999 V2000
   -4.9029  -17.4428   -6.6183 O   0  0  0  0  0  0  0  0  0  0  0  0
   -7.8917  -18.3979   -8.4835 C   0  0  0  0  0  0  0  0  0  0  0  0
   -7.0672  -17.8795   -7.4357 O   0  0  0  0  0  0  0  0  0  0  0  0
   -5.6708  -18.0861   -7.6492 C   0  0  0  0  0  0  0  0  0  0  0  0
   -5.3283  -19.5923   -7.7944 C   0  0  0  0  0  0  0  0  0  0  0  0
   -3.9411  -19.8010   -8.0980 O   0  0  0  0  0  0  0  0  0  0  0  0
   -6.2254  -20.2352   -8.8643 C   0  0  0  0  0  0  0  0  0  0  0  0
   -6.0222  -21.6620   -8.9068 O   0  0  0  0  0  0  0  0  0  0  0  0
   -7.7028  -19.9196   -8.6048 C   0  0  0  0  0  0  0  0  0  0  0  0
   -8.5476  -20.4604   -9.6263 O   0  0  0  0  0  0  0  0  0  0  0  0
   -3.7463  -19.3870   -8.9574 H   0  0  0  0  0  0  0  0  0  0  0  0
   -6.1368  -22.0203   -8.0089 H   0  0  0  0  0  0  0  0  0  0  0  0
   -8.1412  -20.2731  -10.4924 H   0  0  0  0  0  0  0  0  0  0  0  0
   -9.9574  -17.2677   -9.2183 O   0  0  0  0  0  0  0  0  0  0  0  0
   -9.3487  -18.0194   -8.1751 C   0  0  0  0  0  0  0  0  0  0  0  0
   -9.9186  -17.8187  -10.0271 H   0  0  0  0  0  0  0  0  0  0  0  0
   -5.0840  -18.0170   -5.3237 C   0  0  0  0  0  0  0  0  0  0  0  0
   -3.7628  -18.0668   -4.5434 C   0  0  0  0  0  0  0  0  0  0  0  0
   -3.3999  -19.4237   -4.2633 O   0  0  0  0  0  0  0  0  0  0  0  0
   -2.2059  -19.5202   -3.4876 C   0  0  0  0  0  0  0  0  0  0  0  0
   -2.0045  -20.8777   -3.1333 O   0  0  0  0  0  0  0  0  0  0  0  0
   -1.0036  -18.9554   -4.2733 C   0  0  0  0  0  0  0  0  0  0  0  0
    0.2188  -19.0379   -3.5280 O   0  0  0  0  0  0  0  0  0  0  0  0
   -1.2983  -17.5032   -4.6723 C   0  0  0  0  0  0  0  0  0  0  0  0
   -0.2762  -16.9620   -5.5185 O   0  0  0  0  0  0  0  0  0  0  0  0
   -2.6596  -17.3939   -5.3789 C   0  0  0  0  0  0  0  0  0  0  0  0
   -3.0001  -16.0309   -5.6396 O   0  0  0  0  0  0  0  0  0  0  0  0
   -1.6202  -21.3179   -3.9085 H   0  0  0  0  0  0  0  0  0  0  0  0
    0.1257  -18.5081   -2.7207 H   0  0  0  0  0  0  0  0  0  0  0  0
   -0.0841  -17.6117   -6.2202 H   0  0  0  0  0  0  0  0  0  0  0  0
   -2.3472  -15.4548   -5.2005 H   0  0  0  0  0  0  0  0  0  0  0  0
 14 15  1  0
 14 16  1  0
  2  3  1  0
  2  9  1  0
  2 15  1  0
  3  4  1  0
  4  5  1  0
  4  1  1  0
  1 17  1  0
 18 19  1  0
 18 26  1  0
 18 17  1  0
 19 20  1  0
 20 22  1  0
 20 21  1  0
 21 28  1  0
 22 23  1  0
 22 24  1  0
 23 29  1  0
 24 25  1  0
 24 26  1  0
 25 30  1  0
 26 27  1  0
 27 31  1  0
  5  6  1  0
  5  7  1  0
  6 11  1  0
  7  8  1  0
  7  9  1  0
  8 12  1  0
  9 10  1  0
 10 13  1  0
M  END
> <minimizedAffinity>
-4.70294

> <CNNscore>
0.9473811984

> <CNNaffinity>
3.4193718433

> <CNN_VS>
3.2394485474

> <CNNaffinity_variance>
0.2044755220

$$$$



 31 32  0  0  0  0  0  0  0  0999 V2000
   -6.7663  -18.1830   -6.0910 O   0  0  0  0  0  0  0  0  0  0  0  0
   -9.2986  -15.9210   -4.7512 C   0  0  0  0  0  0  0  0  0  0  0  0
   -8.4606  -17.0719   -4.8920 O   0  0  0  0  0  0  0  0  0  0  0  0
   -7.6603  -17.0575   -6.0741 C   0  0  0  0  0  0  0  0  0  0  0  0
   -8.5300  -16.9688   -7.3558 C   0  0  0  0  0  0  0  0  0  0  0  0
   -7.7291  -16.8640   -8.5423 O   0  0  0  0  0  0  0  0  0  0  0  0
   -9.5064  -15.7865   -7.2484 C   0  0  0  0  0  0  0  0  0  0  0  0
  -10.4200  -15.7795   -8.3639 O   0  0  0  0  0  0  0  0  0  0  0  0
  -10.2846  -15.8345   -5.9286 C   0  0  0  0  0  0  0  0  0  0  0  0
  -11.1551  -14.7070   -5.7854 O   0  0  0  0  0  0  0  0  0  0  0  0
   -7.2148  -16.0386   -8.4971 H   0  0  0  0  0  0  0  0  0  0  0  0
  -10.8431  -16.6541   -8.4260 H   0  0  0  0  0  0  0  0  0  0  0  0
  -10.6661  -13.9057   -6.0483 H   0  0  0  0  0  0  0  0  0  0  0  0
   -9.4962  -17.0463   -2.5651 O   0  0  0  0  0  0  0  0  0  0  0  0
  -10.0212  -16.0200   -3.3987 C   0  0  0  0  0  0  0  0  0  0  0  0
   -8.5485  -16.8428   -2.4244 H   0  0  0  0  0  0  0  0  0  0  0  0
   -5.4286  -17.8490   -6.4619 C   0  0  0  0  0  0  0  0  0  0  0  0
   -4.4775  -17.9289   -5.2594 C   0  0  0  0  0  0  0  0  0  0  0  0
   -4.2963  -19.2913   -4.8566 O   0  0  0  0  0  0  0  0  0  0  0  0
   -3.4642  -19.4134   -3.7036 C   0  0  0  0  0  0  0  0  0  0  0  0
   -3.4602  -20.7689   -3.2895 O   0  0  0  0  0  0  0  0  0  0  0  0
   -2.0378  -18.9106   -4.0106 C   0  0  0  0  0  0  0  0  0  0  0  0
   -1.1677  -19.0204   -2.8759 O   0  0  0  0  0  0  0  0  0  0  0  0
   -2.1088  -17.4582   -4.5007 C   0  0  0  0  0  0  0  0  0  0  0  0
   -0.8298  -16.9738   -4.9286 O   0  0  0  0  0  0  0  0  0  0  0  0
   -3.1211  -17.3156   -5.6493 C   0  0  0  0  0  0  0  0  0  0  0  0
   -3.2881  -15.9475   -6.0260 O   0  0  0  0  0  0  0  0  0  0  0  0
   -2.8428  -21.2403   -3.8718 H   0  0  0  0  0  0  0  0  0  0  0  0
   -1.5213  -18.4694   -2.1601 H   0  0  0  0  0  0  0  0  0  0  0  0
   -0.4267  -17.6459   -5.5094 H   0  0  0  0  0  0  0  0  0  0  0  0
   -2.8120  -15.3856   -5.3868 H   0  0  0  0  0  0  0  0  0  0  0  0
 14 15  1  0
 14 16  1  0
  2  3  1  0
  2  9  1  0
  2 15  1  0
  3  4  1  0
  4  5  1  0
  4  1  1  0
  1 17  1  0
 18 19  1  0
 18 26  1  0
 18 17  1  0
 19 20  1  0
 20 22  1  0
 20 21  1  0
 21 28  1  0
 22 23  1  0
 22 24  1  0
 23 29  1  0
 24 25  1  0
 24 26  1  0
 25 30  1  0
 26 27  1  0
 27 31  1  0
  5  6  1  0
  5  7  1  0
  6 11  1  0
  7  8  1  0
  7  9  1  0
  8 12  1  0
  9 10  1  0
 10 13  1  0
M  END
> <minimizedAffinity>
-5.66370

> <CNNscore>
0.9459707737

> <CNNaffinity>
3.3453629017

> <CNN_VS>
3.1646156311

> <CNNaffinity_variance>
0.3395361602

$$$$



 31 32  0  0  0  0  0  0  0  0999 V2000
   -6.9590  -18.2144   -5.3019 O   0  0  0  0  0  0  0  0  0  0  0  0
   -9.0002  -16.5739   -7.8448 C   0  0  0  0  0  0  0  0  0  0  0  0
   -7.8486  -17.0785   -7.1623 O   0  0  0  0  0  0  0  0  0  0  0  0
   -8.1386  -17.6275   -5.8768 C   0  0  0  0  0  0  0  0  0  0  0  0
   -8.7996  -16.5814   -4.9410 C   0  0  0  0  0  0  0  0  0  0  0  0
   -9.1747  -17.1513   -3.6782 O   0  0  0  0  0  0  0  0  0  0  0  0
  -10.0140  -15.9459   -5.6369 C   0  0  0  0  0  0  0  0  0  0  0  0
  -10.5495  -14.8695   -4.8409 O   0  0  0  0  0  0  0  0  0  0  0  0
   -9.6421  -15.4356   -7.0337 C   0  0  0  0  0  0  0  0  0  0  0  0
  -10.7765  -14.8949   -7.7196 O   0  0  0  0  0  0  0  0  0  0  0  0
   -9.8406  -17.8438   -3.8363 H   0  0  0  0  0  0  0  0  0  0  0  0
   -9.8292  -14.2495   -4.6297 H   0  0  0  0  0  0  0  0  0  0  0  0
  -11.5297  -15.5006   -7.5930 H   0  0  0  0  0  0  0  0  0  0  0  0
   -7.3858  -16.7695   -9.6995 O   0  0  0  0  0  0  0  0  0  0  0  0
   -8.5610  -16.1108   -9.2427 C   0  0  0  0  0  0  0  0  0  0  0  0
   -7.5827  -17.7289   -9.7112 H   0  0  0  0  0  0  0  0  0  0  0  0
   -5.7448  -17.7863   -5.9193 C   0  0  0  0  0  0  0  0  0  0  0  0
   -4.5571  -17.8926   -4.9521 C   0  0  0  0  0  0  0  0  0  0  0  0
   -4.3630  -19.2530   -4.5484 O   0  0  0  0  0  0  0  0  0  0  0  0
   -3.3044  -19.3954   -3.6020 C   0  0  0  0  0  0  0  0  0  0  0  0
   -3.2800  -20.7381   -3.1486 O   0  0  0  0  0  0  0  0  0  0  0  0
   -1.9567  -18.9858   -4.2325 C   0  0  0  0  0  0  0  0  0  0  0  0
   -0.8645  -19.1188   -3.3127 O   0  0  0  0  0  0  0  0  0  0  0  0
   -2.0581  -17.5444   -4.7488 C   0  0  0  0  0  0  0  0  0  0  0  0
   -0.8815  -17.1474   -5.4643 O   0  0  0  0  0  0  0  0  0  0  0  0
   -3.2901  -17.3706   -5.6523 C   0  0  0  0  0  0  0  0  0  0  0  0
   -3.4644  -16.0047   -6.0340 O   0  0  0  0  0  0  0  0  0  0  0  0
   -2.8319  -21.2596   -3.8340 H   0  0  0  0  0  0  0  0  0  0  0  0
   -1.0220  -18.5302   -2.5578 H   0  0  0  0  0  0  0  0  0  0  0  0
   -0.6524  -17.8563   -6.0939 H   0  0  0  0  0  0  0  0  0  0  0  0
   -2.8302  -15.4564   -5.5360 H   0  0  0  0  0  0  0  0  0  0  0  0
 14 15  1  0
 14 16  1  0
  2  3  1  0
  2  9  1  0
  2 15  1  0
  3  4  1  0
  4  5  1  0
  4  1  1  0
  1 17  1  0
 18 19  1  0
 18 26  1  0
 18 17  1  0
 19 20  1  0
 20 22  1  0
 20 21  1  0
 21 28  1  0
 22 23  1  0
 22 24  1  0
 23 29  1  0
 24 25  1  0
 24 26  1  0
 25 30  1  0
 26 27  1  0
 27 31  1  0
  5  6  1  0
  5  7  1  0
  6 11  1  0
  7  8  1  0
  7  9  1  0
  8 12  1  0
  9 10  1  0
 10 13  1  0
M  END
> <minimizedAffinity>
-5.43395

> <CNNscore>
0.9450421333

> <CNNaffinity>
3.1045277119

> <CNN_VS>
2.9339094162

> <CNNaffinity_variance>
0.4876277745

$$$$



 31 32  0  0  0  0  0  0  0  0999 V2000
   -5.6460  -17.9676   -5.0387 O   0  0  0  0  0  0  0  0  0  0  0  0
   -2.8310  -19.9730   -3.8647 C   0  0  0  0  0  0  0  0  0  0  0  0
   -4.1260  -19.3668   -3.9097 O   0  0  0  0  0  0  0  0  0  0  0  0
   -4.2923  -18.4487   -4.9902 C   0  0  0  0  0  0  0  0  0  0  0  0
   -3.2534  -17.2979   -4.9315 C   0  0  0  0  0  0  0  0  0  0  0  0
   -3.3579  -16.4215   -6.0633 O   0  0  0  0  0  0  0  0  0  0  0  0
   -1.8338  -17.8760   -4.8162 C   0  0  0  0  0  0  0  0  0  0  0  0
   -0.8713  -16.8219   -4.6124 O   0  0  0  0  0  0  0  0  0  0  0  0
   -1.7473  -18.8978   -3.6768 C   0  0  0  0  0  0  0  0  0  0  0  0
   -0.4468  -19.4907   -3.5945 O   0  0  0  0  0  0  0  0  0  0  0  0
   -3.1632  -16.9317   -6.8693 H   0  0  0  0  0  0  0  0  0  0  0  0
   -1.1554  -16.2826   -3.8533 H   0  0  0  0  0  0  0  0  0  0  0  0
   -0.1566  -19.7217   -4.4960 H   0  0  0  0  0  0  0  0  0  0  0  0
   -1.6930  -21.8627   -2.7609 O   0  0  0  0  0  0  0  0  0  0  0  0
   -2.8263  -21.0034   -2.7248 C   0  0  0  0  0  0  0  0  0  0  0  0
   -0.8998  -21.2915   -2.6992 H   0  0  0  0  0  0  0  0  0  0  0  0
   -6.6269  -18.9986   -4.9214 C   0  0  0  0  0  0  0  0  0  0  0  0
   -8.0408  -18.4142   -4.7925 C   0  0  0  0  0  0  0  0  0  0  0  0
   -8.4394  -18.3721   -3.4175 O   0  0  0  0  0  0  0  0  0  0  0  0
   -9.7719  -17.8893   -3.2503 C   0  0  0  0  0  0  0  0  0  0  0  0
  -10.1333  -18.0205   -1.8861 O   0  0  0  0  0  0  0  0  0  0  0  0
   -9.8803  -16.4254   -3.7267 C   0  0  0  0  0  0  0  0  0  0  0  0
  -11.2060  -15.9008   -3.5713 O   0  0  0  0  0  0  0  0  0  0  0  0
   -9.4303  -16.3362   -5.1911 C   0  0  0  0  0  0  0  0  0  0  0  0
   -9.3817  -14.9813   -5.6552 O   0  0  0  0  0  0  0  0  0  0  0  0
   -8.0534  -16.9932   -5.3828 C   0  0  0  0  0  0  0  0  0  0  0  0
   -7.6838  -17.0287   -6.7626 O   0  0  0  0  0  0  0  0  0  0  0  0
   -9.7289  -17.2751   -1.4138 H   0  0  0  0  0  0  0  0  0  0  0  0
  -11.8131  -16.4278   -4.1141 H   0  0  0  0  0  0  0  0  0  0  0  0
   -8.9145  -14.4455   -4.9873 H   0  0  0  0  0  0  0  0  0  0  0  0
   -8.4442  -16.7367   -7.2988 H   0  0  0  0  0  0  0  0  0  0  0  0
 14 15  1  0
 14 16  1  0
  2  3  1  0
  2  9  1  0
  2 15  1  0
  3  4  1  0
  4  5  1  0
  4  1  1  0
  1 17  1  0
 18 19  1  0
 18 26  1  0
 18 17  1  0
 19 20  1  0
 20 22  1  0
 20 21  1  0
 21 28  1  0
 22 23  1  0
 22 24  1  0
 23 29  1  0
 24 25  1  0
 24 26  1  0
 25 30  1  0
 26 27  1  0
 27 31  1  0
  5  6  1  0
  5  7  1  0
  6 11  1  0
  7  8  1  0
  7  9  1  0
  8 12  1  0
  9 10  1  0
 10 13  1  0
M  END
> <minimizedAffinity>
-5.13695

> <CNNscore>
0.9446899891

> <CNNaffinity>
2.9878711700

> <CNN_VS>
2.8226120472

> <CNNaffinity_variance>
0.7568674088

$$$$



 31 32  0  0  0  0  0  0  0  0999 V2000
   -5.4140  -17.7286   -7.3525 O   0  0  0  0  0  0  0  0  0  0  0  0
   -6.9499  -20.7366   -8.7371 C   0  0  0  0  0  0  0  0  0  0  0  0
   -6.0739  -19.9012   -7.9747 O   0  0  0  0  0  0  0  0  0  0  0  0
   -6.2429  -18.5071   -8.2317 C   0  0  0  0  0  0  0  0  0  0  0  0
   -6.0093  -18.1660   -9.7271 C   0  0  0  0  0  0  0  0  0  0  0  0
   -6.2649  -16.7821  -10.0088 O   0  0  0  0  0  0  0  0  0  0  0  0
   -6.8748  -19.0742  -10.6154 C   0  0  0  0  0  0  0  0  0  0  0  0
   -6.5603  -18.8713  -12.0079 O   0  0  0  0  0  0  0  0  0  0  0  0
   -6.6878  -20.5488  -10.2411 C   0  0  0  0  0  0  0  0  0  0  0  0
   -7.5326  -21.4041  -11.0185 O   0  0  0  0  0  0  0  0  0  0  0  0
   -7.2025  -16.5962   -9.8239 H   0  0  0  0  0  0  0  0  0  0  0  0
   -5.6001  -18.9765  -12.1293 H   0  0  0  0  0  0  0  0  0  0  0  0
   -8.4220  -21.0068  -11.0553 H   0  0  0  0  0  0  0  0  0  0  0  0
   -5.3882  -22.6258   -8.4611 O   0  0  0  0  0  0  0  0  0  0  0  0
   -6.7316  -22.1903   -8.2896 C   0  0  0  0  0  0  0  0  0  0  0  0
   -4.8237  -22.0245   -7.9328 H   0  0  0  0  0  0  0  0  0  0  0  0
   -5.8763  -17.7005   -6.0019 C   0  0  0  0  0  0  0  0  0  0  0  0
   -4.7146  -17.8493   -5.0092 C   0  0  0  0  0  0  0  0  0  0  0  0
   -4.5873  -19.2134   -4.5916 O   0  0  0  0  0  0  0  0  0  0  0  0
   -3.5556  -19.3931   -3.6220 C   0  0  0  0  0  0  0  0  0  0  0  0
   -3.5980  -20.7319   -3.1585 O   0  0  0  0  0  0  0  0  0  0  0  0
   -2.1788  -19.0465   -4.2270 C   0  0  0  0  0  0  0  0  0  0  0  0
   -1.1126  -19.2183   -3.2834 O   0  0  0  0  0  0  0  0  0  0  0  0
   -2.2077  -17.6063   -4.7558 C   0  0  0  0  0  0  0  0  0  0  0  0
   -1.0007  -17.2656   -5.4492 O   0  0  0  0  0  0  0  0  0  0  0  0
   -3.4122  -17.3876   -5.6863 C   0  0  0  0  0  0  0  0  0  0  0  0
   -3.5199  -16.0187   -6.0815 O   0  0  0  0  0  0  0  0  0  0  0  0
   -3.1586  -21.2775   -3.8304 H   0  0  0  0  0  0  0  0  0  0  0  0
   -1.2604  -18.6174   -2.5364 H   0  0  0  0  0  0  0  0  0  0  0  0
   -0.7891  -17.9888   -6.0686 H   0  0  0  0  0  0  0  0  0  0  0  0
   -2.8733  -15.4938   -5.5742 H   0  0  0  0  0  0  0  0  0  0  0  0
 14 15  1  0
 14 16  1  0
  2  3  1  0
  2  9  1  0
  2 15  1  0
  3  4  1  0
  4  5  1  0
  4  1  1  0
  1 17  1  0
 18 19  1  0
 18 26  1  0
 18 17  1  0
 19 20  1  0
 20 22  1  0
 20 21  1  0
 21 28  1  0
 22 23  1  0
 22 24  1  0
 23 29  1  0
 24 25  1  0
 24 26  1  0
 25 30  1  0
 26 27  1  0
 27 31  1  0
  5  6  1  0
  5  7  1  0
  6 11  1  0
  7  8  1  0
  7  9  1  0
  8 12  1  0
  9 10  1  0
 10 13  1  0
M  END
> <minimizedAffinity>
-4.64670

> <CNNscore>
0.9414535761

> <CNNaffinity>
3.0723435879

> <CNN_VS>
2.8924689293

> <CNNaffinity_variance>
0.4227558672

$$$$



 31 32  0  0  0  0  0  0  0  0999 V2000
   -6.1600  -20.2830   -4.1080 O   0  0  0  0  0  0  0  0  0  0  0  0
   -8.6532  -19.3707   -1.6029 C   0  0  0  0  0  0  0  0  0  0  0  0
   -7.6156  -20.0981   -2.2668 O   0  0  0  0  0  0  0  0  0  0  0  0
   -7.2811  -19.5752   -3.5524 C   0  0  0  0  0  0  0  0  0  0  0  0
   -8.5066  -19.5609   -4.5037 C   0  0  0  0  0  0  0  0  0  0  0  0
   -8.1987  -18.9543   -5.7675 O   0  0  0  0  0  0  0  0  0  0  0  0
   -9.6889  -18.8478   -3.8279 C   0  0  0  0  0  0  0  0  0  0  0  0
  -10.8769  -18.9554   -4.6379 O   0  0  0  0  0  0  0  0  0  0  0  0
   -9.9492  -19.4196   -2.4298 C   0  0  0  0  0  0  0  0  0  0  0  0
  -11.0087  -18.7256   -1.7623 O   0  0  0  0  0  0  0  0  0  0  0  0
   -7.9547  -18.0245   -5.6137 H   0  0  0  0  0  0  0  0  0  0  0  0
  -11.0301  -19.8946   -4.8436 H   0  0  0  0  0  0  0  0  0  0  0  0
  -10.8806  -17.7684   -1.8948 H   0  0  0  0  0  0  0  0  0  0  0  0
   -9.3102  -19.0302    0.7502 O   0  0  0  0  0  0  0  0  0  0  0  0
   -8.8383  -19.9755   -0.2024 C   0  0  0  0  0  0  0  0  0  0  0  0
  -10.1662  -18.6914    0.4160 H   0  0  0  0  0  0  0  0  0  0  0  0
   -4.9415  -20.0829   -3.3912 C   0  0  0  0  0  0  0  0  0  0  0  0
   -3.8546  -19.4793   -4.2920 C   0  0  0  0  0  0  0  0  0  0  0  0
   -4.1984  -18.1379   -4.6577 O   0  0  0  0  0  0  0  0  0  0  0  0
   -3.2451  -17.5526   -5.5439 C   0  0  0  0  0  0  0  0  0  0  0  0
   -3.7356  -16.2925   -5.9685 O   0  0  0  0  0  0  0  0  0  0  0  0
   -1.8721  -17.4221   -4.8514 C   0  0  0  0  0  0  0  0  0  0  0  0
   -0.8853  -16.8334   -5.7095 O   0  0  0  0  0  0  0  0  0  0  0  0
   -1.4157  -18.8058   -4.3700 C   0  0  0  0  0  0  0  0  0  0  0  0
   -0.2083  -18.7344   -3.6014 O   0  0  0  0  0  0  0  0  0  0  0  0
   -2.5141  -19.4864   -3.5364 C   0  0  0  0  0  0  0  0  0  0  0  0
   -2.1489  -20.8242   -3.1918 O   0  0  0  0  0  0  0  0  0  0  0  0
   -3.5587  -15.6639   -5.2502 H   0  0  0  0  0  0  0  0  0  0  0  0
   -0.7662  -17.4063   -6.4832 H   0  0  0  0  0  0  0  0  0  0  0  0
   -0.3041  -18.0178   -2.9467 H   0  0  0  0  0  0  0  0  0  0  0  0
   -1.3299  -21.0581   -3.6664 H   0  0  0  0  0  0  0  0  0  0  0  0
 14 15  1  0
 14 16  1  0
  2  3  1  0
  2  9  1  0
  2 15  1  0
  3  4  1  0
  4  5  1  0
  4  1  1  0
  1 17  1  0
 18 19  1  0
 18 26  1  0
 18 17  1  0
 19 20  1  0
 20 22  1  0
 20 21  1  0
 21 28  1  0
 22 23  1  0
 22 24  1  0
 23 29  1  0
 24 25  1  0
 24 26  1  0
 25 30  1  0
 26 27  1  0
 27 31  1  0
  5  6  1  0
  5  7  1  0
  6 11  1  0
  7  8  1  0
  7  9  1  0
  8 12  1  0
  9 10  1  0
 10 13  1  0
M  END
> <minimizedAffinity>
-5.20834

> <CNNscore>
0.9387162328

> <CNNaffinity>
2.8751957417

> <CNN_VS>
2.6989929676

> <CNNaffinity_variance>
0.8096610904

$$$$



 31 32  0  0  0  0  0  0  0  0999 V2000
   -5.7381  -19.6846   -3.6918 O   0  0  0  0  0  0  0  0  0  0  0  0
   -2.1865  -19.1237   -4.3210 C   0  0  0  0  0  0  0  0  0  0  0  0
   -3.3992  -19.4245   -3.6241 O   0  0  0  0  0  0  0  0  0  0  0  0
   -4.5736  -19.2577   -4.4185 C   0  0  0  0  0  0  0  0  0  0  0  0
   -4.7044  -17.8072   -4.9533 C   0  0  0  0  0  0  0  0  0  0  0  0
   -5.8345  -17.6559   -5.8251 O   0  0  0  0  0  0  0  0  0  0  0  0
   -3.4063  -17.3889   -5.6625 C   0  0  0  0  0  0  0  0  0  0  0  0
   -3.4571  -15.9969   -6.0348 O   0  0  0  0  0  0  0  0  0  0  0  0
   -2.1851  -17.6541   -4.7749 C   0  0  0  0  0  0  0  0  0  0  0  0
   -0.9626  -17.3262   -5.4439 O   0  0  0  0  0  0  0  0  0  0  0  0
   -5.7057  -18.2286   -6.6018 H   0  0  0  0  0  0  0  0  0  0  0  0
   -3.6793  -15.4710   -5.2462 H   0  0  0  0  0  0  0  0  0  0  0  0
   -1.0056  -17.6770   -6.3524 H   0  0  0  0  0  0  0  0  0  0  0  0
   -0.4334  -18.2761   -2.8068 O   0  0  0  0  0  0  0  0  0  0  0  0
   -1.0085  -19.4410   -3.3867 C   0  0  0  0  0  0  0  0  0  0  0  0
   -1.1449  -17.8251   -2.3072 H   0  0  0  0  0  0  0  0  0  0  0  0
   -6.6115  -20.5241   -4.4476 C   0  0  0  0  0  0  0  0  0  0  0  0
   -8.0489  -19.9849   -4.4432 C   0  0  0  0  0  0  0  0  0  0  0  0
   -8.1055  -18.7213   -3.7713 O   0  0  0  0  0  0  0  0  0  0  0  0
   -9.4336  -18.2054   -3.6902 C   0  0  0  0  0  0  0  0  0  0  0  0
   -9.4175  -17.0375   -2.8874 O   0  0  0  0  0  0  0  0  0  0  0  0
   -9.9881  -17.9155   -5.1009 C   0  0  0  0  0  0  0  0  0  0  0  0
  -11.3222  -17.3909   -5.0624 O   0  0  0  0  0  0  0  0  0  0  0  0
   -9.9349  -19.2003   -5.9384 C   0  0  0  0  0  0  0  0  0  0  0  0
  -10.3132  -18.9679   -7.3009 O   0  0  0  0  0  0  0  0  0  0  0  0
   -8.5305  -19.8250   -5.8960 C   0  0  0  0  0  0  0  0  0  0  0  0
   -8.5041  -21.0865   -6.5664 O   0  0  0  0  0  0  0  0  0  0  0  0
   -9.0953  -16.3136   -3.4482 H   0  0  0  0  0  0  0  0  0  0  0  0
  -11.9030  -18.0512   -4.6529 H   0  0  0  0  0  0  0  0  0  0  0  0
   -9.8365  -18.1793   -7.6207 H   0  0  0  0  0  0  0  0  0  0  0  0
   -9.4169  -21.3362   -6.8014 H   0  0  0  0  0  0  0  0  0  0  0  0
 14 15  1  0
 14 16  1  0
  2  3  1  0
  2  9  1  0
  2 15  1  0
  3  4  1  0
  4  5  1  0
  4  1  1  0
  1 17  1  0
 18 19  1  0
 18 26  1  0
 18 17  1  0
 19 20  1  0
 20 22  1  0
 20 21  1  0
 21 28  1  0
 22 23  1  0
 22 24  1  0
 23 29  1  0
 24 25  1  0
 24 26  1  0
 25 30  1  0
 26 27  1  0
 27 31  1  0
  5  6  1  0
  5  7  1  0
  6 11  1  0
  7  8  1  0
  7  9  1  0
  8 12  1  0
  9 10  1  0
 10 13  1  0
M  END
> <minimizedAffinity>
-5.28307

> <CNNscore>
0.9357800484

> <CNNaffinity>
3.0211408138

> <CNN_VS>
2.8271234035

> <CNNaffinity_variance>
0.5042544007

$$$$



 31 32  0  0  0  0  0  0  0  0999 V2000
   -1.7244  -20.9464   -3.7281 O   0  0  0  0  0  0  0  0  0  0  0  0
   -0.1646  -22.8061   -1.0018 C   0  0  0  0  0  0  0  0  0  0  0  0
   -1.1592  -22.3463   -1.9216 O   0  0  0  0  0  0  0  0  0  0  0  0
   -0.7163  -21.2779   -2.7585 C   0  0  0  0  0  0  0  0  0  0  0  0
   -0.2615  -20.0485   -1.9286 C   0  0  0  0  0  0  0  0  0  0  0  0
    0.2683  -19.0053   -2.7599 O   0  0  0  0  0  0  0  0  0  0  0  0
    0.7662  -20.4795   -0.8697 C   0  0  0  0  0  0  0  0  0  0  0  0
    1.0872  -19.3783    0.0039 O   0  0  0  0  0  0  0  0  0  0  0  0
    0.2478  -21.6683   -0.0526 C   0  0  0  0  0  0  0  0  0  0  0  0
    1.2178  -22.1210    0.8980 O   0  0  0  0  0  0  0  0  0  0  0  0
    1.0603  -19.3431   -3.2142 H   0  0  0  0  0  0  0  0  0  0  0  0
    0.2592  -19.0135    0.3633 H   0  0  0  0  0  0  0  0  0  0  0  0
    2.0863  -22.1586    0.4570 H   0  0  0  0  0  0  0  0  0  0  0  0
   -2.1526  -23.9520   -0.0966 O   0  0  0  0  0  0  0  0  0  0  0  0
   -0.7388  -24.0124   -0.2425 C   0  0  0  0  0  0  0  0  0  0  0  0
   -2.5312  -23.9133   -0.9990 H   0  0  0  0  0  0  0  0  0  0  0  0
   -2.8345  -20.2335   -3.1822 C   0  0  0  0  0  0  0  0  0  0  0  0
   -3.6750  -19.5756   -4.2858 C   0  0  0  0  0  0  0  0  0  0  0  0
   -5.0051  -19.3254   -3.8173 O   0  0  0  0  0  0  0  0  0  0  0  0
   -5.8434  -18.7663   -4.8280 C   0  0  0  0  0  0  0  0  0  0  0  0
   -7.1673  -18.6908   -4.3275 O   0  0  0  0  0  0  0  0  0  0  0  0
   -5.3203  -17.3795   -5.2580 C   0  0  0  0  0  0  0  0  0  0  0  0
   -6.1393  -16.7810   -6.2717 O   0  0  0  0  0  0  0  0  0  0  0  0
   -3.8705  -17.5145   -5.7422 C   0  0  0  0  0  0  0  0  0  0  0  0
   -3.2816  -16.2406   -6.0323 O   0  0  0  0  0  0  0  0  0  0  0  0
   -3.0109  -18.2513   -4.7017 C   0  0  0  0  0  0  0  0  0  0  0  0
   -1.6928  -18.4943   -5.1969 O   0  0  0  0  0  0  0  0  0  0  0  0
   -7.2099  -17.9053   -3.7587 H   0  0  0  0  0  0  0  0  0  0  0  0
   -6.1271  -17.3513   -7.0563 H   0  0  0  0  0  0  0  0  0  0  0  0
   -3.4741  -15.6382   -5.2897 H   0  0  0  0  0  0  0  0  0  0  0  0
   -1.6612  -18.2467   -6.1396 H   0  0  0  0  0  0  0  0  0  0  0  0
 14 15  1  0
 14 16  1  0
  2  3  1  0
  2  9  1  0
  2 15  1  0
  3  4  1  0
  4  5  1  0
  4  1  1  0
  1 17  1  0
 18 19  1  0
 18 26  1  0
 18 17  1  0
 19 20  1  0
 20 22  1  0
 20 21  1  0
 21 28  1  0
 22 23  1  0
 22 24  1  0
 23 29  1  0
 24 25  1  0
 24 26  1  0
 25 30  1  0
 26 27  1  0
 27 31  1  0
  5  6  1  0
  5  7  1  0
  6 11  1  0
  7  8  1  0
  7  9  1  0
  8 12  1  0
  9 10  1  0
 10 13  1  0
M  END
> <minimizedAffinity>
-4.57725

> <CNNscore>
0.9259822369

> <CNNaffinity>
2.9264490604

> <CNN_VS>
2.7098398209

> <CNNaffinity_variance>
0.6121378541

$$$$



 31 32  0  0  0  0  0  0  0  0999 V2000
   -5.6489  -17.4146   -5.5373 O   0  0  0  0  0  0  0  0  0  0  0  0
   -3.2994  -19.7482   -4.0016 C   0  0  0  0  0  0  0  0  0  0  0  0
   -4.4818  -18.9706   -4.2108 O   0  0  0  0  0  0  0  0  0  0  0  0
   -4.3914  -18.0764   -5.3200 C   0  0  0  0  0  0  0  0  0  0  0  0
   -3.2139  -17.0790   -5.1595 C   0  0  0  0  0  0  0  0  0  0  0  0
   -3.0627  -16.2364   -6.3116 O   0  0  0  0  0  0  0  0  0  0  0  0
   -1.9130  -17.8437   -4.8663 C   0  0  0  0  0  0  0  0  0  0  0  0
   -0.8409  -16.9264   -4.5691 O   0  0  0  0  0  0  0  0  0  0  0  0
   -2.1033  -18.8274   -3.7062 C   0  0  0  0  0  0  0  0  0  0  0  0
   -0.9179  -19.5914   -3.4595 O   0  0  0  0  0  0  0  0  0  0  0  0
   -2.8509  -16.7962   -7.0793 H   0  0  0  0  0  0  0  0  0  0  0  0
   -1.1311  -16.3269   -3.8590 H   0  0  0  0  0  0  0  0  0  0  0  0
   -0.5618  -19.8914   -4.3159 H   0  0  0  0  0  0  0  0  0  0  0  0
   -4.1402  -21.9560   -3.2924 O   0  0  0  0  0  0  0  0  0  0  0  0
   -3.5714  -20.7292   -2.8506 C   0  0  0  0  0  0  0  0  0  0  0  0
   -3.5077  -22.3516   -3.9270 H   0  0  0  0  0  0  0  0  0  0  0  0
   -6.7173  -18.3036   -5.8640 C   0  0  0  0  0  0  0  0  0  0  0  0
   -6.7059  -18.6688   -7.3552 C   0  0  0  0  0  0  0  0  0  0  0  0
   -6.3930  -17.5177   -8.1480 O   0  0  0  0  0  0  0  0  0  0  0  0
   -6.4272  -17.7937   -9.5477 C   0  0  0  0  0  0  0  0  0  0  0  0
   -6.2544  -16.5768  -10.2535 O   0  0  0  0  0  0  0  0  0  0  0  0
   -5.3416  -18.8247   -9.9222 C   0  0  0  0  0  0  0  0  0  0  0  0
   -5.3406  -19.1267  -11.3241 O   0  0  0  0  0  0  0  0  0  0  0  0
   -5.5485  -20.0995   -9.0934 C   0  0  0  0  0  0  0  0  0  0  0  0
   -4.4944  -21.0485   -9.2976 O   0  0  0  0  0  0  0  0  0  0  0  0
   -5.6568  -19.7685   -7.5957 C   0  0  0  0  0  0  0  0  0  0  0  0
   -5.9765  -20.9316   -6.8297 O   0  0  0  0  0  0  0  0  0  0  0  0
   -5.3044  -16.3774  -10.2445 H   0  0  0  0  0  0  0  0  0  0  0  0
   -6.1993  -19.5121  -11.5586 H   0  0  0  0  0  0  0  0  0  0  0  0
   -3.6423  -20.5785   -9.2309 H   0  0  0  0  0  0  0  0  0  0  0  0
   -6.1782  -21.6641   -7.4409 H   0  0  0  0  0  0  0  0  0  0  0  0
 14 15  1  0
 14 16  1  0
  2  3  1  0
  2  9  1  0
  2 15  1  0
  3  4  1  0
  4  5  1  0
  4  1  1  0
  1 17  1  0
 18 19  1  0
 18 26  1  0
 18 17  1  0
 19 20  1  0
 20 22  1  0
 20 21  1  0
 21 28  1  0
 22 23  1  0
 22 24  1  0
 23 29  1  0
 24 25  1  0
 24 26  1  0
 25 30  1  0
 26 27  1  0
 27 31  1  0
  5  6  1  0
  5  7  1  0
  6 11  1  0
  7  8  1  0
  7  9  1  0
  8 12  1  0
  9 10  1  0
 10 13  1  0
M  END
> <minimizedAffinity>
-4.72137

> <CNNscore>
0.9172952175

> <CNNaffinity>
2.9433345795

> <CNN_VS>
2.6999068260

> <CNNaffinity_variance>
0.7256183028

$$$$



 31 32  0  0  0  0  0  0  0  0999 V2000
   -1.2713  -20.5529   -3.5214 O   0  0  0  0  0  0  0  0  0  0  0  0
    0.4102  -20.3675   -0.2868 C   0  0  0  0  0  0  0  0  0  0  0  0
   -0.5500  -20.1304   -1.3204 O   0  0  0  0  0  0  0  0  0  0  0  0
   -0.2116  -20.7370   -2.5677 C   0  0  0  0  0  0  0  0  0  0  0  0
    1.1586  -20.2372   -3.0967 C   0  0  0  0  0  0  0  0  0  0  0  0
    1.5457  -20.9091   -4.3045 O   0  0  0  0  0  0  0  0  0  0  0  0
    2.2337  -20.4016   -2.0103 C   0  0  0  0  0  0  0  0  0  0  0  0
    3.4775  -19.8073   -2.4330 O   0  0  0  0  0  0  0  0  0  0  0  0
    1.7754  -19.7818   -0.6854 C   0  0  0  0  0  0  0  0  0  0  0  0
    2.7402  -19.9795    0.3537 O   0  0  0  0  0  0  0  0  0  0  0  0
    1.6508  -21.8576   -4.1115 H   0  0  0  0  0  0  0  0  0  0  0  0
    3.3077  -18.8876   -2.7036 H   0  0  0  0  0  0  0  0  0  0  0  0
    3.0494  -20.9032    0.3146 H   0  0  0  0  0  0  0  0  0  0  0  0
    0.6367  -18.6304    1.4497 O   0  0  0  0  0  0  0  0  0  0  0  0
   -0.1265  -19.7489    1.0134 C   0  0  0  0  0  0  0  0  0  0  0  0
    0.6107  -17.9684    0.7283 H   0  0  0  0  0  0  0  0  0  0  0  0
   -2.2608  -19.6108   -3.1064 C   0  0  0  0  0  0  0  0  0  0  0  0
   -3.1801  -19.2149   -4.2705 C   0  0  0  0  0  0  0  0  0  0  0  0
   -4.5494  -19.2267   -3.8508 O   0  0  0  0  0  0  0  0  0  0  0  0
   -5.4491  -18.9210   -4.9155 C   0  0  0  0  0  0  0  0  0  0  0  0
   -6.7765  -19.0999   -4.4522 O   0  0  0  0  0  0  0  0  0  0  0  0
   -5.2157  -17.4828   -5.4244 C   0  0  0  0  0  0  0  0  0  0  0  0
   -6.1048  -17.1348   -6.4944 O   0  0  0  0  0  0  0  0  0  0  0  0
   -3.7533  -17.3340   -5.8647 C   0  0  0  0  0  0  0  0  0  0  0  0
   -3.4368  -15.9835   -6.2250 O   0  0  0  0  0  0  0  0  0  0  0  0
   -2.7963  -17.8067   -4.7579 C   0  0  0  0  0  0  0  0  0  0  0  0
   -1.4392  -17.7920   -5.2050 O   0  0  0  0  0  0  0  0  0  0  0  0
   -7.0052  -18.3090   -3.9379 H   0  0  0  0  0  0  0  0  0  0  0  0
   -5.9434  -17.7353   -7.2389 H   0  0  0  0  0  0  0  0  0  0  0  0
   -3.7797  -15.3927   -5.5287 H   0  0  0  0  0  0  0  0  0  0  0  0
   -1.4259  -17.6003   -6.1611 H   0  0  0  0  0  0  0  0  0  0  0  0
 14 15  1  0
 14 16  1  0
  2  3  1  0
  2  9  1  0
  2 15  1  0
  3  4  1  0
  4  5  1  0
  4  1  1  0
  1 17  1  0
 18 19  1  0
 18 26  1  0
 18 17  1  0
 19 20  1  0
 20 22  1  0
 20 21  1  0
 21 28  1  0
 22 23  1  0
 22 24  1  0
 23 29  1  0
 24 25  1  0
 24 26  1  0
 25 30  1  0
 26 27  1  0
 27 31  1  0
  5  6  1  0
  5  7  1  0
  6 11  1  0
  7  8  1  0
  7  9  1  0
  8 12  1  0
  9 10  1  0
 10 13  1  0
M  END
> <minimizedAffinity>
-4.94694

> <CNNscore>
0.9148425460

> <CNNaffinity>
2.7824399471

> <CNN_VS>
2.5454945564

> <CNNaffinity_variance>
0.6798052192

$$$$



 31 32  0  0  0  0  0  0  0  0999 V2000
   -5.5672  -17.8337   -4.9939 O   0  0  0  0  0  0  0  0  0  0  0  0
   -2.8507  -20.0017   -3.8782 C   0  0  0  0  0  0  0  0  0  0  0  0
   -4.1138  -19.3303   -3.9028 O   0  0  0  0  0  0  0  0  0  0  0  0
   -4.2393  -18.3832   -4.9637 C   0  0  0  0  0  0  0  0  0  0  0  0
   -3.1433  -17.2876   -4.8886 C   0  0  0  0  0  0  0  0  0  0  0  0
   -3.2095  -16.3843   -6.0020 O   0  0  0  0  0  0  0  0  0  0  0  0
   -1.7541  -17.9388   -4.7939 C   0  0  0  0  0  0  0  0  0  0  0  0
   -0.7386  -16.9388   -4.5752 O   0  0  0  0  0  0  0  0  0  0  0  0
   -1.7132  -18.9864   -3.6758 C   0  0  0  0  0  0  0  0  0  0  0  0
   -0.4439  -19.6457   -3.6135 O   0  0  0  0  0  0  0  0  0  0  0  0
   -3.0451  -16.8872   -6.8192 H   0  0  0  0  0  0  0  0  0  0  0  0
   -0.9910  -16.4013   -3.8037 H   0  0  0  0  0  0  0  0  0  0  0  0
   -0.1705  -19.8727   -4.5213 H   0  0  0  0  0  0  0  0  0  0  0  0
   -2.0655  -20.7160   -1.6517 O   0  0  0  0  0  0  0  0  0  0  0  0
   -2.8919  -21.0540   -2.7592 C   0  0  0  0  0  0  0  0  0  0  0  0
   -2.3820  -19.8536   -1.3121 H   0  0  0  0  0  0  0  0  0  0  0  0
   -6.4558  -18.5258   -5.8715 C   0  0  0  0  0  0  0  0  0  0  0  0
   -6.4051  -17.9450   -7.2918 C   0  0  0  0  0  0  0  0  0  0  0  0
   -5.7947  -18.8783   -8.1907 O   0  0  0  0  0  0  0  0  0  0  0  0
   -5.6719  -18.3600   -9.5147 C   0  0  0  0  0  0  0  0  0  0  0  0
   -4.9298  -19.2819  -10.2947 O   0  0  0  0  0  0  0  0  0  0  0  0
   -7.0652  -18.0957  -10.1233 C   0  0  0  0  0  0  0  0  0  0  0  0
   -6.9850  -17.5768  -11.4577 O   0  0  0  0  0  0  0  0  0  0  0  0
   -7.8395  -17.1330   -9.2130 C   0  0  0  0  0  0  0  0  0  0  0  0
   -9.1909  -16.9495   -9.6531 O   0  0  0  0  0  0  0  0  0  0  0  0
   -7.8376  -17.6322   -7.7586 C   0  0  0  0  0  0  0  0  0  0  0  0
   -8.4451  -16.6801   -6.8832 O   0  0  0  0  0  0  0  0  0  0  0  0
   -5.5416  -19.9900  -10.5531 H   0  0  0  0  0  0  0  0  0  0  0  0
   -6.5143  -16.7290  -11.4326 H   0  0  0  0  0  0  0  0  0  0  0  0
   -9.5732  -17.8269   -9.8415 H   0  0  0  0  0  0  0  0  0  0  0  0
   -8.6206  -15.8615   -7.3832 H   0  0  0  0  0  0  0  0  0  0  0  0
 14 15  1  0
 14 16  1  0
  2  3  1  0
  2  9  1  0
  2 15  1  0
  3  4  1  0
  4  5  1  0
  4  1  1  0
  1 17  1  0
 18 19  1  0
 18 26  1  0
 18 17  1  0
 19 20  1  0
 20 22  1  0
 20 21  1  0
 21 28  1  0
 22 23  1  0
 22 24  1  0
 23 29  1  0
 24 25  1  0
 24 26  1  0
 25 30  1  0
 26 27  1  0
 27 31  1  0
  5  6  1  0
  5  7  1  0
  6 11  1  0
  7  8  1  0
  7  9  1  0
  8 12  1  0
  9 10  1  0
 10 13  1  0
M  END
> <minimizedAffinity>
-4.44812

> <CNNscore>
0.9136100411

> <CNNaffinity>
2.9507420063

> <CNN_VS>
2.6958274841

> <CNNaffinity_variance>
0.5390648842

$$$$



 31 32  0  0  0  0  0  0  0  0999 V2000
   -5.0612  -19.5186   -7.2551 O   0  0  0  0  0  0  0  0  0  0  0  0
   -4.9100  -20.1047  -10.8548 C   0  0  0  0  0  0  0  0  0  0  0  0
   -4.5126  -20.0523   -9.4815 O   0  0  0  0  0  0  0  0  0  0  0  0
   -5.4761  -19.4339   -8.6287 C   0  0  0  0  0  0  0  0  0  0  0  0
   -5.7830  -17.9782   -9.0691 C   0  0  0  0  0  0  0  0  0  0  0  0
   -6.8157  -17.3817   -8.2705 O   0  0  0  0  0  0  0  0  0  0  0  0
   -6.1572  -17.9473  -10.5597 C   0  0  0  0  0  0  0  0  0  0  0  0
   -6.3010  -16.5881  -11.0189 O   0  0  0  0  0  0  0  0  0  0  0  0
   -5.1104  -18.6823  -11.4045 C   0  0  0  0  0  0  0  0  0  0  0  0
   -5.4747  -18.7151  -12.7887 O   0  0  0  0  0  0  0  0  0  0  0  0
   -7.6367  -17.8896   -8.3959 H   0  0  0  0  0  0  0  0  0  0  0  0
   -5.4936  -16.0945  -10.7903 H   0  0  0  0  0  0  0  0  0  0  0  0
   -6.4197  -18.9455  -12.8525 H   0  0  0  0  0  0  0  0  0  0  0  0
   -3.0833  -20.0494  -12.5113 O   0  0  0  0  0  0  0  0  0  0  0  0
   -3.8347  -20.8788  -11.6331 C   0  0  0  0  0  0  0  0  0  0  0  0
   -2.6642  -19.3564  -11.9605 H   0  0  0  0  0  0  0  0  0  0  0  0
   -5.1824  -18.2881   -6.5411 C   0  0  0  0  0  0  0  0  0  0  0  0
   -4.2773  -18.2686   -5.3012 C   0  0  0  0  0  0  0  0  0  0  0  0
   -3.9389  -19.6041   -4.9098 O   0  0  0  0  0  0  0  0  0  0  0  0
   -3.1443  -19.6407   -3.7249 C   0  0  0  0  0  0  0  0  0  0  0  0
   -2.9828  -20.9921   -3.3295 O   0  0  0  0  0  0  0  0  0  0  0  0
   -1.7832  -18.9543   -3.9653 C   0  0  0  0  0  0  0  0  0  0  0  0
   -0.9518  -18.9735   -2.7970 O   0  0  0  0  0  0  0  0  0  0  0  0
   -2.0205  -17.5138   -4.4381 C   0  0  0  0  0  0  0  0  0  0  0  0
   -0.7982  -16.8622   -4.8057 O   0  0  0  0  0  0  0  0  0  0  0  0
   -2.9964  -17.4800   -5.6258 C   0  0  0  0  0  0  0  0  0  0  0  0
   -3.3225  -16.1375   -5.9905 O   0  0  0  0  0  0  0  0  0  0  0  0
   -2.2875  -21.3698   -3.8919 H   0  0  0  0  0  0  0  0  0  0  0  0
   -1.4012  -18.4857   -2.0891 H   0  0  0  0  0  0  0  0  0  0  0  0
   -0.2896  -17.4662   -5.3783 H   0  0  0  0  0  0  0  0  0  0  0  0
   -2.9481  -15.5316   -5.3244 H   0  0  0  0  0  0  0  0  0  0  0  0
 14 15  1  0
 14 16  1  0
  2  3  1  0
  2  9  1  0
  2 15  1  0
  3  4  1  0
  4  5  1  0
  4  1  1  0
  1 17  1  0
 18 19  1  0
 18 26  1  0
 18 17  1  0
 19 20  1  0
 20 22  1  0
 20 21  1  0
 21 28  1  0
 22 23  1  0
 22 24  1  0
 23 29  1  0
 24 25  1  0
 24 26  1  0
 25 30  1  0
 26 27  1  0
 27 31  1  0
  5  6  1  0
  5  7  1  0
  6 11  1  0
  7  8  1  0
  7  9  1  0
  8 12  1  0
  9 10  1  0
 10 13  1  0
M  END
> <minimizedAffinity>
-4.59474

> <CNNscore>
0.9131016135

> <CNNaffinity>
2.9516890049

> <CNN_VS>
2.6951920986

> <CNNaffinity_variance>
0.6618902683

$$$$



 31 32  0  0  0  0  0  0  0  0999 V2000
   -5.1502  -17.5777   -5.1507 O   0  0  0  0  0  0  0  0  0  0  0  0
   -3.1073  -20.2321   -3.6999 C   0  0  0  0  0  0  0  0  0  0  0  0
   -4.1880  -19.3129   -3.8834 O   0  0  0  0  0  0  0  0  0  0  0  0
   -3.9815  -18.3912   -4.9538 C   0  0  0  0  0  0  0  0  0  0  0  0
   -2.6967  -17.5467   -4.7453 C   0  0  0  0  0  0  0  0  0  0  0  0
   -2.4355  -16.6817   -5.8604 O   0  0  0  0  0  0  0  0  0  0  0  0
   -1.4978  -18.4705   -4.4766 C   0  0  0  0  0  0  0  0  0  0  0  0
   -0.3287  -17.6987   -4.1354 O   0  0  0  0  0  0  0  0  0  0  0  0
   -1.8146  -19.4713   -3.3596 C   0  0  0  0  0  0  0  0  0  0  0  0
   -0.7298  -20.3789   -3.1381 O   0  0  0  0  0  0  0  0  0  0  0  0
   -2.2827  -17.2309   -6.6496 H   0  0  0  0  0  0  0  0  0  0  0  0
   -0.5540  -17.0986   -3.4027 H   0  0  0  0  0  0  0  0  0  0  0  0
   -0.4022  -20.6838   -4.0041 H   0  0  0  0  0  0  0  0  0  0  0  0
   -2.7019  -21.0941   -1.4246 O   0  0  0  0  0  0  0  0  0  0  0  0
   -3.5048  -21.2202   -2.5923 C   0  0  0  0  0  0  0  0  0  0  0  0
   -2.8052  -20.1740   -1.1053 H   0  0  0  0  0  0  0  0  0  0  0  0
   -6.3597  -18.3276   -5.2661 C   0  0  0  0  0  0  0  0  0  0  0  0
   -7.5647  -17.4110   -5.5206 C   0  0  0  0  0  0  0  0  0  0  0  0
   -7.8489  -17.3387   -6.9225 O   0  0  0  0  0  0  0  0  0  0  0  0
   -8.9272  -16.4510   -7.2155 C   0  0  0  0  0  0  0  0  0  0  0  0
   -9.0416  -16.3265   -8.6228 O   0  0  0  0  0  0  0  0  0  0  0  0
  -10.2380  -16.9654   -6.5839 C   0  0  0  0  0  0  0  0  0  0  0  0
  -11.3488  -16.1012   -6.8594 O   0  0  0  0  0  0  0  0  0  0  0  0
  -10.0397  -17.1279   -5.0710 C   0  0  0  0  0  0  0  0  0  0  0  0
  -11.1793  -17.7282   -4.4426 O   0  0  0  0  0  0  0  0  0  0  0  0
   -8.7870  -17.9668   -4.7688 C   0  0  0  0  0  0  0  0  0  0  0  0
   -8.5226  -18.0164   -3.3655 O   0  0  0  0  0  0  0  0  0  0  0  0
   -9.5119  -17.1147   -8.9388 H   0  0  0  0  0  0  0  0  0  0  0  0
  -11.1652  -15.2292   -6.4760 H   0  0  0  0  0  0  0  0  0  0  0  0
  -11.4436  -18.5066   -4.9676 H   0  0  0  0  0  0  0  0  0  0  0  0
   -9.1281  -17.4023   -2.9102 H   0  0  0  0  0  0  0  0  0  0  0  0
 14 15  1  0
 14 16  1  0
  2  3  1  0
  2  9  1  0
  2 15  1  0
  3  4  1  0
  4  5  1  0
  4  1  1  0
  1 17  1  0
 18 19  1  0
 18 26  1  0
 18 17  1  0
 19 20  1  0
 20 22  1  0
 20 21  1  0
 21 28  1  0
 22 23  1  0
 22 24  1  0
 23 29  1  0
 24 25  1  0
 24 26  1  0
 25 30  1  0
 26 27  1  0
 27 31  1  0
  5  6  1  0
  5  7  1  0
  6 11  1  0
  7  8  1  0
  7  9  1  0
  8 12  1  0
  9 10  1  0
 10 13  1  0
M  END
> <minimizedAffinity>
-4.70337

> <CNNscore>
0.9061319828

> <CNNaffinity>
3.0035607815

> <CNN_VS>
2.7216224670

> <CNNaffinity_variance>
0.4931730330

$$$$



 31 32  0  0  0  0  0  0  0  0999 V2000
   -1.0441  -18.7221   -4.3644 O   0  0  0  0  0  0  0  0  0  0  0  0
   -4.5383  -19.4883   -3.6378 C   0  0  0  0  0  0  0  0  0  0  0  0
   -3.1517  -19.6789   -3.9337 O   0  0  0  0  0  0  0  0  0  0  0  0
   -2.4471  -18.4636   -4.1877 C   0  0  0  0  0  0  0  0  0  0  0  0
   -3.0624  -17.6804   -5.3773 C   0  0  0  0  0  0  0  0  0  0  0  0
   -2.4145  -16.4159   -5.5806 O   0  0  0  0  0  0  0  0  0  0  0  0
   -4.5724  -17.4928   -5.1589 C   0  0  0  0  0  0  0  0  0  0  0  0
   -5.1835  -16.8980   -6.3215 O   0  0  0  0  0  0  0  0  0  0  0  0
   -5.2503  -18.8278   -4.8305 C   0  0  0  0  0  0  0  0  0  0  0  0
   -6.6472  -18.6615   -4.5646 O   0  0  0  0  0  0  0  0  0  0  0  0
   -2.5486  -15.8679   -4.7871 H   0  0  0  0  0  0  0  0  0  0  0  0
   -4.9467  -17.4273   -7.1036 H   0  0  0  0  0  0  0  0  0  0  0  0
   -6.7593  -17.8877   -3.9826 H   0  0  0  0  0  0  0  0  0  0  0  0
   -6.3396  -20.7540   -2.5253 O   0  0  0  0  0  0  0  0  0  0  0  0
   -5.1439  -20.8569   -3.2891 C   0  0  0  0  0  0  0  0  0  0  0  0
   -6.9748  -20.2328   -3.0584 H   0  0  0  0  0  0  0  0  0  0  0  0
   -0.7280  -20.1077   -4.5024 C   0  0  0  0  0  0  0  0  0  0  0  0
    0.2517  -20.5695   -3.4142 C   0  0  0  0  0  0  0  0  0  0  0  0
    1.3750  -19.6835   -3.3459 O   0  0  0  0  0  0  0  0  0  0  0  0
    2.3442  -20.1041   -2.3866 C   0  0  0  0  0  0  0  0  0  0  0  0
    3.4792  -19.2616   -2.4902 O   0  0  0  0  0  0  0  0  0  0  0  0
    1.7452  -20.0753   -0.9646 C   0  0  0  0  0  0  0  0  0  0  0  0
    2.6910  -20.4885    0.0311 O   0  0  0  0  0  0  0  0  0  0  0  0
    0.4943  -20.9632   -0.9254 C   0  0  0  0  0  0  0  0  0  0  0  0
   -0.1856  -20.8760    0.3331 O   0  0  0  0  0  0  0  0  0  0  0  0
   -0.4767  -20.5933   -2.0589 C   0  0  0  0  0  0  0  0  0  0  0  0
   -1.5829  -21.4964   -2.1090 O   0  0  0  0  0  0  0  0  0  0  0  0
    3.2655  -18.4405   -2.0186 H   0  0  0  0  0  0  0  0  0  0  0  0
    2.9552  -21.4034   -0.1535 H   0  0  0  0  0  0  0  0  0  0  0  0
   -0.2714  -19.9337    0.5700 H   0  0  0  0  0  0  0  0  0  0  0  0
   -1.4184  -22.2289   -1.4867 H   0  0  0  0  0  0  0  0  0  0  0  0
 14 15  1  0
 14 16  1  0
  2  3  1  0
  2  9  1  0
  2 15  1  0
  3  4  1  0
  4  5  1  0
  4  1  1  0
  1 17  1  0
 18 19  1  0
 18 26  1  0
 18 17  1  0
 19 20  1  0
 20 22  1  0
 20 21  1  0
 21 28  1  0
 22 23  1  0
 22 24  1  0
 23 29  1  0
 24 25  1  0
 24 26  1  0
 25 30  1  0
 26 27  1  0
 27 31  1  0
  5  6  1  0
  5  7  1  0
  6 11  1  0
  7  8  1  0
  7  9  1  0
  8 12  1  0
  9 10  1  0
 10 13  1  0
M  END
> <minimizedAffinity>
-4.51382

> <CNNscore>
0.9058486819

> <CNNaffinity>
2.8109910488

> <CNN_VS>
2.5463325977

> <CNNaffinity_variance>
0.6371057034

$$$$



 31 32  0  0  0  0  0  0  0  0999 V2000
   -0.9798  -19.0337   -4.3600 O   0  0  0  0  0  0  0  0  0  0  0  0
   -4.5106  -19.6057   -3.6318 C   0  0  0  0  0  0  0  0  0  0  0  0
   -3.1419  -19.8714   -3.9520 O   0  0  0  0  0  0  0  0  0  0  0  0
   -2.3614  -18.6935   -4.1555 C   0  0  0  0  0  0  0  0  0  0  0  0
   -2.9338  -17.8153   -5.2993 C   0  0  0  0  0  0  0  0  0  0  0  0
   -2.2063  -16.5872   -5.4492 O   0  0  0  0  0  0  0  0  0  0  0  0
   -4.4265  -17.5409   -5.0553 C   0  0  0  0  0  0  0  0  0  0  0  0
   -5.0067  -16.8521   -6.1814 O   0  0  0  0  0  0  0  0  0  0  0  0
   -5.1875  -18.8434   -4.7836 C   0  0  0  0  0  0  0  0  0  0  0  0
   -6.5683  -18.5999   -4.4944 O   0  0  0  0  0  0  0  0  0  0  0  0
   -2.2979  -16.0707   -4.6291 H   0  0  0  0  0  0  0  0  0  0  0  0
   -4.8113  -17.3572   -6.9904 H   0  0  0  0  0  0  0  0  0  0  0  0
   -6.6250  -17.8494   -3.8748 H   0  0  0  0  0  0  0  0  0  0  0  0
   -6.3853  -20.8035   -2.5663 O   0  0  0  0  0  0  0  0  0  0  0  0
   -5.2016  -20.9473   -3.3421 C   0  0  0  0  0  0  0  0  0  0  0  0
   -6.9877  -20.2187   -3.0707 H   0  0  0  0  0  0  0  0  0  0  0  0
   -0.7544  -20.4303   -4.5536 C   0  0  0  0  0  0  0  0  0  0  0  0
    0.3623  -20.6806   -5.5770 C   0  0  0  0  0  0  0  0  0  0  0  0
   -0.1961  -20.9590   -6.8662 O   0  0  0  0  0  0  0  0  0  0  0  0
    0.8030  -21.2563   -7.8409 C   0  0  0  0  0  0  0  0  0  0  0  0
    0.1614  -21.6618   -9.0379 O   0  0  0  0  0  0  0  0  0  0  0  0
    1.7133  -20.0318   -8.0728 C   0  0  0  0  0  0  0  0  0  0  0  0
    2.7303  -20.2891   -9.0506 O   0  0  0  0  0  0  0  0  0  0  0  0
    2.3398  -19.6082   -6.7377 C   0  0  0  0  0  0  0  0  0  0  0  0
    3.0933  -18.3953   -6.8601 O   0  0  0  0  0  0  0  0  0  0  0  0
    1.2608  -19.4339   -5.6561 C   0  0  0  0  0  0  0  0  0  0  0  0
    1.8447  -19.1646   -4.3801 O   0  0  0  0  0  0  0  0  0  0  0  0
   -0.1361  -20.8540   -9.4866 H   0  0  0  0  0  0  0  0  0  0  0  0
    3.2926  -21.0115   -8.7298 H   0  0  0  0  0  0  0  0  0  0  0  0
    2.5538  -17.7482   -7.3517 H   0  0  0  0  0  0  0  0  0  0  0  0
    2.8116  -19.2714   -4.4487 H   0  0  0  0  0  0  0  0  0  0  0  0
 14 15  1  0
 14 16  1  0
  2  3  1  0
  2  9  1  0
  2 15  1  0
  3  4  1  0
  4  5  1  0
  4  1  1  0
  1 17  1  0
 18 19  1  0
 18 26  1  0
 18 17  1  0
 19 20  1  0
 20 22  1  0
 20 21  1  0
 21 28  1  0
 22 23  1  0
 22 24  1  0
 23 29  1  0
 24 25  1  0
 24 26  1  0
 25 30  1  0
 26 27  1  0
 27 31  1  0
  5  6  1  0
  5  7  1  0
  6 11  1  0
  7  8  1  0
  7  9  1  0
  8 12  1  0
  9 10  1  0
 10 13  1  0
M  END
> <minimizedAffinity>
-4.88020

> <CNNscore>
0.9035031796

> <CNNaffinity>
2.7813642025

> <CNN_VS>
2.5129714012

> <CNNaffinity_variance>
0.6319729686

$$$$



 31 32  0  0  0  0  0  0  0  0999 V2000
   -4.5748  -19.0477   -5.9566 O   0  0  0  0  0  0  0  0  0  0  0  0
   -1.3826  -20.1226   -4.5501 C   0  0  0  0  0  0  0  0  0  0  0  0
   -2.7833  -20.0887   -4.8388 O   0  0  0  0  0  0  0  0  0  0  0  0
   -3.1826  -18.9561   -5.6106 C   0  0  0  0  0  0  0  0  0  0  0  0
   -2.8327  -17.6230   -4.8983 C   0  0  0  0  0  0  0  0  0  0  0  0
   -3.1504  -16.4815   -5.7083 O   0  0  0  0  0  0  0  0  0  0  0  0
   -1.3486  -17.6140   -4.4980 C   0  0  0  0  0  0  0  0  0  0  0  0
   -1.0433  -16.4482   -3.7065 O   0  0  0  0  0  0  0  0  0  0  0  0
   -0.9794  -18.8869   -3.7278 C   0  0  0  0  0  0  0  0  0  0  0  0
    0.4137  -18.9225   -3.4000 O   0  0  0  0  0  0  0  0  0  0  0  0
   -2.6096  -16.5154   -6.5172 H   0  0  0  0  0  0  0  0  0  0  0  0
   -1.6676  -16.4053   -2.9607 H   0  0  0  0  0  0  0  0  0  0  0  0
    0.9216  -18.6489   -4.1857 H   0  0  0  0  0  0  0  0  0  0  0  0
   -1.0573  -21.2769   -2.3946 O   0  0  0  0  0  0  0  0  0  0  0  0
   -1.0803  -21.4340   -3.8083 C   0  0  0  0  0  0  0  0  0  0  0  0
   -1.9376  -20.9383   -2.1308 H   0  0  0  0  0  0  0  0  0  0  0  0
   -4.8282  -18.9284   -7.3567 C   0  0  0  0  0  0  0  0  0  0  0  0
   -6.2403  -18.3897   -7.6263 C   0  0  0  0  0  0  0  0  0  0  0  0
   -7.1082  -19.4511   -8.0407 O   0  0  0  0  0  0  0  0  0  0  0  0
   -8.4205  -18.9898   -8.3597 C   0  0  0  0  0  0  0  0  0  0  0  0
   -9.1622  -20.0710   -8.8977 O   0  0  0  0  0  0  0  0  0  0  0  0
   -9.1052  -18.4001   -7.1086 C   0  0  0  0  0  0  0  0  0  0  0  0
  -10.4303  -17.9279   -7.3870 O   0  0  0  0  0  0  0  0  0  0  0  0
   -8.2350  -17.2702   -6.5420 C   0  0  0  0  0  0  0  0  0  0  0  0
   -8.7496  -16.7677   -5.3025 O   0  0  0  0  0  0  0  0  0  0  0  0
   -6.7855  -17.7422   -6.3412 C   0  0  0  0  0  0  0  0  0  0  0  0
   -5.9408  -16.6635   -5.9355 O   0  0  0  0  0  0  0  0  0  0  0  0
   -9.4583  -20.6115   -8.1476 H   0  0  0  0  0  0  0  0  0  0  0  0
  -10.3744  -17.2197   -8.0475 H   0  0  0  0  0  0  0  0  0  0  0  0
   -8.9637  -17.5275   -4.7295 H   0  0  0  0  0  0  0  0  0  0  0  0
   -6.4456  -15.8311   -5.9924 H   0  0  0  0  0  0  0  0  0  0  0  0
 14 15  1  0
 14 16  1  0
  2  3  1  0
  2  9  1  0
  2 15  1  0
  3  4  1  0
  4  5  1  0
  4  1  1  0
  1 17  1  0
 18 19  1  0
 18 26  1  0
 18 17  1  0
 19 20  1  0
 20 22  1  0
 20 21  1  0
 21 28  1  0
 22 23  1  0
 22 24  1  0
 23 29  1  0
 24 25  1  0
 24 26  1  0
 25 30  1  0
 26 27  1  0
 27 31  1  0
  5  6  1  0
  5  7  1  0
  6 11  1  0
  7  8  1  0
  7  9  1  0
  8 12  1  0
  9 10  1  0
 10 13  1  0
M  END
> <minimizedAffinity>
-4.69035

> <CNNscore>
0.8945192099

> <CNNaffinity>
3.3133366108

> <CNN_VS>
2.9638433456

> <CNNaffinity_variance>
0.3584782779

$$$$



 31 32  0  0  0  0  0  0  0  0999 V2000
   -6.7314  -19.9881   -4.7188 O   0  0  0  0  0  0  0  0  0  0  0  0
   -9.5132  -17.6615   -4.3031 C   0  0  0  0  0  0  0  0  0  0  0  0
   -8.2272  -18.1707   -4.6686 O   0  0  0  0  0  0  0  0  0  0  0  0
   -7.9903  -19.5053   -4.2203 C   0  0  0  0  0  0  0  0  0  0  0  0
   -8.1037  -19.6219   -2.6774 C   0  0  0  0  0  0  0  0  0  0  0  0
   -7.9550  -20.9770   -2.2286 O   0  0  0  0  0  0  0  0  0  0  0  0
   -9.4412  -19.0316   -2.2021 C   0  0  0  0  0  0  0  0  0  0  0  0
   -9.4980  -18.9982   -0.7617 O   0  0  0  0  0  0  0  0  0  0  0  0
   -9.6545  -17.6247   -2.7719 C   0  0  0  0  0  0  0  0  0  0  0  0
  -10.9234  -17.0843   -2.3879 O   0  0  0  0  0  0  0  0  0  0  0  0
   -8.6801  -21.5085   -2.6021 H   0  0  0  0  0  0  0  0  0  0  0  0
   -8.7073  -18.5379   -0.4289 H   0  0  0  0  0  0  0  0  0  0  0  0
  -11.5997  -17.7772   -2.5011 H   0  0  0  0  0  0  0  0  0  0  0  0
   -9.5175  -15.2152   -3.9868 O   0  0  0  0  0  0  0  0  0  0  0  0
   -9.6702  -16.2679   -4.9314 C   0  0  0  0  0  0  0  0  0  0  0  0
   -8.6235  -15.3082   -3.5978 H   0  0  0  0  0  0  0  0  0  0  0  0
   -5.9824  -19.0064   -5.4355 C   0  0  0  0  0  0  0  0  0  0  0  0
   -4.7123  -18.6041   -4.6726 C   0  0  0  0  0  0  0  0  0  0  0  0
   -4.0000  -19.7691   -4.2407 O   0  0  0  0  0  0  0  0  0  0  0  0
   -2.8395  -19.4466   -3.4752 C   0  0  0  0  0  0  0  0  0  0  0  0
   -2.2839  -20.6475   -2.9673 O   0  0  0  0  0  0  0  0  0  0  0  0
   -1.8211  -18.6715   -4.3376 C   0  0  0  0  0  0  0  0  0  0  0  0
   -0.6366  -18.3314   -3.6043 O   0  0  0  0  0  0  0  0  0  0  0  0
   -2.4914  -17.4107   -4.8997 C   0  0  0  0  0  0  0  0  0  0  0  0
   -1.6389  -16.7141   -5.8171 O   0  0  0  0  0  0  0  0  0  0  0  0
   -3.8176  -17.7584   -5.5959 C   0  0  0  0  0  0  0  0  0  0  0  0
   -4.5104  -16.5792   -6.0096 O   0  0  0  0  0  0  0  0  0  0  0  0
   -1.7799  -21.0537   -3.6908 H   0  0  0  0  0  0  0  0  0  0  0  0
   -0.8853  -17.7568   -2.8634 H   0  0  0  0  0  0  0  0  0  0  0  0
   -1.2643  -17.3641   -6.4405 H   0  0  0  0  0  0  0  0  0  0  0  0
   -4.0469  -15.8004   -5.6498 H   0  0  0  0  0  0  0  0  0  0  0  0
 14 15  1  0
 14 16  1  0
  2  3  1  0
  2  9  1  0
  2 15  1  0
  3  4  1  0
  4  5  1  0
  4  1  1  0
  1 17  1  0
 18 19  1  0
 18 26  1  0
 18 17  1  0
 19 20  1  0
 20 22  1  0
 20 21  1  0
 21 28  1  0
 22 23  1  0
 22 24  1  0
 23 29  1  0
 24 25  1  0
 24 26  1  0
 25 30  1  0
 26 27  1  0
 27 31  1  0
  5  6  1  0
  5  7  1  0
  6 11  1  0
  7  8  1  0
  7  9  1  0
  8 12  1  0
  9 10  1  0
 10 13  1  0
M  END
> <minimizedAffinity>
-5.63713

> <CNNscore>
0.8870616555

> <CNNaffinity>
2.6987669468

> <CNN_VS>
2.3939726353

> <CNNaffinity_variance>
1.0163403749

$$$$
