


 31 32  0  0  0  0  0  0  0  0999 V2000
   -9.6549   -0.2088   14.2228 O   0  0  0  0  0  0  0  0  0  0  0  0
   -7.9664    2.9816   13.6803 C   0  0  0  0  0  0  0  0  0  0  0  0
   -8.7380    1.9577   14.3149 O   0  0  0  0  0  0  0  0  0  0  0  0
   -8.9750    0.8206   13.4849 C   0  0  0  0  0  0  0  0  0  0  0  0
   -9.7187    1.2070   12.1793 C   0  0  0  0  0  0  0  0  0  0  0  0
   -9.8805    0.0838   11.3006 O   0  0  0  0  0  0  0  0  0  0  0  0
   -8.9781    2.3532   11.4715 C   0  0  0  0  0  0  0  0  0  0  0  0
   -9.7344    2.8221   10.3370 O   0  0  0  0  0  0  0  0  0  0  0  0
   -8.7043    3.5105   12.4387 C   0  0  0  0  0  0  0  0  0  0  0  0
   -7.9617    4.5612   11.8108 O   0  0  0  0  0  0  0  0  0  0  0  0
   -8.9986   -0.2321   11.0357 H   0  0  0  0  0  0  0  0  0  0  0  0
  -10.6366    3.0393   10.6317 H   0  0  0  0  0  0  0  0  0  0  0  0
   -7.2390    4.1604   11.2938 H   0  0  0  0  0  0  0  0  0  0  0  0
   -6.6850    4.9947   14.3048 O   0  0  0  0  0  0  0  0  0  0  0  0
   -7.7043    4.0897   14.7121 C   0  0  0  0  0  0  0  0  0  0  0  0
   -6.9758    5.3890   13.4567 H   0  0  0  0  0  0  0  0  0  0  0  0
   -8.8626   -1.3759   14.4443 C   0  0  0  0  0  0  0  0  0  0  0  0
   -9.7404   -2.6222   14.6266 C   0  0  0  0  0  0  0  0  0  0  0  0
  -10.0606   -2.8086   16.0101 O   0  0  0  0  0  0  0  0  0  0  0  0
  -10.8287   -3.9896   16.2380 C   0  0  0  0  0  0  0  0  0  0  0  0
  -10.9718   -4.1739   17.6360 O   0  0  0  0  0  0  0  0  0  0  0  0
  -12.1997   -3.8866   15.5369 C   0  0  0  0  0  0  0  0  0  0  0  0
  -13.0050   -5.0547   15.7456 O   0  0  0  0  0  0  0  0  0  0  0  0
  -11.9831   -3.6381   14.0382 C   0  0  0  0  0  0  0  0  0  0  0  0
  -13.2177   -3.4012   13.3503 O   0  0  0  0  0  0  0  0  0  0  0  0
  -11.0337   -2.4502   13.8107 C   0  0  0  0  0  0  0  0  0  0  0  0
  -10.7253   -2.2914   12.4245 O   0  0  0  0  0  0  0  0  0  0  0  0
  -11.6766   -3.5742   17.9293 H   0  0  0  0  0  0  0  0  0  0  0  0
  -12.5437   -5.8203   15.3686 H   0  0  0  0  0  0  0  0  0  0  0  0
  -13.7345   -2.7525   13.8637 H   0  0  0  0  0  0  0  0  0  0  0  0
  -11.0893   -3.0510   11.9331 H   0  0  0  0  0  0  0  0  0  0  0  0
 14 15  1  0
 14 16  1  0
  2  3  1  0
  2  9  1  0
  2 15  1  0
  3  4  1  0
  4  5  1  0
  4  1  1  0
  1 17  1  0
 18 19  1  0
 18 26  1  0
 18 17  1  0
 19 20  1  0
 20 22  1  0
 20 21  1  0
 21 28  1  0
 22 23  1  0
 22 24  1  0
 23 29  1  0
 24 25  1  0
 24 26  1  0
 25 30  1  0
 26 27  1  0
 27 31  1  0
  5  6  1  0
  5  7  1  0
  6 11  1  0
  7  8  1  0
  7  9  1  0
  8 12  1  0
  9 10  1  0
 10 13  1  0
M  END
> <minimizedAffinity>
-4.85701

> <CNNscore>
0.9232109189

> <CNNaffinity>
3.2207109928

> <CNN_VS>
2.9733955860

> <CNNaffinity_variance>
0.2814676464

$$$$



 31 32  0  0  0  0  0  0  0  0999 V2000
   -8.8383    0.6959   12.2123 O   0  0  0  0  0  0  0  0  0  0  0  0
   -7.9218    4.0465   13.3338 C   0  0  0  0  0  0  0  0  0  0  0  0
   -8.2264    2.6493   13.3753 O   0  0  0  0  0  0  0  0  0  0  0  0
   -8.6607    2.1195   12.1227 C   0  0  0  0  0  0  0  0  0  0  0  0
   -9.9281    2.8458   11.6001 C   0  0  0  0  0  0  0  0  0  0  0  0
  -10.3174    2.3785   10.3000 O   0  0  0  0  0  0  0  0  0  0  0  0
   -9.6967    4.3654   11.5888 C   0  0  0  0  0  0  0  0  0  0  0  0
  -10.9123    5.0615   11.2468 O   0  0  0  0  0  0  0  0  0  0  0  0
   -9.1733    4.8517   12.9450 C   0  0  0  0  0  0  0  0  0  0  0  0
   -8.8950    6.2560   12.9329 O   0  0  0  0  0  0  0  0  0  0  0  0
   -9.6019    2.5798    9.6713 H   0  0  0  0  0  0  0  0  0  0  0  0
  -11.6219    4.7609   11.8417 H   0  0  0  0  0  0  0  0  0  0  0  0
   -8.4199    6.4682   12.1086 H   0  0  0  0  0  0  0  0  0  0  0  0
   -6.3098    5.3947   14.6252 O   0  0  0  0  0  0  0  0  0  0  0  0
   -7.3757    4.4564   14.7103 C   0  0  0  0  0  0  0  0  0  0  0  0
   -6.6581    6.1805   14.1557 H   0  0  0  0  0  0  0  0  0  0  0  0
   -9.6825    0.2886   13.2894 C   0  0  0  0  0  0  0  0  0  0  0  0
   -9.0735   -0.8889   14.0638 C   0  0  0  0  0  0  0  0  0  0  0  0
   -8.7097   -0.4803   15.3875 O   0  0  0  0  0  0  0  0  0  0  0  0
   -8.0847   -1.5272   16.1292 C   0  0  0  0  0  0  0  0  0  0  0  0
   -7.6273   -0.9981   17.3619 O   0  0  0  0  0  0  0  0  0  0  0  0
   -9.0669   -2.6979   16.3448 C   0  0  0  0  0  0  0  0  0  0  0  0
   -8.4768   -3.7709   17.0911 O   0  0  0  0  0  0  0  0  0  0  0  0
   -9.5659   -3.1959   14.9818 C   0  0  0  0  0  0  0  0  0  0  0  0
  -10.5829   -4.1966   15.1164 O   0  0  0  0  0  0  0  0  0  0  0  0
  -10.1030   -2.0303   14.1349 C   0  0  0  0  0  0  0  0  0  0  0  0
  -10.4511   -2.4636   12.8185 O   0  0  0  0  0  0  0  0  0  0  0  0
   -8.3978   -0.9458   17.9501 H   0  0  0  0  0  0  0  0  0  0  0  0
   -7.7200   -4.1159   16.5919 H   0  0  0  0  0  0  0  0  0  0  0  0
  -11.2362   -3.8830   15.7694 H   0  0  0  0  0  0  0  0  0  0  0  0
  -10.1562   -3.3859   12.7035 H   0  0  0  0  0  0  0  0  0  0  0  0
 14 15  1  0
 14 16  1  0
  2  3  1  0
  2  9  1  0
  2 15  1  0
  3  4  1  0
  4  5  1  0
  4  1  1  0
  1 17  1  0
 18 19  1  0
 18 26  1  0
 18 17  1  0
 19 20  1  0
 20 22  1  0
 20 21  1  0
 21 28  1  0
 22 23  1  0
 22 24  1  0
 23 29  1  0
 24 25  1  0
 24 26  1  0
 25 30  1  0
 26 27  1  0
 27 31  1  0
  5  6  1  0
  5  7  1  0
  6 11  1  0
  7  8  1  0
  7  9  1  0
  8 12  1  0
  9 10  1  0
 10 13  1  0
M  END
> <minimizedAffinity>
-5.07999

> <CNNscore>
0.8125125170

> <CNNaffinity>
2.6400067806

> <CNN_VS>
2.1450386047

> <CNNaffinity_variance>
0.7494042516

$$$$



 31 32  0  0  0  0  0  0  0  0999 V2000
  -10.0184    5.0585   11.0941 O   0  0  0  0  0  0  0  0  0  0  0  0
  -11.8770    8.0621   10.1732 C   0  0  0  0  0  0  0  0  0  0  0  0
  -11.2541    6.7788   10.0661 O   0  0  0  0  0  0  0  0  0  0  0  0
  -10.5188    6.3993   11.2295 C   0  0  0  0  0  0  0  0  0  0  0  0
   -9.3998    7.4216   11.5609 C   0  0  0  0  0  0  0  0  0  0  0  0
   -8.7155    7.0930   12.7791 O   0  0  0  0  0  0  0  0  0  0  0  0
   -9.9868    8.8407   11.6285 C   0  0  0  0  0  0  0  0  0  0  0  0
   -8.9378    9.8168   11.7891 O   0  0  0  0  0  0  0  0  0  0  0  0
  -10.8128    9.1540   10.3759 C   0  0  0  0  0  0  0  0  0  0  0  0
  -11.4168   10.4499   10.4500 O   0  0  0  0  0  0  0  0  0  0  0  0
   -9.3539    7.1312   13.5131 H   0  0  0  0  0  0  0  0  0  0  0  0
   -8.2760    9.6817   11.0879 H   0  0  0  0  0  0  0  0  0  0  0  0
  -11.7976   10.5612   11.3404 H   0  0  0  0  0  0  0  0  0  0  0  0
  -14.0894    8.0010    9.0842 O   0  0  0  0  0  0  0  0  0  0  0  0
  -12.7094    8.2955    8.9028 C   0  0  0  0  0  0  0  0  0  0  0  0
  -14.4118    8.5784    9.8065 H   0  0  0  0  0  0  0  0  0  0  0  0
   -9.2025    4.6365   12.1872 C   0  0  0  0  0  0  0  0  0  0  0  0
   -9.5255    3.1943   12.6029 C   0  0  0  0  0  0  0  0  0  0  0  0
  -10.6782    3.1665   13.4525 O   0  0  0  0  0  0  0  0  0  0  0  0
  -10.9848    1.8511   13.9134 C   0  0  0  0  0  0  0  0  0  0  0  0
  -12.0383    1.9363   14.8577 O   0  0  0  0  0  0  0  0  0  0  0  0
  -11.3591    0.9365   12.7280 C   0  0  0  0  0  0  0  0  0  0  0  0
  -11.6785   -0.3961   13.1507 O   0  0  0  0  0  0  0  0  0  0  0  0
  -10.2049    0.9225   11.7169 C   0  0  0  0  0  0  0  0  0  0  0  0
  -10.5421    0.1957   10.5287 O   0  0  0  0  0  0  0  0  0  0  0  0
   -9.7876    2.3538   11.3408 C   0  0  0  0  0  0  0  0  0  0  0  0
   -8.6323    2.3527   10.4999 O   0  0  0  0  0  0  0  0  0  0  0  0
  -12.8628    2.0279   14.3536 H   0  0  0  0  0  0  0  0  0  0  0  0
  -10.8975   -0.7810   13.5782 H   0  0  0  0  0  0  0  0  0  0  0  0
  -11.4236    0.4885   10.2307 H   0  0  0  0  0  0  0  0  0  0  0  0
   -8.2843    1.4434   10.4461 H   0  0  0  0  0  0  0  0  0  0  0  0
 14 15  1  0
 14 16  1  0
  2  3  1  0
  2  9  1  0
  2 15  1  0
  3  4  1  0
  4  5  1  0
  4  1  1  0
  1 17  1  0
 18 19  1  0
 18 26  1  0
 18 17  1  0
 19 20  1  0
 20 22  1  0
 20 21  1  0
 21 28  1  0
 22 23  1  0
 22 24  1  0
 23 29  1  0
 24 25  1  0
 24 26  1  0
 25 30  1  0
 26 27  1  0
 27 31  1  0
  5  6  1  0
  5  7  1  0
  6 11  1  0
  7  8  1  0
  7  9  1  0
  8 12  1  0
  9 10  1  0
 10 13  1  0
M  END
> <minimizedAffinity>
-4.66192

> <CNNscore>
0.7992897630

> <CNNaffinity>
3.1860058308

> <CNN_VS>
2.5465419292

> <CNNaffinity_variance>
0.1206789240

$$$$



 31 32  0  0  0  0  0  0  0  0999 V2000
   -8.3109    4.6039   11.9505 O   0  0  0  0  0  0  0  0  0  0  0  0
   -8.8242    7.3663   14.2807 C   0  0  0  0  0  0  0  0  0  0  0  0
   -8.4745    6.0709   13.7847 O   0  0  0  0  0  0  0  0  0  0  0  0
   -8.7912    5.8800   12.4058 C   0  0  0  0  0  0  0  0  0  0  0  0
  -10.3052    6.0786   12.1311 C   0  0  0  0  0  0  0  0  0  0  0  0
  -10.6156    5.9762   10.7335 O   0  0  0  0  0  0  0  0  0  0  0  0
  -10.7698    7.4302   12.6972 C   0  0  0  0  0  0  0  0  0  0  0  0
  -12.2007    7.5643   12.5811 O   0  0  0  0  0  0  0  0  0  0  0  0
  -10.3413    7.5897   14.1602 C   0  0  0  0  0  0  0  0  0  0  0  0
  -10.7135    8.8687   14.6849 O   0  0  0  0  0  0  0  0  0  0  0  0
  -10.1508    6.6884   10.2598 H   0  0  0  0  0  0  0  0  0  0  0  0
  -12.6210    6.7855   12.9869 H   0  0  0  0  0  0  0  0  0  0  0  0
  -10.4927    9.5489   14.0225 H   0  0  0  0  0  0  0  0  0  0  0  0
   -9.3539    7.1472   16.6798 O   0  0  0  0  0  0  0  0  0  0  0  0
   -8.3392    7.4667   15.7354 C   0  0  0  0  0  0  0  0  0  0  0  0
   -9.6458    6.2325   16.4866 H   0  0  0  0  0  0  0  0  0  0  0  0
   -8.1296    3.6510   12.9982 C   0  0  0  0  0  0  0  0  0  0  0  0
   -9.1177    2.4829   12.8699 C   0  0  0  0  0  0  0  0  0  0  0  0
  -10.1850    2.6267   13.8141 O   0  0  0  0  0  0  0  0  0  0  0  0
  -11.1006    1.5328   13.7732 C   0  0  0  0  0  0  0  0  0  0  0  0
  -12.0317    1.6819   14.8313 O   0  0  0  0  0  0  0  0  0  0  0  0
  -11.8065    1.4695   12.4022 C   0  0  0  0  0  0  0  0  0  0  0  0
  -12.7398    0.3837   12.3220 O   0  0  0  0  0  0  0  0  0  0  0  0
  -10.7499    1.3591   11.2949 C   0  0  0  0  0  0  0  0  0  0  0  0
  -11.3339    1.4290    9.9880 O   0  0  0  0  0  0  0  0  0  0  0  0
   -9.6860    2.4597   11.4401 C   0  0  0  0  0  0  0  0  0  0  0  0
   -8.6305    2.2885   10.4922 O   0  0  0  0  0  0  0  0  0  0  0  0
  -12.6888    2.3342   14.5397 H   0  0  0  0  0  0  0  0  0  0  0  0
  -12.2564   -0.4494   12.4376 H   0  0  0  0  0  0  0  0  0  0  0  0
  -11.9555    2.1805    9.9704 H   0  0  0  0  0  0  0  0  0  0  0  0
   -8.7534    1.4351   10.0366 H   0  0  0  0  0  0  0  0  0  0  0  0
 14 15  1  0
 14 16  1  0
  2  3  1  0
  2  9  1  0
  2 15  1  0
  3  4  1  0
  4  5  1  0
  4  1  1  0
  1 17  1  0
 18 19  1  0
 18 26  1  0
 18 17  1  0
 19 20  1  0
 20 22  1  0
 20 21  1  0
 21 28  1  0
 22 23  1  0
 22 24  1  0
 23 29  1  0
 24 25  1  0
 24 26  1  0
 25 30  1  0
 26 27  1  0
 27 31  1  0
  5  6  1  0
  5  7  1  0
  6 11  1  0
  7  8  1  0
  7  9  1  0
  8 12  1  0
  9 10  1  0
 10 13  1  0
M  END
> <minimizedAffinity>
-4.69787

> <CNNscore>
0.7903935313

> <CNNaffinity>
2.9819920063

> <CNN_VS>
2.3569471836

> <CNNaffinity_variance>
0.4185051918

$$$$



 31 32  0  0  0  0  0  0  0  0999 V2000
  -10.7134    2.2090   12.8918 O   0  0  0  0  0  0  0  0  0  0  0  0
   -7.8369    3.5132   14.7219 C   0  0  0  0  0  0  0  0  0  0  0  0
   -9.1376    2.9764   14.4637 O   0  0  0  0  0  0  0  0  0  0  0  0
   -9.4435    2.8574   13.0744 C   0  0  0  0  0  0  0  0  0  0  0  0
   -9.3646    4.2267   12.3493 C   0  0  0  0  0  0  0  0  0  0  0  0
   -9.5834    4.0999   10.9364 O   0  0  0  0  0  0  0  0  0  0  0  0
   -8.0109    4.8964   12.6355 C   0  0  0  0  0  0  0  0  0  0  0  0
   -7.9798    6.2314   12.0914 O   0  0  0  0  0  0  0  0  0  0  0  0
   -7.7230    4.9326   14.1406 C   0  0  0  0  0  0  0  0  0  0  0  0
   -6.4383    5.4989   14.4208 O   0  0  0  0  0  0  0  0  0  0  0  0
   -8.8763    3.5453   10.5619 H   0  0  0  0  0  0  0  0  0  0  0  0
   -8.7549    6.7203   12.4201 H   0  0  0  0  0  0  0  0  0  0  0  0
   -5.7922    5.1190   13.7975 H   0  0  0  0  0  0  0  0  0  0  0  0
   -6.3866    4.1178   16.6233 O   0  0  0  0  0  0  0  0  0  0  0  0
   -7.6048    3.4905   16.2408 C   0  0  0  0  0  0  0  0  0  0  0  0
   -6.4299    5.0431   16.3050 H   0  0  0  0  0  0  0  0  0  0  0  0
  -10.7145    0.8314   13.2670 C   0  0  0  0  0  0  0  0  0  0  0  0
  -11.2326   -0.0586   12.1283 C   0  0  0  0  0  0  0  0  0  0  0  0
  -12.4943   -0.6369   12.4820 O   0  0  0  0  0  0  0  0  0  0  0  0
  -12.9905   -1.5203   11.4770 C   0  0  0  0  0  0  0  0  0  0  0  0
  -14.1574   -2.1565   11.9694 O   0  0  0  0  0  0  0  0  0  0  0  0
  -13.2743   -0.7485   10.1710 C   0  0  0  0  0  0  0  0  0  0  0  0
  -13.7793   -1.6020    9.1351 O   0  0  0  0  0  0  0  0  0  0  0  0
  -11.9917   -0.0413    9.7135 C   0  0  0  0  0  0  0  0  0  0  0  0
  -12.2204    0.8010    8.5768 O   0  0  0  0  0  0  0  0  0  0  0  0
  -11.3876    0.7924   10.8556 C   0  0  0  0  0  0  0  0  0  0  0  0
  -10.1275    1.3510   10.4790 O   0  0  0  0  0  0  0  0  0  0  0  0
  -14.8867   -1.5232   11.8724 H   0  0  0  0  0  0  0  0  0  0  0  0
  -13.1099   -2.2748    8.9344 H   0  0  0  0  0  0  0  0  0  0  0  0
  -13.0164    1.3379    8.7490 H   0  0  0  0  0  0  0  0  0  0  0  0
   -9.8648    0.9796    9.6164 H   0  0  0  0  0  0  0  0  0  0  0  0
 14 15  1  0
 14 16  1  0
  2  3  1  0
  2  9  1  0
  2 15  1  0
  3  4  1  0
  4  5  1  0
  4  1  1  0
  1 17  1  0
 18 19  1  0
 18 26  1  0
 18 17  1  0
 19 20  1  0
 20 22  1  0
 20 21  1  0
 21 28  1  0
 22 23  1  0
 22 24  1  0
 23 29  1  0
 24 25  1  0
 24 26  1  0
 25 30  1  0
 26 27  1  0
 27 31  1  0
  5  6  1  0
  5  7  1  0
  6 11  1  0
  7  8  1  0
  7  9  1  0
  8 12  1  0
  9 10  1  0
 10 13  1  0
M  END
> <minimizedAffinity>
-5.79671

> <CNNscore>
0.7282775640

> <CNNaffinity>
2.9218804836

> <CNN_VS>
2.1279399395

> <CNNaffinity_variance>
0.4225760996

$$$$



 31 32  0  0  0  0  0  0  0  0999 V2000
  -10.0741    1.2099   10.8526 O   0  0  0  0  0  0  0  0  0  0  0  0
  -11.8302   -1.7422   12.0877 C   0  0  0  0  0  0  0  0  0  0  0  0
  -10.7659   -0.8290   11.8050 O   0  0  0  0  0  0  0  0  0  0  0  0
  -11.1616    0.2815   10.9999 C   0  0  0  0  0  0  0  0  0  0  0  0
  -11.7428   -0.1757    9.6359 C   0  0  0  0  0  0  0  0  0  0  0  0
  -12.2244    0.9309    8.8591 O   0  0  0  0  0  0  0  0  0  0  0  0
  -12.8550   -1.2130    9.8591 C   0  0  0  0  0  0  0  0  0  0  0  0
  -13.3028   -1.7559    8.6005 O   0  0  0  0  0  0  0  0  0  0  0  0
  -12.3778   -2.3409   10.7809 C   0  0  0  0  0  0  0  0  0  0  0  0
  -13.4210   -3.2843   11.0478 O   0  0  0  0  0  0  0  0  0  0  0  0
  -12.9537    1.3559    9.3442 H   0  0  0  0  0  0  0  0  0  0  0  0
  -12.5291   -2.0858    8.1102 H   0  0  0  0  0  0  0  0  0  0  0  0
  -14.2388   -2.7911   11.2436 H   0  0  0  0  0  0  0  0  0  0  0  0
   -9.8829   -2.7440   13.2229 O   0  0  0  0  0  0  0  0  0  0  0  0
  -11.2911   -2.8235   13.0371 C   0  0  0  0  0  0  0  0  0  0  0  0
   -9.6928   -1.8545   13.5861 H   0  0  0  0  0  0  0  0  0  0  0  0
   -9.0858    1.1047   11.8777 C   0  0  0  0  0  0  0  0  0  0  0  0
   -9.0559    2.3622   12.7579 C   0  0  0  0  0  0  0  0  0  0  0  0
   -8.2779    2.1270   13.9373 O   0  0  0  0  0  0  0  0  0  0  0  0
   -8.2680    3.2504   14.8174 C   0  0  0  0  0  0  0  0  0  0  0  0
   -7.6057    2.8815   16.0149 O   0  0  0  0  0  0  0  0  0  0  0  0
   -7.5868    4.4597   14.1427 C   0  0  0  0  0  0  0  0  0  0  0  0
   -7.5530    5.6103   14.9980 O   0  0  0  0  0  0  0  0  0  0  0  0
   -8.3135    4.7812   12.8300 C   0  0  0  0  0  0  0  0  0  0  0  0
   -7.6494    5.8120   12.0882 O   0  0  0  0  0  0  0  0  0  0  0  0
   -8.4462    3.5243   11.9543 C   0  0  0  0  0  0  0  0  0  0  0  0
   -9.2320    3.7846   10.7897 O   0  0  0  0  0  0  0  0  0  0  0  0
   -6.6526    2.9246   15.8355 H   0  0  0  0  0  0  0  0  0  0  0  0
   -8.4647    5.8695   15.2046 H   0  0  0  0  0  0  0  0  0  0  0  0
   -6.6972    5.6024   12.0583 H   0  0  0  0  0  0  0  0  0  0  0  0
   -9.6183    4.6769   10.8648 H   0  0  0  0  0  0  0  0  0  0  0  0
 14 15  1  0
 14 16  1  0
  2  3  1  0
  2  9  1  0
  2 15  1  0
  3  4  1  0
  4  5  1  0
  4  1  1  0
  1 17  1  0
 18 19  1  0
 18 26  1  0
 18 17  1  0
 19 20  1  0
 20 22  1  0
 20 21  1  0
 21 28  1  0
 22 23  1  0
 22 24  1  0
 23 29  1  0
 24 25  1  0
 24 26  1  0
 25 30  1  0
 26 27  1  0
 27 31  1  0
  5  6  1  0
  5  7  1  0
  6 11  1  0
  7  8  1  0
  7  9  1  0
  8 12  1  0
  9 10  1  0
 10 13  1  0
M  END
> <minimizedAffinity>
-6.86198

> <CNNscore>
0.6385518909

> <CNNaffinity>
2.7795655727

> <CNN_VS>
1.7748968601

> <CNNaffinity_variance>
0.8624767661

$$$$



 31 32  0  0  0  0  0  0  0  0999 V2000
   -8.0664    4.1760   12.5680 O   0  0  0  0  0  0  0  0  0  0  0  0
   -9.3753    7.4776   13.4107 C   0  0  0  0  0  0  0  0  0  0  0  0
   -8.9977    6.3373   12.6338 O   0  0  0  0  0  0  0  0  0  0  0  0
   -8.3125    5.3340   13.3833 C   0  0  0  0  0  0  0  0  0  0  0  0
   -7.0187    5.8879   14.0365 C   0  0  0  0  0  0  0  0  0  0  0  0
   -6.3730    4.9088   14.8638 O   0  0  0  0  0  0  0  0  0  0  0  0
   -7.3376    7.1589   14.8400 C   0  0  0  0  0  0  0  0  0  0  0  0
   -6.1255    7.7672   15.3300 O   0  0  0  0  0  0  0  0  0  0  0  0
   -8.1263    8.1624   13.9911 C   0  0  0  0  0  0  0  0  0  0  0  0
   -8.4840    9.3269   14.7432 O   0  0  0  0  0  0  0  0  0  0  0  0
   -6.9742    4.6738   15.5926 H   0  0  0  0  0  0  0  0  0  0  0  0
   -5.5179    7.8994   14.5809 H   0  0  0  0  0  0  0  0  0  0  0  0
   -8.8146    9.0407   15.6144 H   0  0  0  0  0  0  0  0  0  0  0  0
   -9.3982    9.4713   11.9585 O   0  0  0  0  0  0  0  0  0  0  0  0
  -10.1854    8.4219   12.5088 C   0  0  0  0  0  0  0  0  0  0  0  0
   -8.6806    9.0493   11.4425 H   0  0  0  0  0  0  0  0  0  0  0  0
   -9.0455    3.9721   11.5489 C   0  0  0  0  0  0  0  0  0  0  0  0
  -10.0734    2.9102   11.9645 C   0  0  0  0  0  0  0  0  0  0  0  0
  -11.4036    3.3798   11.7165 O   0  0  0  0  0  0  0  0  0  0  0  0
  -12.3988    2.4492   12.1410 C   0  0  0  0  0  0  0  0  0  0  0  0
  -13.6734    3.0520   11.9967 O   0  0  0  0  0  0  0  0  0  0  0  0
  -12.2961    1.1403   11.3298 C   0  0  0  0  0  0  0  0  0  0  0  0
  -13.2838    0.1784   11.7244 O   0  0  0  0  0  0  0  0  0  0  0  0
  -10.8835    0.5607   11.4831 C   0  0  0  0  0  0  0  0  0  0  0  0
  -10.6813   -0.5863   10.6480 O   0  0  0  0  0  0  0  0  0  0  0  0
   -9.8175    1.6217   11.1631 C   0  0  0  0  0  0  0  0  0  0  0  0
   -8.5019    1.1301   11.4259 O   0  0  0  0  0  0  0  0  0  0  0  0
  -13.9122    2.9867   11.0580 H   0  0  0  0  0  0  0  0  0  0  0  0
  -13.1415   -0.0469   12.6571 H   0  0  0  0  0  0  0  0  0  0  0  0
  -11.0073   -0.3747    9.7534 H   0  0  0  0  0  0  0  0  0  0  0  0
   -8.5731    0.2648   11.8698 H   0  0  0  0  0  0  0  0  0  0  0  0
 14 15  1  0
 14 16  1  0
  2  3  1  0
  2  9  1  0
  2 15  1  0
  3  4  1  0
  4  5  1  0
  4  1  1  0
  1 17  1  0
 18 19  1  0
 18 26  1  0
 18 17  1  0
 19 20  1  0
 20 22  1  0
 20 21  1  0
 21 28  1  0
 22 23  1  0
 22 24  1  0
 23 29  1  0
 24 25  1  0
 24 26  1  0
 25 30  1  0
 26 27  1  0
 27 31  1  0
  5  6  1  0
  5  7  1  0
  6 11  1  0
  7  8  1  0
  7  9  1  0
  8 12  1  0
  9 10  1  0
 10 13  1  0
M  END
> <minimizedAffinity>
-4.93911

> <CNNscore>
0.6354823709

> <CNNaffinity>
3.1184332371

> <CNN_VS>
1.9817093611

> <CNNaffinity_variance>
0.3122886717

$$$$



 31 32  0  0  0  0  0  0  0  0999 V2000
   -9.5387   -1.4477   13.3986 O   0  0  0  0  0  0  0  0  0  0  0  0
   -8.8011    1.8671   14.7371 C   0  0  0  0  0  0  0  0  0  0  0  0
   -8.8191    0.7491   13.8449 O   0  0  0  0  0  0  0  0  0  0  0  0
   -9.4579   -0.4069   14.3868 C   0  0  0  0  0  0  0  0  0  0  0  0
   -8.7736   -0.8810   15.6960 C   0  0  0  0  0  0  0  0  0  0  0  0
   -9.4649   -1.9881   16.2931 O   0  0  0  0  0  0  0  0  0  0  0  0
   -8.6600    0.2908   16.6844 C   0  0  0  0  0  0  0  0  0  0  0  0
   -7.8960   -0.0959   17.8445 O   0  0  0  0  0  0  0  0  0  0  0  0
   -8.0226    1.5140   16.0158 C   0  0  0  0  0  0  0  0  0  0  0  0
   -7.9646    2.6341   16.9055 O   0  0  0  0  0  0  0  0  0  0  0  0
  -10.3618   -1.6983   16.5368 H   0  0  0  0  0  0  0  0  0  0  0  0
   -7.0448   -0.4646   17.5488 H   0  0  0  0  0  0  0  0  0  0  0  0
   -8.8209    2.7057   17.3659 H   0  0  0  0  0  0  0  0  0  0  0  0
   -8.2806    2.9434   12.5796 O   0  0  0  0  0  0  0  0  0  0  0  0
   -8.1804    3.0603   13.9938 C   0  0  0  0  0  0  0  0  0  0  0  0
   -9.2339    2.8750   12.3657 H   0  0  0  0  0  0  0  0  0  0  0  0
  -10.8735   -1.8663   13.1124 C   0  0  0  0  0  0  0  0  0  0  0  0
  -11.5543   -0.9213   12.1121 C   0  0  0  0  0  0  0  0  0  0  0  0
  -10.6148    0.0381   11.6138 O   0  0  0  0  0  0  0  0  0  0  0  0
  -11.2149    0.9771   10.7223 C   0  0  0  0  0  0  0  0  0  0  0  0
  -10.2565    1.9695   10.3976 O   0  0  0  0  0  0  0  0  0  0  0  0
  -11.7414    0.2633    9.4593 C   0  0  0  0  0  0  0  0  0  0  0  0
  -12.3496    1.1750    8.5344 O   0  0  0  0  0  0  0  0  0  0  0  0
  -12.7343   -0.8306    9.8744 C   0  0  0  0  0  0  0  0  0  0  0  0
  -13.1608   -1.6195    8.7566 O   0  0  0  0  0  0  0  0  0  0  0  0
  -12.1229   -1.7486   10.9458 C   0  0  0  0  0  0  0  0  0  0  0  0
  -13.0823   -2.6901   11.4303 O   0  0  0  0  0  0  0  0  0  0  0  0
   -9.6755    1.5898    9.7188 H   0  0  0  0  0  0  0  0  0  0  0  0
  -13.1092    1.5950    8.9677 H   0  0  0  0  0  0  0  0  0  0  0  0
  -12.3718   -1.8726    8.2419 H   0  0  0  0  0  0  0  0  0  0  0  0
  -13.9566   -2.4652   11.0616 H   0  0  0  0  0  0  0  0  0  0  0  0
 14 15  1  0
 14 16  1  0
  2  3  1  0
  2  9  1  0
  2 15  1  0
  3  4  1  0
  4  5  1  0
  4  1  1  0
  1 17  1  0
 18 19  1  0
 18 26  1  0
 18 17  1  0
 19 20  1  0
 20 22  1  0
 20 21  1  0
 21 28  1  0
 22 23  1  0
 22 24  1  0
 23 29  1  0
 24 25  1  0
 24 26  1  0
 25 30  1  0
 26 27  1  0
 27 31  1  0
  5  6  1  0
  5  7  1  0
  6 11  1  0
  7  8  1  0
  7  9  1  0
  8 12  1  0
  9 10  1  0
 10 13  1  0
M  END
> <minimizedAffinity>
-5.84877

> <CNNscore>
0.6344169974

> <CNNaffinity>
2.9476397038

> <CNN_VS>
1.8700327873

> <CNNaffinity_variance>
0.5947506428

$$$$



 31 32  0  0  0  0  0  0  0  0999 V2000
   -8.7022    1.6907   12.9495 O   0  0  0  0  0  0  0  0  0  0  0  0
   -8.3280    5.2308   13.7567 C   0  0  0  0  0  0  0  0  0  0  0  0
   -8.5501    3.8277   13.9256 O   0  0  0  0  0  0  0  0  0  0  0  0
   -8.5900    3.1014   12.6973 C   0  0  0  0  0  0  0  0  0  0  0  0
   -9.7040    3.6278   11.7544 C   0  0  0  0  0  0  0  0  0  0  0  0
   -9.6913    2.9614   10.4832 O   0  0  0  0  0  0  0  0  0  0  0  0
   -9.5676    5.1485   11.5765 C   0  0  0  0  0  0  0  0  0  0  0  0
  -10.6799    5.6734   10.8239 O   0  0  0  0  0  0  0  0  0  0  0  0
   -9.4682    5.8539   12.9337 C   0  0  0  0  0  0  0  0  0  0  0  0
   -9.2798    7.2653   12.7848 O   0  0  0  0  0  0  0  0  0  0  0  0
   -8.8430    3.1485   10.0437 H   0  0  0  0  0  0  0  0  0  0  0  0
  -11.5074    5.3845   11.2478 H   0  0  0  0  0  0  0  0  0  0  0  0
   -8.6088    7.4147   12.0936 H   0  0  0  0  0  0  0  0  0  0  0  0
   -6.8675    5.9083   15.6255 O   0  0  0  0  0  0  0  0  0  0  0  0
   -8.2080    5.8657   15.1509 C   0  0  0  0  0  0  0  0  0  0  0  0
   -6.3511    6.4279   14.9755 H   0  0  0  0  0  0  0  0  0  0  0  0
   -9.9485    1.3082   13.5319 C   0  0  0  0  0  0  0  0  0  0  0  0
  -10.0785   -0.2188   13.6238 C   0  0  0  0  0  0  0  0  0  0  0  0
  -10.5895   -0.5994   14.9065 O   0  0  0  0  0  0  0  0  0  0  0  0
  -10.6740   -2.0155   15.0618 C   0  0  0  0  0  0  0  0  0  0  0  0
  -11.0440   -2.3030   16.3995 O   0  0  0  0  0  0  0  0  0  0  0  0
  -11.6809   -2.6107   14.0551 C   0  0  0  0  0  0  0  0  0  0  0  0
  -11.7979   -4.0344   14.1819 O   0  0  0  0  0  0  0  0  0  0  0  0
  -11.2583   -2.2263   12.6309 C   0  0  0  0  0  0  0  0  0  0  0  0
  -12.2248   -2.6370   11.6558 O   0  0  0  0  0  0  0  0  0  0  0  0
  -11.0283   -0.7102   12.5173 C   0  0  0  0  0  0  0  0  0  0  0  0
  -10.5122   -0.3592   11.2320 O   0  0  0  0  0  0  0  0  0  0  0  0
  -12.0033   -2.1683   16.4624 H   0  0  0  0  0  0  0  0  0  0  0  0
  -10.9333   -4.4338   13.9974 H   0  0  0  0  0  0  0  0  0  0  0  0
  -13.1090   -2.3716   11.9707 H   0  0  0  0  0  0  0  0  0  0  0  0
  -10.3014   -1.1770   10.7445 H   0  0  0  0  0  0  0  0  0  0  0  0
 14 15  1  0
 14 16  1  0
  2  3  1  0
  2  9  1  0
  2 15  1  0
  3  4  1  0
  4  5  1  0
  4  1  1  0
  1 17  1  0
 18 19  1  0
 18 26  1  0
 18 17  1  0
 19 20  1  0
 20 22  1  0
 20 21  1  0
 21 28  1  0
 22 23  1  0
 22 24  1  0
 23 29  1  0
 24 25  1  0
 24 26  1  0
 25 30  1  0
 26 27  1  0
 27 31  1  0
  5  6  1  0
  5  7  1  0
  6 11  1  0
  7  8  1  0
  7  9  1  0
  8 12  1  0
  9 10  1  0
 10 13  1  0
M  END
> <minimizedAffinity>
-4.52590

> <CNNscore>
0.5927754641

> <CNNaffinity>
2.7830884457

> <CNN_VS>
1.6497465372

> <CNNaffinity_variance>
0.4235870838

$$$$



 31 32  0  0  0  0  0  0  0  0999 V2000
  -11.1504    1.6094   11.5549 O   0  0  0  0  0  0  0  0  0  0  0  0
   -9.6046    2.5677   14.7198 C   0  0  0  0  0  0  0  0  0  0  0  0
  -10.6132    2.2811   13.7465 O   0  0  0  0  0  0  0  0  0  0  0  0
  -10.0927    1.9971   12.4478 C   0  0  0  0  0  0  0  0  0  0  0  0
   -9.2502    3.1771   11.8956 C   0  0  0  0  0  0  0  0  0  0  0  0
   -8.6508    2.8632   10.6298 O   0  0  0  0  0  0  0  0  0  0  0  0
   -8.1806    3.5852   12.9215 C   0  0  0  0  0  0  0  0  0  0  0  0
   -7.4874    4.7726   12.4871 O   0  0  0  0  0  0  0  0  0  0  0  0
   -8.8032    3.8128   14.3036 C   0  0  0  0  0  0  0  0  0  0  0  0
   -7.8116    4.1348   15.2848 O   0  0  0  0  0  0  0  0  0  0  0  0
   -8.0376    2.1172   10.7538 H   0  0  0  0  0  0  0  0  0  0  0  0
   -8.1450    5.4619   12.2867 H   0  0  0  0  0  0  0  0  0  0  0  0
   -7.0573    3.5280   15.1703 H   0  0  0  0  0  0  0  0  0  0  0  0
  -11.7136    2.7518   15.9857 O   0  0  0  0  0  0  0  0  0  0  0  0
  -10.2942    2.7527   16.0805 C   0  0  0  0  0  0  0  0  0  0  0  0
  -11.9729    1.8928   15.5930 H   0  0  0  0  0  0  0  0  0  0  0  0
  -10.7953    0.5460   10.6707 C   0  0  0  0  0  0  0  0  0  0  0  0
  -11.9254   -0.4867   10.5546 C   0  0  0  0  0  0  0  0  0  0  0  0
  -11.7284   -1.5493   11.4946 O   0  0  0  0  0  0  0  0  0  0  0  0
  -12.7241   -2.5658   11.3854 C   0  0  0  0  0  0  0  0  0  0  0  0
  -12.3711   -3.6391   12.2411 O   0  0  0  0  0  0  0  0  0  0  0  0
  -14.1165   -1.9984   11.7332 C   0  0  0  0  0  0  0  0  0  0  0  0
  -15.1464   -2.9919   11.6389 O   0  0  0  0  0  0  0  0  0  0  0  0
  -14.4228   -0.8110   10.8106 C   0  0  0  0  0  0  0  0  0  0  0  0
  -15.6456   -0.1553   11.1691 O   0  0  0  0  0  0  0  0  0  0  0  0
  -13.2712    0.2078   10.8271 C   0  0  0  0  0  0  0  0  0  0  0  0
  -13.4893    1.2518    9.8762 O   0  0  0  0  0  0  0  0  0  0  0  0
  -12.6323   -3.3815   13.1399 H   0  0  0  0  0  0  0  0  0  0  0  0
  -15.1845   -3.3127   10.7243 H   0  0  0  0  0  0  0  0  0  0  0  0
  -15.6445   -0.0119   12.1339 H   0  0  0  0  0  0  0  0  0  0  0  0
  -14.2670    1.0245    9.3336 H   0  0  0  0  0  0  0  0  0  0  0  0
 14 15  1  0
 14 16  1  0
  2  3  1  0
  2  9  1  0
  2 15  1  0
  3  4  1  0
  4  5  1  0
  4  1  1  0
  1 17  1  0
 18 19  1  0
 18 26  1  0
 18 17  1  0
 19 20  1  0
 20 22  1  0
 20 21  1  0
 21 28  1  0
 22 23  1  0
 22 24  1  0
 23 29  1  0
 24 25  1  0
 24 26  1  0
 25 30  1  0
 26 27  1  0
 27 31  1  0
  5  6  1  0
  5  7  1  0
  6 11  1  0
  7  8  1  0
  7  9  1  0
  8 12  1  0
  9 10  1  0
 10 13  1  0
M  END
> <minimizedAffinity>
-4.51707

> <CNNscore>
0.5672689676

> <CNNaffinity>
2.9092442989

> <CNN_VS>
1.6503239870

> <CNNaffinity_variance>
0.6717599034

$$$$



 31 32  0  0  0  0  0  0  0  0999 V2000
   -9.5878    1.4705   13.3759 O   0  0  0  0  0  0  0  0  0  0  0  0
  -11.6434   -1.2681   12.1112 C   0  0  0  0  0  0  0  0  0  0  0  0
  -10.5533   -0.5767   12.7280 O   0  0  0  0  0  0  0  0  0  0  0  0
  -10.6525    0.8448   12.6402 C   0  0  0  0  0  0  0  0  0  0  0  0
  -10.7209    1.3262   11.1669 C   0  0  0  0  0  0  0  0  0  0  0  0
  -10.9105    2.7458   11.0738 O   0  0  0  0  0  0  0  0  0  0  0  0
  -11.8345    0.5752   10.4192 C   0  0  0  0  0  0  0  0  0  0  0  0
  -11.8139    0.9033    9.0153 O   0  0  0  0  0  0  0  0  0  0  0  0
  -11.6992   -0.9398   10.6096 C   0  0  0  0  0  0  0  0  0  0  0  0
  -12.7639   -1.6514    9.9694 O   0  0  0  0  0  0  0  0  0  0  0  0
  -11.7657    2.9716   11.4806 H   0  0  0  0  0  0  0  0  0  0  0  0
  -10.9159    0.7493    8.6721 H   0  0  0  0  0  0  0  0  0  0  0  0
  -13.6021   -1.1955   10.1690 H   0  0  0  0  0  0  0  0  0  0  0  0
  -12.6528   -3.5182   12.1569 O   0  0  0  0  0  0  0  0  0  0  0  0
  -11.4600   -2.7721   12.3674 C   0  0  0  0  0  0  0  0  0  0  0  0
  -12.9235   -3.3674   11.2278 H   0  0  0  0  0  0  0  0  0  0  0  0
   -9.9460    1.8318   14.7100 C   0  0  0  0  0  0  0  0  0  0  0  0
   -9.1654    3.0656   15.1847 C   0  0  0  0  0  0  0  0  0  0  0  0
   -8.1585    2.6854   16.1297 O   0  0  0  0  0  0  0  0  0  0  0  0
   -7.4425    3.8071   16.6451 C   0  0  0  0  0  0  0  0  0  0  0  0
   -6.5766    3.3580   17.6735 O   0  0  0  0  0  0  0  0  0  0  0  0
   -6.6628    4.5155   15.5173 C   0  0  0  0  0  0  0  0  0  0  0  0
   -5.9254    5.6484   15.9961 O   0  0  0  0  0  0  0  0  0  0  0  0
   -7.6419    4.9338   14.4122 C   0  0  0  0  0  0  0  0  0  0  0  0
   -6.9638    5.4802   13.2740 O   0  0  0  0  0  0  0  0  0  0  0  0
   -8.5099    3.7444   13.9692 C   0  0  0  0  0  0  0  0  0  0  0  0
   -9.5095    4.1525   13.0333 O   0  0  0  0  0  0  0  0  0  0  0  0
   -5.7989    2.9719   17.2394 H   0  0  0  0  0  0  0  0  0  0  0  0
   -6.5508    6.2920   16.3644 H   0  0  0  0  0  0  0  0  0  0  0  0
   -6.2234    4.8877   13.0455 H   0  0  0  0  0  0  0  0  0  0  0  0
   -9.5023    5.1256   12.9709 H   0  0  0  0  0  0  0  0  0  0  0  0
 14 15  1  0
 14 16  1  0
  2  3  1  0
  2  9  1  0
  2 15  1  0
  3  4  1  0
  4  5  1  0
  4  1  1  0
  1 17  1  0
 18 19  1  0
 18 26  1  0
 18 17  1  0
 19 20  1  0
 20 22  1  0
 20 21  1  0
 21 28  1  0
 22 23  1  0
 22 24  1  0
 23 29  1  0
 24 25  1  0
 24 26  1  0
 25 30  1  0
 26 27  1  0
 27 31  1  0
  5  6  1  0
  5  7  1  0
  6 11  1  0
  7  8  1  0
  7  9  1  0
  8 12  1  0
  9 10  1  0
 10 13  1  0
M  END
> <minimizedAffinity>
-4.49806

> <CNNscore>
0.5393146873

> <CNNaffinity>
2.5582897663

> <CNN_VS>
1.3797231913

> <CNNaffinity_variance>
0.6181737185

$$$$



 31 32  0  0  0  0  0  0  0  0999 V2000
  -11.8558    0.8945   14.7528 O   0  0  0  0  0  0  0  0  0  0  0  0
   -9.0878    2.1919   12.7580 C   0  0  0  0  0  0  0  0  0  0  0  0
  -10.0847    2.1029   13.7802 O   0  0  0  0  0  0  0  0  0  0  0  0
  -10.9576    0.9828   13.6339 C   0  0  0  0  0  0  0  0  0  0  0  0
  -11.7026    1.0086   12.2732 C   0  0  0  0  0  0  0  0  0  0  0  0
  -12.5135   -0.1601   12.0824 O   0  0  0  0  0  0  0  0  0  0  0  0
  -10.6941    1.1686   11.1242 C   0  0  0  0  0  0  0  0  0  0  0  0
  -11.3796    1.3423    9.8676 O   0  0  0  0  0  0  0  0  0  0  0  0
   -9.7524    2.3507   11.3800 C   0  0  0  0  0  0  0  0  0  0  0  0
   -8.7678    2.4766   10.3484 O   0  0  0  0  0  0  0  0  0  0  0  0
  -11.9326   -0.9412   12.0671 H   0  0  0  0  0  0  0  0  0  0  0  0
  -12.0154    2.0740    9.9577 H   0  0  0  0  0  0  0  0  0  0  0  0
   -8.4144    1.5899   10.1507 H   0  0  0  0  0  0  0  0  0  0  0  0
   -8.0334    4.2957   12.0185 O   0  0  0  0  0  0  0  0  0  0  0  0
   -8.1649    3.3737   13.0939 C   0  0  0  0  0  0  0  0  0  0  0  0
   -8.9332    4.6220   11.8108 H   0  0  0  0  0  0  0  0  0  0  0  0
  -11.6895   -0.2909   15.5312 C   0  0  0  0  0  0  0  0  0  0  0  0
  -10.5273   -1.1464   15.0072 C   0  0  0  0  0  0  0  0  0  0  0  0
   -9.4955   -1.2448   15.9956 O   0  0  0  0  0  0  0  0  0  0  0  0
   -8.3656   -1.9838   15.5331 C   0  0  0  0  0  0  0  0  0  0  0  0
   -7.3421   -1.9050   16.5104 O   0  0  0  0  0  0  0  0  0  0  0  0
   -8.7592   -3.4473   15.2416 C   0  0  0  0  0  0  0  0  0  0  0  0
   -7.6480   -4.2259   14.7773 O   0  0  0  0  0  0  0  0  0  0  0  0
   -9.9017   -3.4685   14.2174 C   0  0  0  0  0  0  0  0  0  0  0  0
  -10.4035   -4.7935   14.0018 O   0  0  0  0  0  0  0  0  0  0  0  0
  -11.0528   -2.5505   14.6604 C   0  0  0  0  0  0  0  0  0  0  0  0
  -12.0637   -2.4645   13.6542 O   0  0  0  0  0  0  0  0  0  0  0  0
   -7.5650   -2.5453   17.2051 H   0  0  0  0  0  0  0  0  0  0  0  0
   -7.3261   -3.8416   13.9468 H   0  0  0  0  0  0  0  0  0  0  0  0
  -10.5448   -5.2124   14.8713 H   0  0  0  0  0  0  0  0  0  0  0  0
  -11.7443   -2.9130   12.8494 H   0  0  0  0  0  0  0  0  0  0  0  0
 14 15  1  0
 14 16  1  0
  2  3  1  0
  2  9  1  0
  2 15  1  0
  3  4  1  0
  4  5  1  0
  4  1  1  0
  1 17  1  0
 18 19  1  0
 18 26  1  0
 18 17  1  0
 19 20  1  0
 20 22  1  0
 20 21  1  0
 21 28  1  0
 22 23  1  0
 22 24  1  0
 23 29  1  0
 24 25  1  0
 24 26  1  0
 25 30  1  0
 26 27  1  0
 27 31  1  0
  5  6  1  0
  5  7  1  0
  6 11  1  0
  7  8  1  0
  7  9  1  0
  8 12  1  0
  9 10  1  0
 10 13  1  0
M  END
> <minimizedAffinity>
-4.70479

> <CNNscore>
0.5332503319

> <CNNaffinity>
2.5643348694

> <CNN_VS>
1.3674324751

> <CNNaffinity_variance>
0.6452779174

$$$$



 31 32  0  0  0  0  0  0  0  0999 V2000
   -9.3439   -0.9744   13.3718 O   0  0  0  0  0  0  0  0  0  0  0  0
   -9.1562    2.6339   12.8532 C   0  0  0  0  0  0  0  0  0  0  0  0
   -9.0383    1.2301   12.6041 O   0  0  0  0  0  0  0  0  0  0  0  0
   -9.3757    0.4177   13.7284 C   0  0  0  0  0  0  0  0  0  0  0  0
   -8.4840    0.7379   14.9570 C   0  0  0  0  0  0  0  0  0  0  0  0
   -8.8770   -0.0119   16.1161 O   0  0  0  0  0  0  0  0  0  0  0  0
   -8.5100    2.2473   15.2470 C   0  0  0  0  0  0  0  0  0  0  0  0
   -7.5730    2.5799   16.2911 O   0  0  0  0  0  0  0  0  0  0  0  0
   -8.2000    3.0553   13.9819 C   0  0  0  0  0  0  0  0  0  0  0  0
   -8.2796    4.4647   14.2206 O   0  0  0  0  0  0  0  0  0  0  0  0
   -9.7851    0.2432   16.3570 H   0  0  0  0  0  0  0  0  0  0  0  0
   -6.6988    2.2254   16.0503 H   0  0  0  0  0  0  0  0  0  0  0  0
   -9.0830    4.6431   14.7431 H   0  0  0  0  0  0  0  0  0  0  0  0
   -8.7224    2.5012   10.4287 O   0  0  0  0  0  0  0  0  0  0  0  0
   -8.8638    3.3773   11.5406 C   0  0  0  0  0  0  0  0  0  0  0  0
   -9.5612    2.0015   10.3507 H   0  0  0  0  0  0  0  0  0  0  0  0
  -10.5634   -1.6654   13.6437 C   0  0  0  0  0  0  0  0  0  0  0  0
  -11.6192   -1.3835   12.5653 C   0  0  0  0  0  0  0  0  0  0  0  0
  -10.9929   -1.1990   11.2905 O   0  0  0  0  0  0  0  0  0  0  0  0
  -11.9301   -0.8763   10.2638 C   0  0  0  0  0  0  0  0  0  0  0  0
  -11.2157   -0.5669    9.0795 O   0  0  0  0  0  0  0  0  0  0  0  0
  -12.9139   -2.0447   10.0430 C   0  0  0  0  0  0  0  0  0  0  0  0
  -13.8716   -1.7606    9.0141 O   0  0  0  0  0  0  0  0  0  0  0  0
  -13.6200   -2.3673   11.3667 C   0  0  0  0  0  0  0  0  0  0  0  0
  -14.4511   -3.5300   11.2613 O   0  0  0  0  0  0  0  0  0  0  0  0
  -12.5988   -2.5683   12.4985 C   0  0  0  0  0  0  0  0  0  0  0  0
  -13.2494   -2.7425   13.7586 O   0  0  0  0  0  0  0  0  0  0  0  0
  -10.9580   -1.4115    8.6762 H   0  0  0  0  0  0  0  0  0  0  0  0
  -14.3943   -0.9886    9.2820 H   0  0  0  0  0  0  0  0  0  0  0  0
  -13.9393   -4.2328   10.8189 H   0  0  0  0  0  0  0  0  0  0  0  0
  -14.2030   -2.5731   13.6455 H   0  0  0  0  0  0  0  0  0  0  0  0
 14 15  1  0
 14 16  1  0
  2  3  1  0
  2  9  1  0
  2 15  1  0
  3  4  1  0
  4  5  1  0
  4  1  1  0
  1 17  1  0
 18 19  1  0
 18 26  1  0
 18 17  1  0
 19 20  1  0
 20 22  1  0
 20 21  1  0
 21 28  1  0
 22 23  1  0
 22 24  1  0
 23 29  1  0
 24 25  1  0
 24 26  1  0
 25 30  1  0
 26 27  1  0
 27 31  1  0
  5  6  1  0
  5  7  1  0
  6 11  1  0
  7  8  1  0
  7  9  1  0
  8 12  1  0
  9 10  1  0
 10 13  1  0
M  END
> <minimizedAffinity>
-5.89787

> <CNNscore>
0.5264428854

> <CNNaffinity>
2.8715102673

> <CNN_VS>
1.5116862059

> <CNNaffinity_variance>
0.5829731226

$$$$



 31 32  0  0  0  0  0  0  0  0999 V2000
   -9.1340    0.2279   12.7465 O   0  0  0  0  0  0  0  0  0  0  0  0
  -11.8927   -0.9069   10.6428 C   0  0  0  0  0  0  0  0  0  0  0  0
  -10.6588   -0.2958   11.0309 O   0  0  0  0  0  0  0  0  0  0  0  0
  -10.4370   -0.2967   12.4412 C   0  0  0  0  0  0  0  0  0  0  0  0
  -11.5694    0.4427   13.2014 C   0  0  0  0  0  0  0  0  0  0  0  0
  -11.3987    0.3682   14.6246 O   0  0  0  0  0  0  0  0  0  0  0  0
  -12.9378   -0.1200   12.7842 C   0  0  0  0  0  0  0  0  0  0  0  0
  -14.0046    0.6538   13.3691 O   0  0  0  0  0  0  0  0  0  0  0  0
  -13.0792   -0.1457   11.2581 C   0  0  0  0  0  0  0  0  0  0  0  0
  -14.3243   -0.7233   10.8511 O   0  0  0  0  0  0  0  0  0  0  0  0
  -11.4464   -0.5662   14.8939 H   0  0  0  0  0  0  0  0  0  0  0  0
  -13.8652    1.5923   13.1508 H   0  0  0  0  0  0  0  0  0  0  0  0
  -14.4782   -1.5270   11.3808 H   0  0  0  0  0  0  0  0  0  0  0  0
  -13.0489   -1.6825    8.6066 O   0  0  0  0  0  0  0  0  0  0  0  0
  -11.9527   -0.9267    9.1074 C   0  0  0  0  0  0  0  0  0  0  0  0
  -13.8639   -1.2772    8.9683 H   0  0  0  0  0  0  0  0  0  0  0  0
   -8.7827    1.3781   11.9770 C   0  0  0  0  0  0  0  0  0  0  0  0
   -8.8483    2.6584   12.8218 C   0  0  0  0  0  0  0  0  0  0  0  0
   -8.0057    2.5394   13.9738 O   0  0  0  0  0  0  0  0  0  0  0  0
   -8.0774    3.6843   14.8228 C   0  0  0  0  0  0  0  0  0  0  0  0
   -7.3354    3.4212   16.0014 O   0  0  0  0  0  0  0  0  0  0  0  0
   -7.5503    4.9354   14.0890 C   0  0  0  0  0  0  0  0  0  0  0  0
   -7.6020    6.1090   14.9115 O   0  0  0  0  0  0  0  0  0  0  0  0
   -8.3559    5.1413   12.7993 C   0  0  0  0  0  0  0  0  0  0  0  0
   -7.8300    6.2111   12.0039 O   0  0  0  0  0  0  0  0  0  0  0  0
   -8.3923    3.8514   11.9633 C   0  0  0  0  0  0  0  0  0  0  0  0
   -9.2448    3.9951   10.8256 O   0  0  0  0  0  0  0  0  0  0  0  0
   -6.3993    3.5553   15.7817 H   0  0  0  0  0  0  0  0  0  0  0  0
   -8.5269    6.2805   15.1486 H   0  0  0  0  0  0  0  0  0  0  0  0
   -6.8632    6.0985   11.9403 H   0  0  0  0  0  0  0  0  0  0  0  0
   -9.7174    4.8454   10.8930 H   0  0  0  0  0  0  0  0  0  0  0  0
 14 15  1  0
 14 16  1  0
  2  3  1  0
  2  9  1  0
  2 15  1  0
  3  4  1  0
  4  5  1  0
  4  1  1  0
  1 17  1  0
 18 19  1  0
 18 26  1  0
 18 17  1  0
 19 20  1  0
 20 22  1  0
 20 21  1  0
 21 28  1  0
 22 23  1  0
 22 24  1  0
 23 29  1  0
 24 25  1  0
 24 26  1  0
 25 30  1  0
 26 27  1  0
 27 31  1  0
  5  6  1  0
  5  7  1  0
  6 11  1  0
  7  8  1  0
  7  9  1  0
  8 12  1  0
  9 10  1  0
 10 13  1  0
M  END
> <minimizedAffinity>
-5.74204

> <CNNscore>
0.5228437185

> <CNNaffinity>
2.3878858089

> <CNN_VS>
1.2484910488

> <CNNaffinity_variance>
1.1506381035

$$$$



 31 32  0  0  0  0  0  0  0  0999 V2000
  -10.4000    2.6087   10.7529 O   0  0  0  0  0  0  0  0  0  0  0  0
   -8.4045    3.2768   13.7355 C   0  0  0  0  0  0  0  0  0  0  0  0
   -9.2979    2.6177   12.8333 O   0  0  0  0  0  0  0  0  0  0  0  0
   -9.5918    3.3765   11.6604 C   0  0  0  0  0  0  0  0  0  0  0  0
  -10.2269    4.7488   12.0079 C   0  0  0  0  0  0  0  0  0  0  0  0
  -10.4423    5.5527   10.8385 O   0  0  0  0  0  0  0  0  0  0  0  0
   -9.3495    5.4913   13.0285 C   0  0  0  0  0  0  0  0  0  0  0  0
   -9.9989    6.6998   13.4722 O   0  0  0  0  0  0  0  0  0  0  0  0
   -9.0245    4.5951   14.2288 C   0  0  0  0  0  0  0  0  0  0  0  0
   -8.1578    5.2511   15.1606 O   0  0  0  0  0  0  0  0  0  0  0  0
   -9.5795    5.7409   10.4287 H   0  0  0  0  0  0  0  0  0  0  0  0
  -10.8922    6.4760   13.7880 H   0  0  0  0  0  0  0  0  0  0  0  0
   -7.4476    5.6939   14.6607 H   0  0  0  0  0  0  0  0  0  0  0  0
   -9.2542    1.6276   15.3611 O   0  0  0  0  0  0  0  0  0  0  0  0
   -8.0990    2.3132   14.8928 C   0  0  0  0  0  0  0  0  0  0  0  0
   -9.6195    1.1313   14.5998 H   0  0  0  0  0  0  0  0  0  0  0  0
  -11.4864    1.9304   11.3840 C   0  0  0  0  0  0  0  0  0  0  0  0
  -11.4429    0.4215   11.1039 C   0  0  0  0  0  0  0  0  0  0  0  0
  -11.8188   -0.3139   12.2741 O   0  0  0  0  0  0  0  0  0  0  0  0
  -11.7378   -1.7256   12.0807 C   0  0  0  0  0  0  0  0  0  0  0  0
  -11.9801   -2.3671   13.3211 O   0  0  0  0  0  0  0  0  0  0  0  0
  -12.7419   -2.1819   11.0012 C   0  0  0  0  0  0  0  0  0  0  0  0
  -12.6942   -3.5979   10.7797 O   0  0  0  0  0  0  0  0  0  0  0  0
  -12.4640   -1.4198    9.6986 C   0  0  0  0  0  0  0  0  0  0  0  0
  -13.4458   -1.7010    8.6933 O   0  0  0  0  0  0  0  0  0  0  0  0
  -12.4086    0.0960    9.9509 C   0  0  0  0  0  0  0  0  0  0  0  0
  -12.0247    0.8041    8.7708 O   0  0  0  0  0  0  0  0  0  0  0  0
  -12.9416   -2.3697   13.4547 H   0  0  0  0  0  0  0  0  0  0  0  0
  -11.8064   -3.8328   10.4673 H   0  0  0  0  0  0  0  0  0  0  0  0
  -14.3295   -1.6287    9.0999 H   0  0  0  0  0  0  0  0  0  0  0  0
  -11.7608    0.1585    8.0893 H   0  0  0  0  0  0  0  0  0  0  0  0
 14 15  1  0
 14 16  1  0
  2  3  1  0
  2  9  1  0
  2 15  1  0
  3  4  1  0
  4  5  1  0
  4  1  1  0
  1 17  1  0
 18 19  1  0
 18 26  1  0
 18 17  1  0
 19 20  1  0
 20 22  1  0
 20 21  1  0
 21 28  1  0
 22 23  1  0
 22 24  1  0
 23 29  1  0
 24 25  1  0
 24 26  1  0
 25 30  1  0
 26 27  1  0
 27 31  1  0
  5  6  1  0
  5  7  1  0
  6 11  1  0
  7  8  1  0
  7  9  1  0
  8 12  1  0
  9 10  1  0
 10 13  1  0
M  END
> <minimizedAffinity>
-5.77446

> <CNNscore>
0.5181738138

> <CNNaffinity>
2.5629882812

> <CNN_VS>
1.3280733824

> <CNNaffinity_variance>
0.7752702832

$$$$



 31 32  0  0  0  0  0  0  0  0999 V2000
   -9.1809    1.6950   11.5990 O   0  0  0  0  0  0  0  0  0  0  0  0
   -8.1852    4.4218   13.8120 C   0  0  0  0  0  0  0  0  0  0  0  0
   -8.2504    3.5819   12.6558 O   0  0  0  0  0  0  0  0  0  0  0  0
   -9.0723    2.4278   12.8309 C   0  0  0  0  0  0  0  0  0  0  0  0
   -8.5794    1.5445   14.0074 C   0  0  0  0  0  0  0  0  0  0  0  0
   -9.4527    0.4305   14.2454 O   0  0  0  0  0  0  0  0  0  0  0  0
   -8.4227    2.3979   15.2763 C   0  0  0  0  0  0  0  0  0  0  0  0
   -7.8263    1.6250   16.3374 O   0  0  0  0  0  0  0  0  0  0  0  0
   -7.5819    3.6487   14.9970 C   0  0  0  0  0  0  0  0  0  0  0  0
   -7.4768    4.4856   16.1538 O   0  0  0  0  0  0  0  0  0  0  0  0
  -10.3278    0.7719   14.5010 H   0  0  0  0  0  0  0  0  0  0  0  0
   -7.0007    1.2278   16.0079 H   0  0  0  0  0  0  0  0  0  0  0  0
   -8.3589    4.5574   16.5625 H   0  0  0  0  0  0  0  0  0  0  0  0
   -7.3147    5.9147   12.0519 O   0  0  0  0  0  0  0  0  0  0  0  0
   -7.3573    5.6652   13.4518 C   0  0  0  0  0  0  0  0  0  0  0  0
   -8.2406    6.0313   11.7545 H   0  0  0  0  0  0  0  0  0  0  0  0
  -10.5202    1.5722   11.1195 C   0  0  0  0  0  0  0  0  0  0  0  0
  -10.9153    0.1005   10.9325 C   0  0  0  0  0  0  0  0  0  0  0  0
  -11.0574   -0.5431   12.2042 O   0  0  0  0  0  0  0  0  0  0  0  0
  -11.3681   -1.9306   12.0818 C   0  0  0  0  0  0  0  0  0  0  0  0
  -11.3435   -2.5157   13.3725 O   0  0  0  0  0  0  0  0  0  0  0  0
  -12.7398   -2.1194   11.4002 C   0  0  0  0  0  0  0  0  0  0  0  0
  -13.0911   -3.5029   11.2618 O   0  0  0  0  0  0  0  0  0  0  0  0
  -12.7238   -1.4247   10.0321 C   0  0  0  0  0  0  0  0  0  0  0  0
  -14.0113   -1.4498    9.4032 O   0  0  0  0  0  0  0  0  0  0  0  0
  -12.2451    0.0308   10.1614 C   0  0  0  0  0  0  0  0  0  0  0  0
  -12.1050    0.6460    8.8794 O   0  0  0  0  0  0  0  0  0  0  0  0
  -12.1861   -2.2926   13.7999 H   0  0  0  0  0  0  0  0  0  0  0  0
  -12.4276   -3.9365   10.7025 H   0  0  0  0  0  0  0  0  0  0  0  0
  -14.6783   -1.1767   10.0604 H   0  0  0  0  0  0  0  0  0  0  0  0
  -12.2270   -0.0331    8.1903 H   0  0  0  0  0  0  0  0  0  0  0  0
 14 15  1  0
 14 16  1  0
  2  3  1  0
  2  9  1  0
  2 15  1  0
  3  4  1  0
  4  5  1  0
  4  1  1  0
  1 17  1  0
 18 19  1  0
 18 26  1  0
 18 17  1  0
 19 20  1  0
 20 22  1  0
 20 21  1  0
 21 28  1  0
 22 23  1  0
 22 24  1  0
 23 29  1  0
 24 25  1  0
 24 26  1  0
 25 30  1  0
 26 27  1  0
 27 31  1  0
  5  6  1  0
  5  7  1  0
  6 11  1  0
  7  8  1  0
  7  9  1  0
  8 12  1  0
  9 10  1  0
 10 13  1  0
M  END
> <minimizedAffinity>
-5.35204

> <CNNscore>
0.5061561465

> <CNNaffinity>
2.5364141464

> <CNN_VS>
1.2838215828

> <CNNaffinity_variance>
0.9654095769

$$$$



 31 32  0  0  0  0  0  0  0  0999 V2000
  -10.6416    0.4700   13.4272 O   0  0  0  0  0  0  0  0  0  0  0  0
  -13.2566    2.3229   11.6800 C   0  0  0  0  0  0  0  0  0  0  0  0
  -12.5556    1.6505   12.7303 O   0  0  0  0  0  0  0  0  0  0  0  0
  -11.3452    1.0254   12.3035 C   0  0  0  0  0  0  0  0  0  0  0  0
  -11.6015   -0.0200   11.1860 C   0  0  0  0  0  0  0  0  0  0  0  0
  -10.3797   -0.5872   10.6905 O   0  0  0  0  0  0  0  0  0  0  0  0
  -12.4112    0.6172   10.0452 C   0  0  0  0  0  0  0  0  0  0  0  0
  -12.7834   -0.3774    9.0699 O   0  0  0  0  0  0  0  0  0  0  0  0
  -13.6612    1.3213   10.5851 C   0  0  0  0  0  0  0  0  0  0  0  0
  -14.3950    1.9719    9.5421 O   0  0  0  0  0  0  0  0  0  0  0  0
   -9.8479    0.1235   10.2905 H   0  0  0  0  0  0  0  0  0  0  0  0
  -13.2305   -1.1112    9.5276 H   0  0  0  0  0  0  0  0  0  0  0  0
  -13.7627    2.4447    8.9703 H   0  0  0  0  0  0  0  0  0  0  0  0
  -14.3190    3.2888   13.6857 O   0  0  0  0  0  0  0  0  0  0  0  0
  -14.4747    3.0290   12.2957 C   0  0  0  0  0  0  0  0  0  0  0  0
  -13.5220    3.8496   13.7837 H   0  0  0  0  0  0  0  0  0  0  0  0
   -9.2232    0.4495   13.2640 C   0  0  0  0  0  0  0  0  0  0  0  0
   -8.6574    1.8676   13.1033 C   0  0  0  0  0  0  0  0  0  0  0  0
   -9.4086    2.5963   12.1256 O   0  0  0  0  0  0  0  0  0  0  0  0
   -8.8843    3.9040   11.8981 C   0  0  0  0  0  0  0  0  0  0  0  0
   -9.5900    4.4935   10.8196 O   0  0  0  0  0  0  0  0  0  0  0  0
   -8.9893    4.7589   13.1786 C   0  0  0  0  0  0  0  0  0  0  0  0
   -8.4752    6.0843   12.9899 O   0  0  0  0  0  0  0  0  0  0  0  0
   -8.2515    4.0491   14.3216 C   0  0  0  0  0  0  0  0  0  0  0  0
   -8.4229    4.7268   15.5726 O   0  0  0  0  0  0  0  0  0  0  0  0
   -8.7247    2.5925   14.4590 C   0  0  0  0  0  0  0  0  0  0  0  0
   -7.9547    1.8873   15.4345 O   0  0  0  0  0  0  0  0  0  0  0  0
  -10.4327    4.8171   11.1767 H   0  0  0  0  0  0  0  0  0  0  0  0
   -7.5350    6.0220   12.7595 H   0  0  0  0  0  0  0  0  0  0  0  0
   -9.3700    4.9327   15.6819 H   0  0  0  0  0  0  0  0  0  0  0  0
   -7.2114    2.4523   15.7158 H   0  0  0  0  0  0  0  0  0  0  0  0
 14 15  1  0
 14 16  1  0
  2  3  1  0
  2  9  1  0
  2 15  1  0
  3  4  1  0
  4  5  1  0
  4  1  1  0
  1 17  1  0
 18 19  1  0
 18 26  1  0
 18 17  1  0
 19 20  1  0
 20 22  1  0
 20 21  1  0
 21 28  1  0
 22 23  1  0
 22 24  1  0
 23 29  1  0
 24 25  1  0
 24 26  1  0
 25 30  1  0
 26 27  1  0
 27 31  1  0
  5  6  1  0
  5  7  1  0
  6 11  1  0
  7  8  1  0
  7  9  1  0
  8 12  1  0
  9 10  1  0
 10 13  1  0
M  END
> <minimizedAffinity>
-5.12427

> <CNNscore>
0.5040346384

> <CNNaffinity>
2.7834804058

> <CNN_VS>
1.4029705524

> <CNNaffinity_variance>
0.5099507570

$$$$



 31 32  0  0  0  0  0  0  0  0999 V2000
  -11.1685    1.7831   10.5951 O   0  0  0  0  0  0  0  0  0  0  0  0
  -14.1402    0.3071   12.1165 C   0  0  0  0  0  0  0  0  0  0  0  0
  -12.9217    1.0445   11.9820 O   0  0  0  0  0  0  0  0  0  0  0  0
  -12.3214    0.9301   10.6918 C   0  0  0  0  0  0  0  0  0  0  0  0
  -12.0014   -0.5457   10.3357 C   0  0  0  0  0  0  0  0  0  0  0  0
  -11.4804   -0.6764    9.0048 O   0  0  0  0  0  0  0  0  0  0  0  0
  -13.2555   -1.4153   10.5204 C   0  0  0  0  0  0  0  0  0  0  0  0
  -12.9379   -2.8097   10.3364 O   0  0  0  0  0  0  0  0  0  0  0  0
  -13.8793   -1.1936   11.9028 C   0  0  0  0  0  0  0  0  0  0  0  0
  -15.0829   -1.9510   12.0686 O   0  0  0  0  0  0  0  0  0  0  0  0
  -12.1607   -0.3792    8.3750 H   0  0  0  0  0  0  0  0  0  0  0  0
  -12.1924   -3.0394   10.9189 H   0  0  0  0  0  0  0  0  0  0  0  0
  -15.6176   -1.8598   11.2586 H   0  0  0  0  0  0  0  0  0  0  0  0
  -13.9451    1.5319   14.2487 O   0  0  0  0  0  0  0  0  0  0  0  0
  -14.7235    0.5998   13.5076 C   0  0  0  0  0  0  0  0  0  0  0  0
  -13.9082    2.3561   13.7209 H   0  0  0  0  0  0  0  0  0  0  0  0
  -10.1776    1.5253   11.5903 C   0  0  0  0  0  0  0  0  0  0  0  0
  -10.0889    2.6755   12.6033 C   0  0  0  0  0  0  0  0  0  0  0  0
  -10.4895    2.2271   13.9032 O   0  0  0  0  0  0  0  0  0  0  0  0
  -10.4793    3.2772   14.8697 C   0  0  0  0  0  0  0  0  0  0  0  0
  -11.0268    2.7837   16.0803 O   0  0  0  0  0  0  0  0  0  0  0  0
   -9.0458    3.8114   15.0725 C   0  0  0  0  0  0  0  0  0  0  0  0
   -8.9922    4.8675   16.0412 O   0  0  0  0  0  0  0  0  0  0  0  0
   -8.4875    4.2843   13.7236 C   0  0  0  0  0  0  0  0  0  0  0  0
   -7.1107    4.6705   13.8191 O   0  0  0  0  0  0  0  0  0  0  0  0
   -8.6398    3.1910   12.6532 C   0  0  0  0  0  0  0  0  0  0  0  0
   -8.2406    3.6666   11.3663 O   0  0  0  0  0  0  0  0  0  0  0  0
  -10.3263    2.2761   16.5209 H   0  0  0  0  0  0  0  0  0  0  0  0
   -9.5346    5.6066   15.7239 H   0  0  0  0  0  0  0  0  0  0  0  0
   -6.6312    3.9758   14.3079 H   0  0  0  0  0  0  0  0  0  0  0  0
   -8.0723    4.6254   11.4244 H   0  0  0  0  0  0  0  0  0  0  0  0
 14 15  1  0
 14 16  1  0
  2  3  1  0
  2  9  1  0
  2 15  1  0
  3  4  1  0
  4  5  1  0
  4  1  1  0
  1 17  1  0
 18 19  1  0
 18 26  1  0
 18 17  1  0
 19 20  1  0
 20 22  1  0
 20 21  1  0
 21 28  1  0
 22 23  1  0
 22 24  1  0
 23 29  1  0
 24 25  1  0
 24 26  1  0
 25 30  1  0
 26 27  1  0
 27 31  1  0
  5  6  1  0
  5  7  1  0
  6 11  1  0
  7  8  1  0
  7  9  1  0
  8 12  1  0
  9 10  1  0
 10 13  1  0
M  END
> <minimizedAffinity>
-4.52885

> <CNNscore>
0.4852185249

> <CNNaffinity>
3.2387130260

> <CNN_VS>
1.5714836121

> <CNNaffinity_variance>
0.9490914941

$$$$



 31 32  0  0  0  0  0  0  0  0999 V2000
   -9.4072   -1.1504   13.4654 O   0  0  0  0  0  0  0  0  0  0  0  0
   -7.6740   -3.3940   15.7646 C   0  0  0  0  0  0  0  0  0  0  0  0
   -8.3137   -2.9132   14.5788 O   0  0  0  0  0  0  0  0  0  0  0  0
   -8.8846   -1.6126   14.7222 C   0  0  0  0  0  0  0  0  0  0  0  0
   -9.9411   -1.5708   15.8576 C   0  0  0  0  0  0  0  0  0  0  0  0
  -10.4537   -0.2465   16.0661 O   0  0  0  0  0  0  0  0  0  0  0  0
   -9.3415   -2.1361   17.1553 C   0  0  0  0  0  0  0  0  0  0  0  0
  -10.3524   -2.2409   18.1781 O   0  0  0  0  0  0  0  0  0  0  0  0
   -8.6935   -3.5036   16.9111 C   0  0  0  0  0  0  0  0  0  0  0  0
   -8.0769   -4.0171   18.0968 O   0  0  0  0  0  0  0  0  0  0  0  0
   -9.7203    0.3290   16.3467 H   0  0  0  0  0  0  0  0  0  0  0  0
  -11.1051   -2.7456   17.8223 H   0  0  0  0  0  0  0  0  0  0  0  0
   -7.5768   -3.2955   18.5204 H   0  0  0  0  0  0  0  0  0  0  0  0
   -5.8227   -4.6164   14.6862 O   0  0  0  0  0  0  0  0  0  0  0  0
   -7.0224   -4.7472   15.4395 C   0  0  0  0  0  0  0  0  0  0  0  0
   -5.2096   -4.0690   15.2188 H   0  0  0  0  0  0  0  0  0  0  0  0
  -10.6553   -1.7451   13.1083 C   0  0  0  0  0  0  0  0  0  0  0  0
  -11.4355   -0.8615   12.1247 C   0  0  0  0  0  0  0  0  0  0  0  0
  -10.5909    0.1718   11.6047 O   0  0  0  0  0  0  0  0  0  0  0  0
  -11.2877    1.0564   10.7280 C   0  0  0  0  0  0  0  0  0  0  0  0
  -10.4229    2.1244   10.3812 O   0  0  0  0  0  0  0  0  0  0  0  0
  -11.7828    0.2994    9.4776 C   0  0  0  0  0  0  0  0  0  0  0  0
  -12.4861    1.1561    8.5677 O   0  0  0  0  0  0  0  0  0  0  0  0
  -12.6714   -0.8724    9.9156 C   0  0  0  0  0  0  0  0  0  0  0  0
  -13.0572   -1.6957    8.8078 O   0  0  0  0  0  0  0  0  0  0  0  0
  -11.9609   -1.7349   10.9718 C   0  0  0  0  0  0  0  0  0  0  0  0
  -12.8272   -2.7520   11.4785 O   0  0  0  0  0  0  0  0  0  0  0  0
   -9.8285    1.7932    9.6887 H   0  0  0  0  0  0  0  0  0  0  0  0
  -13.2675    1.5123    9.0189 H   0  0  0  0  0  0  0  0  0  0  0  0
  -12.2623   -1.8833    8.2745 H   0  0  0  0  0  0  0  0  0  0  0  0
  -13.7256   -2.6009   11.1306 H   0  0  0  0  0  0  0  0  0  0  0  0
 14 15  1  0
 14 16  1  0
  2  3  1  0
  2  9  1  0
  2 15  1  0
  3  4  1  0
  4  5  1  0
  4  1  1  0
  1 17  1  0
 18 19  1  0
 18 26  1  0
 18 17  1  0
 19 20  1  0
 20 22  1  0
 20 21  1  0
 21 28  1  0
 22 23  1  0
 22 24  1  0
 23 29  1  0
 24 25  1  0
 24 26  1  0
 25 30  1  0
 26 27  1  0
 27 31  1  0
  5  6  1  0
  5  7  1  0
  6 11  1  0
  7  8  1  0
  7  9  1  0
  8 12  1  0
  9 10  1  0
 10 13  1  0
M  END
> <minimizedAffinity>
-5.72348

> <CNNscore>
0.4664470255

> <CNNaffinity>
2.7116711140

> <CNN_VS>
1.2648509741

> <CNNaffinity_variance>
0.6285231709

$$$$



 31 32  0  0  0  0  0  0  0  0999 V2000
   -9.6033   -1.2717   13.3891 O   0  0  0  0  0  0  0  0  0  0  0  0
   -8.5464   -0.0554   16.6644 C   0  0  0  0  0  0  0  0  0  0  0  0
   -8.8193   -0.0772   15.2603 O   0  0  0  0  0  0  0  0  0  0  0  0
   -9.2399   -1.3531   14.7775 C   0  0  0  0  0  0  0  0  0  0  0  0
   -8.1773   -2.4500   15.0512 C   0  0  0  0  0  0  0  0  0  0  0  0
   -8.6317   -3.7506   14.6488 O   0  0  0  0  0  0  0  0  0  0  0  0
   -7.7849   -2.4431   16.5375 C   0  0  0  0  0  0  0  0  0  0  0  0
   -6.6940   -3.3545   16.7788 O   0  0  0  0  0  0  0  0  0  0  0  0
   -7.4058   -1.0314   16.9992 C   0  0  0  0  0  0  0  0  0  0  0  0
   -7.0958   -0.9964   18.3965 O   0  0  0  0  0  0  0  0  0  0  0  0
   -9.4148   -3.9830   15.1786 H   0  0  0  0  0  0  0  0  0  0  0  0
   -5.9692   -3.1432   16.1641 H   0  0  0  0  0  0  0  0  0  0  0  0
   -7.7697   -1.5143   18.8740 H   0  0  0  0  0  0  0  0  0  0  0  0
   -9.3544    2.2239   17.1503 O   0  0  0  0  0  0  0  0  0  0  0  0
   -8.2057    1.3894   17.0615 C   0  0  0  0  0  0  0  0  0  0  0  0
   -9.9468    1.8236   17.8197 H   0  0  0  0  0  0  0  0  0  0  0  0
  -10.9315   -1.7186   13.1154 C   0  0  0  0  0  0  0  0  0  0  0  0
  -11.6264   -0.8135   12.0884 C   0  0  0  0  0  0  0  0  0  0  0  0
  -10.7213    0.1909   11.6158 O   0  0  0  0  0  0  0  0  0  0  0  0
  -11.3390    1.0947   10.7001 C   0  0  0  0  0  0  0  0  0  0  0  0
  -10.4223    2.1336   10.4015 O   0  0  0  0  0  0  0  0  0  0  0  0
  -11.7866    0.3502    9.4246 C   0  0  0  0  0  0  0  0  0  0  0  0
  -12.4098    1.2261    8.4755 O   0  0  0  0  0  0  0  0  0  0  0  0
  -12.7354   -0.7915    9.8130 C   0  0  0  0  0  0  0  0  0  0  0  0
  -13.0842   -1.6053    8.6861 O   0  0  0  0  0  0  0  0  0  0  0  0
  -12.1135   -1.6731   10.9086 C   0  0  0  0  0  0  0  0  0  0  0  0
  -13.0390   -2.6607   11.3666 O   0  0  0  0  0  0  0  0  0  0  0  0
   -9.8007    1.7817    9.7441 H   0  0  0  0  0  0  0  0  0  0  0  0
  -13.2036    1.6083    8.8815 H   0  0  0  0  0  0  0  0  0  0  0  0
  -12.2669   -1.8196    8.1987 H   0  0  0  0  0  0  0  0  0  0  0  0
  -13.9111   -2.4821   10.9685 H   0  0  0  0  0  0  0  0  0  0  0  0
 14 15  1  0
 14 16  1  0
  2  3  1  0
  2  9  1  0
  2 15  1  0
  3  4  1  0
  4  5  1  0
  4  1  1  0
  1 17  1  0
 18 19  1  0
 18 26  1  0
 18 17  1  0
 19 20  1  0
 20 22  1  0
 20 21  1  0
 21 28  1  0
 22 23  1  0
 22 24  1  0
 23 29  1  0
 24 25  1  0
 24 26  1  0
 25 30  1  0
 26 27  1  0
 27 31  1  0
  5  6  1  0
  5  7  1  0
  6 11  1  0
  7  8  1  0
  7  9  1  0
  8 12  1  0
  9 10  1  0
 10 13  1  0
M  END
> <minimizedAffinity>
-5.52642

> <CNNscore>
0.4578661919

> <CNNaffinity>
2.8534791470

> <CNN_VS>
1.3065116405

> <CNNaffinity_variance>
0.5679653287

$$$$
