


 31 32  0  0  0  0  0  0  0  0999 V2000
   17.7919   -2.1603   -0.1952 O   0  0  0  0  0  0  0  0  0  0  0  0
   17.9656   -1.6872    3.4201 C   0  0  0  0  0  0  0  0  0  0  0  0
   17.9921   -2.3337    2.1442 O   0  0  0  0  0  0  0  0  0  0  0  0
   17.6338   -1.4772    1.0597 C   0  0  0  0  0  0  0  0  0  0  0  0
   16.2108   -0.8859    1.2404 C   0  0  0  0  0  0  0  0  0  0  0  0
   15.8798    0.0452    0.1995 O   0  0  0  0  0  0  0  0  0  0  0  0
   16.0865   -0.2272    2.6237 C   0  0  0  0  0  0  0  0  0  0  0  0
   14.7293    0.1959    2.8644 O   0  0  0  0  0  0  0  0  0  0  0  0
   16.5462   -1.1826    3.7307 C   0  0  0  0  0  0  0  0  0  0  0  0
   16.4939   -0.5634    5.0205 O   0  0  0  0  0  0  0  0  0  0  0  0
   16.5003    0.7940    0.2446 H   0  0  0  0  0  0  0  0  0  0  0  0
   14.1357   -0.5619    2.7182 H   0  0  0  0  0  0  0  0  0  0  0  0
   16.8692    0.3332    4.9465 H   0  0  0  0  0  0  0  0  0  0  0  0
   17.4607   -3.0528    5.4113 O   0  0  0  0  0  0  0  0  0  0  0  0
   18.4658   -2.6889    4.4726 C   0  0  0  0  0  0  0  0  0  0  0  0
   16.7220   -3.4442    4.9011 H   0  0  0  0  0  0  0  0  0  0  0  0
   19.1477   -2.2502   -0.6337 C   0  0  0  0  0  0  0  0  0  0  0  0
   19.3037   -3.2777   -1.7637 C   0  0  0  0  0  0  0  0  0  0  0  0
   18.0616   -3.9500   -2.0013 O   0  0  0  0  0  0  0  0  0  0  0  0
   18.1701   -4.9580   -3.0058 C   0  0  0  0  0  0  0  0  0  0  0  0
   16.9445   -5.6668   -3.0703 O   0  0  0  0  0  0  0  0  0  0  0  0
   18.5323   -4.3278   -4.3672 C   0  0  0  0  0  0  0  0  0  0  0  0
   18.6471   -5.3094   -5.4062 O   0  0  0  0  0  0  0  0  0  0  0  0
   19.8378   -3.5339   -4.2248 C   0  0  0  0  0  0  0  0  0  0  0  0
   20.1607   -2.8144   -5.4214 O   0  0  0  0  0  0  0  0  0  0  0  0
   19.7575   -2.5532   -3.0432 C   0  0  0  0  0  0  0  0  0  0  0  0
   21.0105   -1.9024   -2.8238 O   0  0  0  0  0  0  0  0  0  0  0  0
   16.3290   -5.1206   -3.5853 H   0  0  0  0  0  0  0  0  0  0  0  0
   19.3597   -5.9251   -5.1733 H   0  0  0  0  0  0  0  0  0  0  0  0
   19.3590   -2.3487   -5.7242 H   0  0  0  0  0  0  0  0  0  0  0  0
   21.6827   -2.3143   -3.3978 H   0  0  0  0  0  0  0  0  0  0  0  0
 14 15  1  0
 14 16  1  0
  2  3  1  0
  2  9  1  0
  2 15  1  0
  3  4  1  0
  4  5  1  0
  4  1  1  0
  1 17  1  0
 18 19  1  0
 18 26  1  0
 18 17  1  0
 19 20  1  0
 20 22  1  0
 20 21  1  0
 21 28  1  0
 22 23  1  0
 22 24  1  0
 23 29  1  0
 24 25  1  0
 24 26  1  0
 25 30  1  0
 26 27  1  0
 27 31  1  0
  5  6  1  0
  5  7  1  0
  6 11  1  0
  7  8  1  0
  7  9  1  0
  8 12  1  0
  9 10  1  0
 10 13  1  0
M  END
> <minimizedAffinity>
-4.59941

> <CNNscore>
0.9230945706

> <CNNaffinity>
3.0160915852

> <CNN_VS>
2.7841377258

> <CNNaffinity_variance>
0.4233587682

$$$$



 31 32  0  0  0  0  0  0  0  0999 V2000
   16.3114   -0.3574    5.6973 O   0  0  0  0  0  0  0  0  0  0  0  0
   17.7865   -2.1552    2.8837 C   0  0  0  0  0  0  0  0  0  0  0  0
   17.6842   -1.4160    4.1042 O   0  0  0  0  0  0  0  0  0  0  0  0
   16.3553   -0.9919    4.4082 C   0  0  0  0  0  0  0  0  0  0  0  0
   15.7662   -0.0986    3.2847 C   0  0  0  0  0  0  0  0  0  0  0  0
   14.3998    0.2574    3.5424 O   0  0  0  0  0  0  0  0  0  0  0  0
   15.9009   -0.8047    1.9260 C   0  0  0  0  0  0  0  0  0  0  0  0
   15.4937    0.0717    0.8559 O   0  0  0  0  0  0  0  0  0  0  0  0
   17.3381   -1.2859    1.6968 C   0  0  0  0  0  0  0  0  0  0  0  0
   17.4675   -1.9991    0.4622 O   0  0  0  0  0  0  0  0  0  0  0  0
   13.8656   -0.5563    3.5601 H   0  0  0  0  0  0  0  0  0  0  0  0
   15.9870    0.9075    0.9323 H   0  0  0  0  0  0  0  0  0  0  0  0
   16.7157   -2.6146    0.3825 H   0  0  0  0  0  0  0  0  0  0  0  0
   19.8834   -2.0917    1.5863 O   0  0  0  0  0  0  0  0  0  0  0  0
   19.2401   -2.6308    2.7349 C   0  0  0  0  0  0  0  0  0  0  0  0
   19.8576   -1.1168    1.6760 H   0  0  0  0  0  0  0  0  0  0  0  0
   15.2728    0.6141    5.8246 C   0  0  0  0  0  0  0  0  0  0  0  0
   14.5501    0.4876    7.1732 C   0  0  0  0  0  0  0  0  0  0  0  0
   13.9529    1.7373    7.5380 O   0  0  0  0  0  0  0  0  0  0  0  0
   13.3170    1.6861    8.8146 C   0  0  0  0  0  0  0  0  0  0  0  0
   12.8872    2.9920    9.1591 O   0  0  0  0  0  0  0  0  0  0  0  0
   12.1389    0.6894    8.7922 C   0  0  0  0  0  0  0  0  0  0  0  0
   11.4697    0.6116   10.0582 O   0  0  0  0  0  0  0  0  0  0  0  0
   12.6539   -0.6917    8.3655 C   0  0  0  0  0  0  0  0  0  0  0  0
   11.5866   -1.6331    8.1970 O   0  0  0  0  0  0  0  0  0  0  0  0
   13.4637   -0.5966    7.0619 C   0  0  0  0  0  0  0  0  0  0  0  0
   14.0538   -1.8537    6.7255 O   0  0  0  0  0  0  0  0  0  0  0  0
   12.0611    3.1542    8.6757 H   0  0  0  0  0  0  0  0  0  0  0  0
   12.1018    0.2981   10.7238 H   0  0  0  0  0  0  0  0  0  0  0  0
   10.8857   -1.2094    7.6672 H   0  0  0  0  0  0  0  0  0  0  0  0
   13.9146   -2.4736    7.4652 H   0  0  0  0  0  0  0  0  0  0  0  0
 14 15  1  0
 14 16  1  0
  2  3  1  0
  2  9  1  0
  2 15  1  0
  3  4  1  0
  4  5  1  0
  4  1  1  0
  1 17  1  0
 18 19  1  0
 18 26  1  0
 18 17  1  0
 19 20  1  0
 20 22  1  0
 20 21  1  0
 21 28  1  0
 22 23  1  0
 22 24  1  0
 23 29  1  0
 24 25  1  0
 24 26  1  0
 25 30  1  0
 26 27  1  0
 27 31  1  0
  5  6  1  0
  5  7  1  0
  6 11  1  0
  7  8  1  0
  7  9  1  0
  8 12  1  0
  9 10  1  0
 10 13  1  0
M  END
> <minimizedAffinity>
-6.08876

> <CNNscore>
0.9106048346

> <CNNaffinity>
2.9205677509

> <CNN_VS>
2.6594831944

> <CNNaffinity_variance>
0.6474071145

$$$$



 31 32  0  0  0  0  0  0  0  0999 V2000
   18.6270    0.1215   -0.1851 O   0  0  0  0  0  0  0  0  0  0  0  0
   18.9063    2.0847   -3.2497 C   0  0  0  0  0  0  0  0  0  0  0  0
   18.3558    1.5320   -2.0505 O   0  0  0  0  0  0  0  0  0  0  0  0
   19.1885    0.5474   -1.4380 C   0  0  0  0  0  0  0  0  0  0  0  0
   19.4754   -0.6391   -2.3956 C   0  0  0  0  0  0  0  0  0  0  0  0
   20.3838   -1.5883   -1.8179 O   0  0  0  0  0  0  0  0  0  0  0  0
   20.0120   -0.1145   -3.7372 C   0  0  0  0  0  0  0  0  0  0  0  0
   20.1436   -1.1911   -4.6873 O   0  0  0  0  0  0  0  0  0  0  0  0
   19.1011    0.9809   -4.3030 C   0  0  0  0  0  0  0  0  0  0  0  0
   19.6189    1.5229   -5.5227 O   0  0  0  0  0  0  0  0  0  0  0  0
   21.2362   -1.1452   -1.6604 H   0  0  0  0  0  0  0  0  0  0  0  0
   19.2938   -1.6628   -4.7438 H   0  0  0  0  0  0  0  0  0  0  0  0
   20.5748    1.6770   -5.4093 H   0  0  0  0  0  0  0  0  0  0  0  0
   16.7051    3.1841   -3.0742 O   0  0  0  0  0  0  0  0  0  0  0  0
   17.9614    3.1923   -3.7416 C   0  0  0  0  0  0  0  0  0  0  0  0
   16.8886    3.3002   -2.1191 H   0  0  0  0  0  0  0  0  0  0  0  0
   18.2413   -1.2532   -0.1659 C   0  0  0  0  0  0  0  0  0  0  0  0
   17.3622   -1.5711    1.0520 C   0  0  0  0  0  0  0  0  0  0  0  0
   18.1766   -1.8176    2.2041 O   0  0  0  0  0  0  0  0  0  0  0  0
   17.4059   -2.1752    3.3507 C   0  0  0  0  0  0  0  0  0  0  0  0
   18.2911   -2.5435    4.3945 O   0  0  0  0  0  0  0  0  0  0  0  0
   16.4888   -1.0074    3.7713 C   0  0  0  0  0  0  0  0  0  0  0  0
   15.6987   -1.3262    4.9249 O   0  0  0  0  0  0  0  0  0  0  0  0
   15.5903   -0.6199    2.5893 C   0  0  0  0  0  0  0  0  0  0  0  0
   14.8059    0.5457    2.8719 O   0  0  0  0  0  0  0  0  0  0  0  0
   16.4256   -0.3801    1.3208 C   0  0  0  0  0  0  0  0  0  0  0  0
   15.5892   -0.1442    0.1865 O   0  0  0  0  0  0  0  0  0  0  0  0
   18.6230   -1.7200    4.7872 H   0  0  0  0  0  0  0  0  0  0  0  0
   15.1275   -2.0803    4.7104 H   0  0  0  0  0  0  0  0  0  0  0  0
   15.3924    1.2231    3.2574 H   0  0  0  0  0  0  0  0  0  0  0  0
   14.6622   -0.3085    0.4406 H   0  0  0  0  0  0  0  0  0  0  0  0
 14 15  1  0
 14 16  1  0
  2  3  1  0
  2  9  1  0
  2 15  1  0
  3  4  1  0
  4  5  1  0
  4  1  1  0
  1 17  1  0
 18 19  1  0
 18 26  1  0
 18 17  1  0
 19 20  1  0
 20 22  1  0
 20 21  1  0
 21 28  1  0
 22 23  1  0
 22 24  1  0
 23 29  1  0
 24 25  1  0
 24 26  1  0
 25 30  1  0
 26 27  1  0
 27 31  1  0
  5  6  1  0
  5  7  1  0
  6 11  1  0
  7  8  1  0
  7  9  1  0
  8 12  1  0
  9 10  1  0
 10 13  1  0
M  END
> <minimizedAffinity>
-4.54694

> <CNNscore>
0.8971132040

> <CNNaffinity>
2.9048788548

> <CNN_VS>
2.6060051918

> <CNNaffinity_variance>
0.4980895519

$$$$



 31 32  0  0  0  0  0  0  0  0999 V2000
   16.7375   -1.2237    1.4716 O   0  0  0  0  0  0  0  0  0  0  0  0
   16.9171   -1.8660    5.0604 C   0  0  0  0  0  0  0  0  0  0  0  0
   16.9675   -2.0905    3.6485 O   0  0  0  0  0  0  0  0  0  0  0  0
   16.5535   -0.9652    2.8737 C   0  0  0  0  0  0  0  0  0  0  0  0
   15.1020   -0.5357    3.2142 C   0  0  0  0  0  0  0  0  0  0  0  0
   14.7115    0.6487    2.5038 O   0  0  0  0  0  0  0  0  0  0  0  0
   14.9543   -0.3376    4.7314 C   0  0  0  0  0  0  0  0  0  0  0  0
   13.5782   -0.0829    5.0785 O   0  0  0  0  0  0  0  0  0  0  0  0
   15.4751   -1.5584    5.4984 C   0  0  0  0  0  0  0  0  0  0  0  0
   15.4006   -1.3655    6.9150 O   0  0  0  0  0  0  0  0  0  0  0  0
   15.2907    1.3809    2.7801 H   0  0  0  0  0  0  0  0  0  0  0  0
   13.0256   -0.7912    4.7035 H   0  0  0  0  0  0  0  0  0  0  0  0
   15.7258   -0.4698    7.1209 H   0  0  0  0  0  0  0  0  0  0  0  0
   18.5208   -3.7398    5.0218 O   0  0  0  0  0  0  0  0  0  0  0  0
   17.4805   -3.1119    5.7616 C   0  0  0  0  0  0  0  0  0  0  0  0
   19.2288   -3.0735    4.9031 H   0  0  0  0  0  0  0  0  0  0  0  0
   17.5716   -0.2684    0.8157 C   0  0  0  0  0  0  0  0  0  0  0  0
   18.4465   -0.9321   -0.2572 C   0  0  0  0  0  0  0  0  0  0  0  0
   17.7121   -1.9581   -0.9349 O   0  0  0  0  0  0  0  0  0  0  0  0
   18.5025   -2.6452   -1.9043 C   0  0  0  0  0  0  0  0  0  0  0  0
   17.7488   -3.7311   -2.4157 O   0  0  0  0  0  0  0  0  0  0  0  0
   18.9401   -1.6809   -3.0269 C   0  0  0  0  0  0  0  0  0  0  0  0
   19.7349   -2.3352   -4.0252 O   0  0  0  0  0  0  0  0  0  0  0  0
   19.7063   -0.5028   -2.4105 C   0  0  0  0  0  0  0  0  0  0  0  0
   20.0269    0.4971   -3.3857 O   0  0  0  0  0  0  0  0  0  0  0  0
   18.9018    0.1365   -1.2666 C   0  0  0  0  0  0  0  0  0  0  0  0
   19.6596    1.1504   -0.6037 O   0  0  0  0  0  0  0  0  0  0  0  0
   17.1352   -3.3646   -3.0727 H   0  0  0  0  0  0  0  0  0  0  0  0
   20.5404   -2.6758   -3.6056 H   0  0  0  0  0  0  0  0  0  0  0  0
   19.2252    0.6815   -3.9098 H   0  0  0  0  0  0  0  0  0  0  0  0
   20.5731    1.1327   -0.9445 H   0  0  0  0  0  0  0  0  0  0  0  0
 14 15  1  0
 14 16  1  0
  2  3  1  0
  2  9  1  0
  2 15  1  0
  3  4  1  0
  4  5  1  0
  4  1  1  0
  1 17  1  0
 18 19  1  0
 18 26  1  0
 18 17  1  0
 19 20  1  0
 20 22  1  0
 20 21  1  0
 21 28  1  0
 22 23  1  0
 22 24  1  0
 23 29  1  0
 24 25  1  0
 24 26  1  0
 25 30  1  0
 26 27  1  0
 27 31  1  0
  5  6  1  0
  5  7  1  0
  6 11  1  0
  7  8  1  0
  7  9  1  0
  8 12  1  0
  9 10  1  0
 10 13  1  0
M  END
> <minimizedAffinity>
-4.87577

> <CNNscore>
0.8831171989

> <CNNaffinity>
3.2083816528

> <CNN_VS>
2.8333771229

> <CNNaffinity_variance>
0.3529178202

$$$$



 31 32  0  0  0  0  0  0  0  0999 V2000
   16.4589   -0.6160    1.6599 O   0  0  0  0  0  0  0  0  0  0  0  0
   18.7979   -2.8547   -0.0257 C   0  0  0  0  0  0  0  0  0  0  0  0
   18.0400   -2.2386    1.0195 O   0  0  0  0  0  0  0  0  0  0  0  0
   17.2781   -1.1113    0.5876 C   0  0  0  0  0  0  0  0  0  0  0  0
   18.1804   -0.0102   -0.0295 C   0  0  0  0  0  0  0  0  0  0  0  0
   17.4123    1.0865   -0.5465 O   0  0  0  0  0  0  0  0  0  0  0  0
   19.0754   -0.6152   -1.1231 C   0  0  0  0  0  0  0  0  0  0  0  0
   20.0214    0.3616   -1.6028 O   0  0  0  0  0  0  0  0  0  0  0  0
   19.8130   -1.8554   -0.6059 C   0  0  0  0  0  0  0  0  0  0  0  0
   20.6047   -2.4665   -1.6303 O   0  0  0  0  0  0  0  0  0  0  0  0
   16.8451    0.7560   -1.2654 H   0  0  0  0  0  0  0  0  0  0  0  0
   20.5013    0.7315   -0.8407 H   0  0  0  0  0  0  0  0  0  0  0  0
   20.0740   -2.5051   -2.4471 H   0  0  0  0  0  0  0  0  0  0  0  0
   19.5332   -4.0956    1.9753 O   0  0  0  0  0  0  0  0  0  0  0  0
   19.4823   -4.1027    0.5536 C   0  0  0  0  0  0  0  0  0  0  0  0
   18.6085   -4.0426    2.2937 H   0  0  0  0  0  0  0  0  0  0  0  0
   16.5693   -1.3742    2.8648 C   0  0  0  0  0  0  0  0  0  0  0  0
   16.3821   -0.4870    4.1037 C   0  0  0  0  0  0  0  0  0  0  0  0
   17.2960    0.6153    4.0704 O   0  0  0  0  0  0  0  0  0  0  0  0
   17.2002    1.4388    5.2320 C   0  0  0  0  0  0  0  0  0  0  0  0
   18.2323    2.4091    5.1856 O   0  0  0  0  0  0  0  0  0  0  0  0
   15.8069    2.0973    5.3145 C   0  0  0  0  0  0  0  0  0  0  0  0
   15.6715    2.9379    6.4685 O   0  0  0  0  0  0  0  0  0  0  0  0
   14.7305    1.0037    5.3111 C   0  0  0  0  0  0  0  0  0  0  0  0
   13.4083    1.5534    5.2530 O   0  0  0  0  0  0  0  0  0  0  0  0
   14.9352    0.0360    4.1338 C   0  0  0  0  0  0  0  0  0  0  0  0
   14.0166   -1.0567    4.1954 O   0  0  0  0  0  0  0  0  0  0  0  0
   17.9363    3.1076    4.5799 H   0  0  0  0  0  0  0  0  0  0  0  0
   15.7818    2.3928    7.2633 H   0  0  0  0  0  0  0  0  0  0  0  0
   13.3896    2.2324    4.5530 H   0  0  0  0  0  0  0  0  0  0  0  0
   13.5369   -1.0159    5.0434 H   0  0  0  0  0  0  0  0  0  0  0  0
 14 15  1  0
 14 16  1  0
  2  3  1  0
  2  9  1  0
  2 15  1  0
  3  4  1  0
  4  5  1  0
  4  1  1  0
  1 17  1  0
 18 19  1  0
 18 26  1  0
 18 17  1  0
 19 20  1  0
 20 22  1  0
 20 21  1  0
 21 28  1  0
 22 23  1  0
 22 24  1  0
 23 29  1  0
 24 25  1  0
 24 26  1  0
 25 30  1  0
 26 27  1  0
 27 31  1  0
  5  6  1  0
  5  7  1  0
  6 11  1  0
  7  8  1  0
  7  9  1  0
  8 12  1  0
  9 10  1  0
 10 13  1  0
M  END
> <minimizedAffinity>
-5.14508

> <CNNscore>
0.8726108074

> <CNNaffinity>
2.8746349812

> <CNN_VS>
2.5084376335

> <CNNaffinity_variance>
0.5838017464

$$$$



 31 32  0  0  0  0  0  0  0  0999 V2000
   17.6950   -0.4148    4.4747 O   0  0  0  0  0  0  0  0  0  0  0  0
   14.8873   -1.4004    6.5888 C   0  0  0  0  0  0  0  0  0  0  0  0
   15.9238   -1.4762    5.6058 O   0  0  0  0  0  0  0  0  0  0  0  0
   16.5980   -0.2371    5.3865 C   0  0  0  0  0  0  0  0  0  0  0  0
   15.6192    0.8768    4.9301 C   0  0  0  0  0  0  0  0  0  0  0  0
   16.2753    2.1461    4.7943 O   0  0  0  0  0  0  0  0  0  0  0  0
   14.4383    0.9732    5.9095 C   0  0  0  0  0  0  0  0  0  0  0  0
   13.4477    1.8998    5.4206 O   0  0  0  0  0  0  0  0  0  0  0  0
   13.8046   -0.4028    6.1435 C   0  0  0  0  0  0  0  0  0  0  0  0
   12.7412   -0.3406    7.1000 O   0  0  0  0  0  0  0  0  0  0  0  0
   16.6152    2.4141    5.6663 H   0  0  0  0  0  0  0  0  0  0  0  0
   13.2052    1.6468    4.5123 H   0  0  0  0  0  0  0  0  0  0  0  0
   13.0342    0.2087    7.8502 H   0  0  0  0  0  0  0  0  0  0  0  0
   13.3715   -2.8809    7.8518 O   0  0  0  0  0  0  0  0  0  0  0  0
   14.3209   -2.8140    6.7944 C   0  0  0  0  0  0  0  0  0  0  0  0
   12.6485   -2.2602    7.6257 H   0  0  0  0  0  0  0  0  0  0  0  0
   17.9870   -1.7825    4.1866 C   0  0  0  0  0  0  0  0  0  0  0  0
   17.6858   -2.1225    2.7201 C   0  0  0  0  0  0  0  0  0  0  0  0
   17.1855   -0.9694    2.0335 O   0  0  0  0  0  0  0  0  0  0  0  0
   16.8354   -1.2503    0.6788 C   0  0  0  0  0  0  0  0  0  0  0  0
   16.2159   -0.1026    0.1239 O   0  0  0  0  0  0  0  0  0  0  0  0
   18.0842   -1.6656   -0.1273 C   0  0  0  0  0  0  0  0  0  0  0  0
   17.7745   -1.9531   -1.4977 O   0  0  0  0  0  0  0  0  0  0  0  0
   18.7397   -2.8785    0.5463 C   0  0  0  0  0  0  0  0  0  0  0  0
   19.9798   -3.2332   -0.0784 O   0  0  0  0  0  0  0  0  0  0  0  0
   18.9770   -2.6135    2.0422 C   0  0  0  0  0  0  0  0  0  0  0  0
   19.4685   -3.7808    2.7037 O   0  0  0  0  0  0  0  0  0  0  0  0
   16.9264    0.5148   -0.1138 H   0  0  0  0  0  0  0  0  0  0  0  0
   17.1517   -2.6963   -1.5251 H   0  0  0  0  0  0  0  0  0  0  0  0
   20.5063   -2.4207   -0.1967 H   0  0  0  0  0  0  0  0  0  0  0  0
   19.4310   -4.5323    2.0833 H   0  0  0  0  0  0  0  0  0  0  0  0
 14 15  1  0
 14 16  1  0
  2  3  1  0
  2  9  1  0
  2 15  1  0
  3  4  1  0
  4  5  1  0
  4  1  1  0
  1 17  1  0
 18 19  1  0
 18 26  1  0
 18 17  1  0
 19 20  1  0
 20 22  1  0
 20 21  1  0
 21 28  1  0
 22 23  1  0
 22 24  1  0
 23 29  1  0
 24 25  1  0
 24 26  1  0
 25 30  1  0
 26 27  1  0
 27 31  1  0
  5  6  1  0
  5  7  1  0
  6 11  1  0
  7  8  1  0
  7  9  1  0
  8 12  1  0
  9 10  1  0
 10 13  1  0
M  END
> <minimizedAffinity>
-5.39425

> <CNNscore>
0.8570509553

> <CNNaffinity>
2.8186242580

> <CNN_VS>
2.4157047272

> <CNNaffinity_variance>
0.6911931038

$$$$



 31 32  0  0  0  0  0  0  0  0999 V2000
   15.4582    0.0164    3.1816 O   0  0  0  0  0  0  0  0  0  0  0  0
   18.0106   -2.5566    2.7462 C   0  0  0  0  0  0  0  0  0  0  0  0
   17.2838   -1.4641    3.3162 O   0  0  0  0  0  0  0  0  0  0  0  0
   16.2094   -1.0009    2.4982 C   0  0  0  0  0  0  0  0  0  0  0  0
   16.7074   -0.5374    1.1038 C   0  0  0  0  0  0  0  0  0  0  0  0
   15.6223   -0.1548    0.2457 O   0  0  0  0  0  0  0  0  0  0  0  0
   17.5555   -1.6426    0.4539 C   0  0  0  0  0  0  0  0  0  0  0  0
   18.1464   -1.1728   -0.7745 O   0  0  0  0  0  0  0  0  0  0  0  0
   18.6473   -2.1324    1.4118 C   0  0  0  0  0  0  0  0  0  0  0  0
   19.4082   -3.2042    0.8443 O   0  0  0  0  0  0  0  0  0  0  0  0
   15.0571   -0.9330    0.0951 H   0  0  0  0  0  0  0  0  0  0  0  0
   18.6246   -0.3442   -0.5938 H   0  0  0  0  0  0  0  0  0  0  0  0
   18.7906   -3.8326    0.4273 H   0  0  0  0  0  0  0  0  0  0  0  0
   19.4962   -4.3523    3.5540 O   0  0  0  0  0  0  0  0  0  0  0  0
   19.0624   -3.0145    3.7685 C   0  0  0  0  0  0  0  0  0  0  0  0
   19.8700   -4.3895    2.6495 H   0  0  0  0  0  0  0  0  0  0  0  0
   16.0515    0.4424    4.4085 C   0  0  0  0  0  0  0  0  0  0  0  0
   14.9884    0.9146    5.4104 C   0  0  0  0  0  0  0  0  0  0  0  0
   15.4857    0.8138    6.7497 O   0  0  0  0  0  0  0  0  0  0  0  0
   14.5112    1.1874    7.7231 C   0  0  0  0  0  0  0  0  0  0  0  0
   15.0331    0.9178    9.0130 O   0  0  0  0  0  0  0  0  0  0  0  0
   14.1320    2.6750    7.5651 C   0  0  0  0  0  0  0  0  0  0  0  0
   13.1559    3.0916    8.5295 O   0  0  0  0  0  0  0  0  0  0  0  0
   13.6220    2.9174    6.1383 C   0  0  0  0  0  0  0  0  0  0  0  0
   13.3770    4.3065    5.8854 O   0  0  0  0  0  0  0  0  0  0  0  0
   14.6186    2.3757    5.1001 C   0  0  0  0  0  0  0  0  0  0  0  0
   14.0950    2.4815    3.7748 O   0  0  0  0  0  0  0  0  0  0  0  0
   15.6348    1.6473    9.2325 H   0  0  0  0  0  0  0  0  0  0  0  0
   12.3481    2.5711    8.3973 H   0  0  0  0  0  0  0  0  0  0  0  0
   14.1467    4.8155    6.2014 H   0  0  0  0  0  0  0  0  0  0  0  0
   13.1631    2.7640    3.8272 H   0  0  0  0  0  0  0  0  0  0  0  0
 14 15  1  0
 14 16  1  0
  2  3  1  0
  2  9  1  0
  2 15  1  0
  3  4  1  0
  4  5  1  0
  4  1  1  0
  1 17  1  0
 18 19  1  0
 18 26  1  0
 18 17  1  0
 19 20  1  0
 20 22  1  0
 20 21  1  0
 21 28  1  0
 22 23  1  0
 22 24  1  0
 23 29  1  0
 24 25  1  0
 24 26  1  0
 25 30  1  0
 26 27  1  0
 27 31  1  0
  5  6  1  0
  5  7  1  0
  6 11  1  0
  7  8  1  0
  7  9  1  0
  8 12  1  0
  9 10  1  0
 10 13  1  0
M  END
> <minimizedAffinity>
-6.30872

> <CNNscore>
0.8486967683

> <CNNaffinity>
2.9152069092

> <CNN_VS>
2.4741265774

> <CNNaffinity_variance>
0.5223252773

$$$$



 31 32  0  0  0  0  0  0  0  0999 V2000
   17.9883   -2.7679    5.9212 O   0  0  0  0  0  0  0  0  0  0  0  0
   14.6591   -3.2917    7.3236 C   0  0  0  0  0  0  0  0  0  0  0  0
   15.9134   -2.6697    7.0294 O   0  0  0  0  0  0  0  0  0  0  0  0
   16.8001   -3.4957    6.2747 C   0  0  0  0  0  0  0  0  0  0  0  0
   17.1134   -4.8251    7.0108 C   0  0  0  0  0  0  0  0  0  0  0  0
   17.9323   -5.6978    6.2184 O   0  0  0  0  0  0  0  0  0  0  0  0
   15.8051   -5.5221    7.4176 C   0  0  0  0  0  0  0  0  0  0  0  0
   16.0789   -6.6816    8.2299 O   0  0  0  0  0  0  0  0  0  0  0  0
   14.8792   -4.5582    8.1681 C   0  0  0  0  0  0  0  0  0  0  0  0
   13.6307   -5.1744    8.5015 O   0  0  0  0  0  0  0  0  0  0  0  0
   17.4419   -5.9350    5.4115 H   0  0  0  0  0  0  0  0  0  0  0  0
   16.6476   -6.4143    8.9735 H   0  0  0  0  0  0  0  0  0  0  0  0
   13.3135   -5.6674    7.7226 H   0  0  0  0  0  0  0  0  0  0  0  0
   13.3902   -1.1797    7.2064 O   0  0  0  0  0  0  0  0  0  0  0  0
   13.7744   -2.2629    8.0448 C   0  0  0  0  0  0  0  0  0  0  0  0
   12.9055   -1.5644    6.4472 H   0  0  0  0  0  0  0  0  0  0  0  0
   17.7428   -1.4096    5.5559 C   0  0  0  0  0  0  0  0  0  0  0  0
   16.7918   -1.3160    4.3543 C   0  0  0  0  0  0  0  0  0  0  0  0
   16.1733   -0.0250    4.3074 O   0  0  0  0  0  0  0  0  0  0  0  0
   15.2345    0.0917    3.2389 C   0  0  0  0  0  0  0  0  0  0  0  0
   14.5671    1.3365    3.3564 O   0  0  0  0  0  0  0  0  0  0  0  0
   15.9466   -0.0429    1.8764 C   0  0  0  0  0  0  0  0  0  0  0  0
   15.0362    0.0729    0.7744 O   0  0  0  0  0  0  0  0  0  0  0  0
   16.6911   -1.3838    1.8259 C   0  0  0  0  0  0  0  0  0  0  0  0
   17.4820   -1.5132    0.6379 O   0  0  0  0  0  0  0  0  0  0  0  0
   17.5897   -1.5592    3.0612 C   0  0  0  0  0  0  0  0  0  0  0  0
   18.1877   -2.8567    3.0870 O   0  0  0  0  0  0  0  0  0  0  0  0
   15.1649    2.0125    2.9986 H   0  0  0  0  0  0  0  0  0  0  0  0
   14.3858   -0.6444    0.8334 H   0  0  0  0  0  0  0  0  0  0  0  0
   17.9902   -0.6895    0.5173 H   0  0  0  0  0  0  0  0  0  0  0  0
   17.7974   -3.3962    2.3746 H   0  0  0  0  0  0  0  0  0  0  0  0
 14 15  1  0
 14 16  1  0
  2  3  1  0
  2  9  1  0
  2 15  1  0
  3  4  1  0
  4  5  1  0
  4  1  1  0
  1 17  1  0
 18 19  1  0
 18 26  1  0
 18 17  1  0
 19 20  1  0
 20 22  1  0
 20 21  1  0
 21 28  1  0
 22 23  1  0
 22 24  1  0
 23 29  1  0
 24 25  1  0
 24 26  1  0
 25 30  1  0
 26 27  1  0
 27 31  1  0
  5  6  1  0
  5  7  1  0
  6 11  1  0
  7  8  1  0
  7  9  1  0
  8 12  1  0
  9 10  1  0
 10 13  1  0
M  END
> <minimizedAffinity>
-4.77346

> <CNNscore>
0.7810643911

> <CNNaffinity>
2.8792531490

> <CNN_VS>
2.2488820553

> <CNNaffinity_variance>
0.5093609095

$$$$



 31 32  0  0  0  0  0  0  0  0999 V2000
   16.5688   -1.5486    2.8166 O   0  0  0  0  0  0  0  0  0  0  0  0
   16.2840   -1.6429    6.4545 C   0  0  0  0  0  0  0  0  0  0  0  0
   16.4622   -2.0865    5.1062 O   0  0  0  0  0  0  0  0  0  0  0  0
   16.2635   -1.0604    4.1337 C   0  0  0  0  0  0  0  0  0  0  0  0
   14.8409   -0.4484    4.2267 C   0  0  0  0  0  0  0  0  0  0  0  0
   14.6650    0.6436    3.3120 O   0  0  0  0  0  0  0  0  0  0  0  0
   14.5520   -0.0052    5.6700 C   0  0  0  0  0  0  0  0  0  0  0  0
   13.1835    0.4289    5.8035 O   0  0  0  0  0  0  0  0  0  0  0  0
   14.8465   -1.1365    6.6616 C   0  0  0  0  0  0  0  0  0  0  0  0
   14.6403   -0.7209    8.0160 O   0  0  0  0  0  0  0  0  0  0  0  0
   15.2889    1.3517    3.5510 H   0  0  0  0  0  0  0  0  0  0  0  0
   12.5992   -0.2736    5.4674 H   0  0  0  0  0  0  0  0  0  0  0  0
   15.0394    0.1610    8.1311 H   0  0  0  0  0  0  0  0  0  0  0  0
   16.9121   -2.3929    8.7188 O   0  0  0  0  0  0  0  0  0  0  0  0
   16.6248   -2.8130    7.3904 C   0  0  0  0  0  0  0  0  0  0  0  0
   16.1186   -1.9219    9.0470 H   0  0  0  0  0  0  0  0  0  0  0  0
   17.8292   -2.2137    2.7280 C   0  0  0  0  0  0  0  0  0  0  0  0
   18.5770   -1.8276    1.4440 C   0  0  0  0  0  0  0  0  0  0  0  0
   18.0100   -2.5019    0.3148 O   0  0  0  0  0  0  0  0  0  0  0  0
   18.7092   -2.2197   -0.8969 C   0  0  0  0  0  0  0  0  0  0  0  0
   18.1788   -3.0366   -1.9265 O   0  0  0  0  0  0  0  0  0  0  0  0
   18.5980   -0.7212   -1.2487 C   0  0  0  0  0  0  0  0  0  0  0  0
   19.2858   -0.3968   -2.4646 O   0  0  0  0  0  0  0  0  0  0  0  0
   19.1396    0.1134   -0.0804 C   0  0  0  0  0  0  0  0  0  0  0  0
   18.9436    1.5177   -0.2888 O   0  0  0  0  0  0  0  0  0  0  0  0
   18.4806   -0.3048    1.2444 C   0  0  0  0  0  0  0  0  0  0  0  0
   19.0693    0.3766    2.3538 O   0  0  0  0  0  0  0  0  0  0  0  0
   17.3542   -2.6185   -2.2224 H   0  0  0  0  0  0  0  0  0  0  0  0
   20.2278   -0.5985   -2.3509 H   0  0  0  0  0  0  0  0  0  0  0  0
   18.0230    1.6584   -0.5790 H   0  0  0  0  0  0  0  0  0  0  0  0
   19.8488    0.8715    2.0403 H   0  0  0  0  0  0  0  0  0  0  0  0
 14 15  1  0
 14 16  1  0
  2  3  1  0
  2  9  1  0
  2 15  1  0
  3  4  1  0
  4  5  1  0
  4  1  1  0
  1 17  1  0
 18 19  1  0
 18 26  1  0
 18 17  1  0
 19 20  1  0
 20 22  1  0
 20 21  1  0
 21 28  1  0
 22 23  1  0
 22 24  1  0
 23 29  1  0
 24 25  1  0
 24 26  1  0
 25 30  1  0
 26 27  1  0
 27 31  1  0
  5  6  1  0
  5  7  1  0
  6 11  1  0
  7  8  1  0
  7  9  1  0
  8 12  1  0
  9 10  1  0
 10 13  1  0
M  END
> <minimizedAffinity>
-5.02680

> <CNNscore>
0.7699350119

> <CNNaffinity>
2.7796967030

> <CNN_VS>
2.1401858330

> <CNNaffinity_variance>
0.4871352613

$$$$



 31 32  0  0  0  0  0  0  0  0999 V2000
   16.9115   -1.2500    1.4192 O   0  0  0  0  0  0  0  0  0  0  0  0
   18.7464    0.9335   -0.8588 C   0  0  0  0  0  0  0  0  0  0  0  0
   17.7098    0.4513    0.0011 O   0  0  0  0  0  0  0  0  0  0  0  0
   17.9301   -0.8768    0.4761 C   0  0  0  0  0  0  0  0  0  0  0  0
   18.0606   -1.8904   -0.6912 C   0  0  0  0  0  0  0  0  0  0  0  0
   18.3709   -3.2114   -0.2236 O   0  0  0  0  0  0  0  0  0  0  0  0
   19.1175   -1.4030   -1.6955 C   0  0  0  0  0  0  0  0  0  0  0  0
   19.1453   -2.2564   -2.8574 O   0  0  0  0  0  0  0  0  0  0  0  0
   18.8519    0.0480   -2.1121 C   0  0  0  0  0  0  0  0  0  0  0  0
   19.8618    0.5374   -3.0010 O   0  0  0  0  0  0  0  0  0  0  0  0
   19.2361   -3.1871    0.2221 H   0  0  0  0  0  0  0  0  0  0  0  0
   18.2427   -2.3251   -3.2157 H   0  0  0  0  0  0  0  0  0  0  0  0
   20.7325    0.2681   -2.6551 H   0  0  0  0  0  0  0  0  0  0  0  0
   17.5837    2.5230   -2.3440 O   0  0  0  0  0  0  0  0  0  0  0  0
   18.4328    2.3963   -1.2097 C   0  0  0  0  0  0  0  0  0  0  0  0
   16.7554    2.0438   -2.1353 H   0  0  0  0  0  0  0  0  0  0  0  0
   17.1984   -0.8557    2.7612 C   0  0  0  0  0  0  0  0  0  0  0  0
   15.9830   -1.0597    3.6767 C   0  0  0  0  0  0  0  0  0  0  0  0
   16.3862   -1.6547    4.9156 O   0  0  0  0  0  0  0  0  0  0  0  0
   15.2812   -1.9181    5.7795 C   0  0  0  0  0  0  0  0  0  0  0  0
   15.7499   -2.6361    6.9080 O   0  0  0  0  0  0  0  0  0  0  0  0
   14.5919   -0.6005    6.1926 C   0  0  0  0  0  0  0  0  0  0  0  0
   13.4764   -0.8224    7.0661 O   0  0  0  0  0  0  0  0  0  0  0  0
   14.1514    0.1558    4.9322 C   0  0  0  0  0  0  0  0  0  0  0  0
   13.6218    1.4509    5.2419 O   0  0  0  0  0  0  0  0  0  0  0  0
   15.3205    0.3032    3.9442 C   0  0  0  0  0  0  0  0  0  0  0  0
   14.8896    0.8921    2.7157 O   0  0  0  0  0  0  0  0  0  0  0  0
   16.1544   -1.9882    7.5071 H   0  0  0  0  0  0  0  0  0  0  0  0
   12.8181   -1.3592    6.5975 H   0  0  0  0  0  0  0  0  0  0  0  0
   14.2316    1.8901    5.8637 H   0  0  0  0  0  0  0  0  0  0  0  0
   13.9169    0.9612    2.7250 H   0  0  0  0  0  0  0  0  0  0  0  0
 14 15  1  0
 14 16  1  0
  2  3  1  0
  2  9  1  0
  2 15  1  0
  3  4  1  0
  4  5  1  0
  4  1  1  0
  1 17  1  0
 18 19  1  0
 18 26  1  0
 18 17  1  0
 19 20  1  0
 20 22  1  0
 20 21  1  0
 21 28  1  0
 22 23  1  0
 22 24  1  0
 23 29  1  0
 24 25  1  0
 24 26  1  0
 25 30  1  0
 26 27  1  0
 27 31  1  0
  5  6  1  0
  5  7  1  0
  6 11  1  0
  7  8  1  0
  7  9  1  0
  8 12  1  0
  9 10  1  0
 10 13  1  0
M  END
> <minimizedAffinity>
-5.21637

> <CNNscore>
0.7676358223

> <CNNaffinity>
2.9978053570

> <CNN_VS>
2.3012228012

> <CNNaffinity_variance>
0.4155542552

$$$$



 31 32  0  0  0  0  0  0  0  0999 V2000
   15.4215   -0.0410    2.8449 O   0  0  0  0  0  0  0  0  0  0  0  0
   18.0624   -2.5608    2.8242 C   0  0  0  0  0  0  0  0  0  0  0  0
   17.2546   -1.4609    3.2533 O   0  0  0  0  0  0  0  0  0  0  0  0
   16.2642   -1.0711    2.3018 C   0  0  0  0  0  0  0  0  0  0  0  0
   16.8986   -0.6672    0.9448 C   0  0  0  0  0  0  0  0  0  0  0  0
   15.9038   -0.3602   -0.0432 O   0  0  0  0  0  0  0  0  0  0  0  0
   17.8360   -1.7805    0.4500 C   0  0  0  0  0  0  0  0  0  0  0  0
   18.5449   -1.3590   -0.7327 O   0  0  0  0  0  0  0  0  0  0  0  0
   18.8292   -2.1891    1.5437 C   0  0  0  0  0  0  0  0  0  0  0  0
   19.6703   -3.2673    1.1197 O   0  0  0  0  0  0  0  0  0  0  0  0
   15.3754   -1.1607   -0.2101 H   0  0  0  0  0  0  0  0  0  0  0  0
   18.9823   -0.5091   -0.5479 H   0  0  0  0  0  0  0  0  0  0  0  0
   19.1152   -3.9335    0.6745 H   0  0  0  0  0  0  0  0  0  0  0  0
   20.2770   -2.2992    3.8785 O   0  0  0  0  0  0  0  0  0  0  0  0
   19.0083   -2.9353    3.9759 C   0  0  0  0  0  0  0  0  0  0  0  0
   20.1130   -1.3336    3.8806 H   0  0  0  0  0  0  0  0  0  0  0  0
   14.7844   -0.4059    4.0695 C   0  0  0  0  0  0  0  0  0  0  0  0
   14.8517    0.7331    5.0968 C   0  0  0  0  0  0  0  0  0  0  0  0
   14.4480    1.9696    4.4973 O   0  0  0  0  0  0  0  0  0  0  0  0
   14.5491    3.0715    5.3986 C   0  0  0  0  0  0  0  0  0  0  0  0
   14.2758    4.2659    4.6861 O   0  0  0  0  0  0  0  0  0  0  0  0
   13.5829    2.8877    6.5879 C   0  0  0  0  0  0  0  0  0  0  0  0
   13.6516    3.9783    7.5165 O   0  0  0  0  0  0  0  0  0  0  0  0
   13.8924    1.5584    7.2892 C   0  0  0  0  0  0  0  0  0  0  0  0
   12.9444    1.2643    8.3229 O   0  0  0  0  0  0  0  0  0  0  0  0
   13.9247    0.3996    6.2789 C   0  0  0  0  0  0  0  0  0  0  0  0
   14.3371   -0.8189    6.9009 O   0  0  0  0  0  0  0  0  0  0  0  0
   13.3108    4.3311    4.6036 H   0  0  0  0  0  0  0  0  0  0  0  0
   14.5508    4.0213    7.8778 H   0  0  0  0  0  0  0  0  0  0  0  0
   12.0481    1.4093    7.9663 H   0  0  0  0  0  0  0  0  0  0  0  0
   14.6280   -0.6238    7.8110 H   0  0  0  0  0  0  0  0  0  0  0  0
 14 15  1  0
 14 16  1  0
  2  3  1  0
  2  9  1  0
  2 15  1  0
  3  4  1  0
  4  5  1  0
  4  1  1  0
  1 17  1  0
 18 19  1  0
 18 26  1  0
 18 17  1  0
 19 20  1  0
 20 22  1  0
 20 21  1  0
 21 28  1  0
 22 23  1  0
 22 24  1  0
 23 29  1  0
 24 25  1  0
 24 26  1  0
 25 30  1  0
 26 27  1  0
 27 31  1  0
  5  6  1  0
  5  7  1  0
  6 11  1  0
  7  8  1  0
  7  9  1  0
  8 12  1  0
  9 10  1  0
 10 13  1  0
M  END
> <minimizedAffinity>
-5.93683

> <CNNscore>
0.7601624727

> <CNNaffinity>
2.7342319489

> <CNN_VS>
2.0784604549

> <CNNaffinity_variance>
0.6177541018

$$$$



 31 32  0  0  0  0  0  0  0  0999 V2000
   13.9915   -0.0734    4.8933 O   0  0  0  0  0  0  0  0  0  0  0  0
   13.4037    1.2243    8.2541 C   0  0  0  0  0  0  0  0  0  0  0  0
   13.2350    0.4564    7.0589 O   0  0  0  0  0  0  0  0  0  0  0  0
   14.1433    0.8111    6.0163 C   0  0  0  0  0  0  0  0  0  0  0  0
   14.0080    2.3050    5.6198 C   0  0  0  0  0  0  0  0  0  0  0  0
   14.9789    2.6896    4.6352 O   0  0  0  0  0  0  0  0  0  0  0  0
   14.1150    3.1929    6.8700 C   0  0  0  0  0  0  0  0  0  0  0  0
   13.8444    4.5700    6.5393 O   0  0  0  0  0  0  0  0  0  0  0  0
   13.1570    2.7151    7.9670 C   0  0  0  0  0  0  0  0  0  0  0  0
   13.2874    3.4946    9.1608 O   0  0  0  0  0  0  0  0  0  0  0  0
   15.8676    2.5825    5.0180 H   0  0  0  0  0  0  0  0  0  0  0  0
   12.9891    4.6175    6.0767 H   0  0  0  0  0  0  0  0  0  0  0  0
   14.2367    3.6180    9.3452 H   0  0  0  0  0  0  0  0  0  0  0  0
   11.2798    0.0722    8.7500 O   0  0  0  0  0  0  0  0  0  0  0  0
   12.4389    0.6729    9.3153 C   0  0  0  0  0  0  0  0  0  0  0  0
   11.5889   -0.6533    8.1692 H   0  0  0  0  0  0  0  0  0  0  0  0
   14.9172   -1.1605    4.8888 C   0  0  0  0  0  0  0  0  0  0  0  0
   16.0408   -0.9349    3.8672 C   0  0  0  0  0  0  0  0  0  0  0  0
   16.8587   -2.1057    3.7589 O   0  0  0  0  0  0  0  0  0  0  0  0
   17.9540   -1.9250    2.8620 C   0  0  0  0  0  0  0  0  0  0  0  0
   18.7874   -3.0695    2.9288 O   0  0  0  0  0  0  0  0  0  0  0  0
   17.4427   -1.6795    1.4267 C   0  0  0  0  0  0  0  0  0  0  0  0
   18.5152   -1.4966    0.4925 O   0  0  0  0  0  0  0  0  0  0  0  0
   16.5086   -0.4620    1.4248 C   0  0  0  0  0  0  0  0  0  0  0  0
   15.8950   -0.2594    0.1456 O   0  0  0  0  0  0  0  0  0  0  0  0
   15.4179   -0.6056    2.4991 C   0  0  0  0  0  0  0  0  0  0  0  0
   14.6222    0.5776    2.5911 O   0  0  0  0  0  0  0  0  0  0  0  0
   18.3667   -3.7572    2.3880 H   0  0  0  0  0  0  0  0  0  0  0  0
   19.0255   -0.7148    0.7559 H   0  0  0  0  0  0  0  0  0  0  0  0
   15.5498   -1.1163   -0.1674 H   0  0  0  0  0  0  0  0  0  0  0  0
   15.0233    1.2697    2.0334 H   0  0  0  0  0  0  0  0  0  0  0  0
 14 15  1  0
 14 16  1  0
  2  3  1  0
  2  9  1  0
  2 15  1  0
  3  4  1  0
  4  5  1  0
  4  1  1  0
  1 17  1  0
 18 19  1  0
 18 26  1  0
 18 17  1  0
 19 20  1  0
 20 22  1  0
 20 21  1  0
 21 28  1  0
 22 23  1  0
 22 24  1  0
 23 29  1  0
 24 25  1  0
 24 26  1  0
 25 30  1  0
 26 27  1  0
 27 31  1  0
  5  6  1  0
  5  7  1  0
  6 11  1  0
  7  8  1  0
  7  9  1  0
  8 12  1  0
  9 10  1  0
 10 13  1  0
M  END
> <minimizedAffinity>
-7.71879

> <CNNscore>
0.7213497162

> <CNNaffinity>
2.7839806080

> <CNN_VS>
2.0082235336

> <CNNaffinity_variance>
0.8069073558

$$$$



 31 32  0  0  0  0  0  0  0  0999 V2000
   17.1109   -1.3386    2.8106 O   0  0  0  0  0  0  0  0  0  0  0  0
   17.1041    1.0691    5.5542 C   0  0  0  0  0  0  0  0  0  0  0  0
   17.4769   -0.0528    4.7486 O   0  0  0  0  0  0  0  0  0  0  0  0
   16.6122   -0.2708    3.6338 C   0  0  0  0  0  0  0  0  0  0  0  0
   15.1444   -0.5001    4.0812 C   0  0  0  0  0  0  0  0  0  0  0  0
   14.2557   -0.6310    2.9618 O   0  0  0  0  0  0  0  0  0  0  0  0
   14.6928    0.6400    5.0081 C   0  0  0  0  0  0  0  0  0  0  0  0
   13.3846    0.3663    5.5493 O   0  0  0  0  0  0  0  0  0  0  0  0
   15.6994    0.8566    6.1436 C   0  0  0  0  0  0  0  0  0  0  0  0
   15.3245    1.9550    6.9818 O   0  0  0  0  0  0  0  0  0  0  0  0
   14.2665    0.2023    2.4584 H   0  0  0  0  0  0  0  0  0  0  0  0
   13.3960   -0.5153    5.9621 H   0  0  0  0  0  0  0  0  0  0  0  0
   15.0469    2.6957    6.4120 H   0  0  0  0  0  0  0  0  0  0  0  0
   18.7877    0.0195    7.0200 O   0  0  0  0  0  0  0  0  0  0  0  0
   18.1690    1.2453    6.6480 C   0  0  0  0  0  0  0  0  0  0  0  0
   19.1969   -0.3506    6.2108 H   0  0  0  0  0  0  0  0  0  0  0  0
   18.5362   -1.4043    2.7558 C   0  0  0  0  0  0  0  0  0  0  0  0
   19.0344   -1.5594    1.3119 C   0  0  0  0  0  0  0  0  0  0  0  0
   18.4419   -2.7114    0.7010 O   0  0  0  0  0  0  0  0  0  0  0  0
   18.9192   -2.9316   -0.6258 C   0  0  0  0  0  0  0  0  0  0  0  0
   18.3991   -4.1635   -1.0955 O   0  0  0  0  0  0  0  0  0  0  0  0
   18.5181   -1.7595   -1.5462 C   0  0  0  0  0  0  0  0  0  0  0  0
   18.9767   -1.9450   -2.8922 O   0  0  0  0  0  0  0  0  0  0  0  0
   19.0645   -0.4496   -0.9630 C   0  0  0  0  0  0  0  0  0  0  0  0
   18.6148    0.6941   -1.7003 O   0  0  0  0  0  0  0  0  0  0  0  0
   18.6638   -0.2971    0.5137 C   0  0  0  0  0  0  0  0  0  0  0  0
   19.2737    0.8544    1.1000 O   0  0  0  0  0  0  0  0  0  0  0  0
   17.4853   -3.9955   -1.3767 H   0  0  0  0  0  0  0  0  0  0  0  0
   19.9457   -1.9897   -2.8858 H   0  0  0  0  0  0  0  0  0  0  0  0
   17.6535    0.6083   -1.8417 H   0  0  0  0  0  0  0  0  0  0  0  0
   19.9131    1.2281    0.4656 H   0  0  0  0  0  0  0  0  0  0  0  0
 14 15  1  0
 14 16  1  0
  2  3  1  0
  2  9  1  0
  2 15  1  0
  3  4  1  0
  4  5  1  0
  4  1  1  0
  1 17  1  0
 18 19  1  0
 18 26  1  0
 18 17  1  0
 19 20  1  0
 20 22  1  0
 20 21  1  0
 21 28  1  0
 22 23  1  0
 22 24  1  0
 23 29  1  0
 24 25  1  0
 24 26  1  0
 25 30  1  0
 26 27  1  0
 27 31  1  0
  5  6  1  0
  5  7  1  0
  6 11  1  0
  7  8  1  0
  7  9  1  0
  8 12  1  0
  9 10  1  0
 10 13  1  0
M  END
> <minimizedAffinity>
-4.67061

> <CNNscore>
0.6948366761

> <CNNaffinity>
3.3274869919

> <CNN_VS>
2.3120601177

> <CNNaffinity_variance>
0.1210727915

$$$$



 31 32  0  0  0  0  0  0  0  0999 V2000
   16.8534   -1.4286    2.1971 O   0  0  0  0  0  0  0  0  0  0  0  0
   16.5322   -1.8165    5.8125 C   0  0  0  0  0  0  0  0  0  0  0  0
   16.7538   -2.1445    4.4378 O   0  0  0  0  0  0  0  0  0  0  0  0
   16.5026   -1.0617    3.5420 C   0  0  0  0  0  0  0  0  0  0  0  0
   15.0433   -0.5474    3.6572 C   0  0  0  0  0  0  0  0  0  0  0  0
   14.8101    0.5980    2.8243 O   0  0  0  0  0  0  0  0  0  0  0  0
   14.7102   -0.2339    5.1247 C   0  0  0  0  0  0  0  0  0  0  0  0
   13.3157    0.1035    5.2679 O   0  0  0  0  0  0  0  0  0  0  0  0
   15.0633   -1.4170    6.0332 C   0  0  0  0  0  0  0  0  0  0  0  0
   14.8156   -1.1190    7.4114 O   0  0  0  0  0  0  0  0  0  0  0  0
   15.3855    1.3230    3.1262 H   0  0  0  0  0  0  0  0  0  0  0  0
   12.7807   -0.6060    4.8703 H   0  0  0  0  0  0  0  0  0  0  0  0
   15.1571   -0.2255    7.5991 H   0  0  0  0  0  0  0  0  0  0  0  0
   17.6769   -3.9983    5.9301 O   0  0  0  0  0  0  0  0  0  0  0  0
   16.9346   -3.0311    6.6633 C   0  0  0  0  0  0  0  0  0  0  0  0
   18.4773   -3.5468    5.5913 H   0  0  0  0  0  0  0  0  0  0  0  0
   18.0511   -0.8099    1.7265 C   0  0  0  0  0  0  0  0  0  0  0  0
   17.9883   -0.5452    0.2156 C   0  0  0  0  0  0  0  0  0  0  0  0
   18.5640    0.7297   -0.0917 O   0  0  0  0  0  0  0  0  0  0  0  0
   18.4767    1.0475   -1.4802 C   0  0  0  0  0  0  0  0  0  0  0  0
   18.9307    2.3766   -1.6700 O   0  0  0  0  0  0  0  0  0  0  0  0
   19.2974    0.0436   -2.3172 C   0  0  0  0  0  0  0  0  0  0  0  0
   19.2384    0.3314   -3.7208 O   0  0  0  0  0  0  0  0  0  0  0  0
   18.7960   -1.3788   -2.0340 C   0  0  0  0  0  0  0  0  0  0  0  0
   19.6039   -2.3704   -2.6802 O   0  0  0  0  0  0  0  0  0  0  0  0
   18.7568   -1.6558   -0.5220 C   0  0  0  0  0  0  0  0  0  0  0  0
   18.1718   -2.9293   -0.2435 O   0  0  0  0  0  0  0  0  0  0  0  0
   19.9010    2.3471   -1.6657 H   0  0  0  0  0  0  0  0  0  0  0  0
   18.3155    0.2651   -4.0121 H   0  0  0  0  0  0  0  0  0  0  0  0
   20.5411   -2.1605   -2.5094 H   0  0  0  0  0  0  0  0  0  0  0  0
   17.8107   -3.2966   -1.0715 H   0  0  0  0  0  0  0  0  0  0  0  0
 14 15  1  0
 14 16  1  0
  2  3  1  0
  2  9  1  0
  2 15  1  0
  3  4  1  0
  4  5  1  0
  4  1  1  0
  1 17  1  0
 18 19  1  0
 18 26  1  0
 18 17  1  0
 19 20  1  0
 20 22  1  0
 20 21  1  0
 21 28  1  0
 22 23  1  0
 22 24  1  0
 23 29  1  0
 24 25  1  0
 24 26  1  0
 25 30  1  0
 26 27  1  0
 27 31  1  0
  5  6  1  0
  5  7  1  0
  6 11  1  0
  7  8  1  0
  7  9  1  0
  8 12  1  0
  9 10  1  0
 10 13  1  0
M  END
> <minimizedAffinity>
-4.84456

> <CNNscore>
0.6820430160

> <CNNaffinity>
3.1008319855

> <CNN_VS>
2.1149008274

> <CNNaffinity_variance>
0.2196558565

$$$$



 31 32  0  0  0  0  0  0  0  0999 V2000
   14.4416   -0.6632    3.4253 O   0  0  0  0  0  0  0  0  0  0  0  0
   14.0281    2.1445    5.7210 C   0  0  0  0  0  0  0  0  0  0  0  0
   14.4268    1.3940    4.5702 O   0  0  0  0  0  0  0  0  0  0  0  0
   14.1169    0.0031    4.6570 C   0  0  0  0  0  0  0  0  0  0  0  0
   14.7899   -0.6599    5.8877 C   0  0  0  0  0  0  0  0  0  0  0  0
   14.4105   -2.0367    6.0308 O   0  0  0  0  0  0  0  0  0  0  0  0
   14.4571    0.1346    7.1609 C   0  0  0  0  0  0  0  0  0  0  0  0
   15.1932   -0.3815    8.2882 O   0  0  0  0  0  0  0  0  0  0  0  0
   14.7571    1.6259    6.9722 C   0  0  0  0  0  0  0  0  0  0  0  0
   14.3959    2.3894    8.1282 O   0  0  0  0  0  0  0  0  0  0  0  0
   13.4497   -2.0793    6.1821 H   0  0  0  0  0  0  0  0  0  0  0  0
   16.1388   -0.4068    8.0582 H   0  0  0  0  0  0  0  0  0  0  0  0
   13.5194    2.0905    8.4325 H   0  0  0  0  0  0  0  0  0  0  0  0
   13.6089    4.5026    6.3111 O   0  0  0  0  0  0  0  0  0  0  0  0
   14.3279    3.6271    5.4506 C   0  0  0  0  0  0  0  0  0  0  0  0
   13.8617    4.2718    7.2288 H   0  0  0  0  0  0  0  0  0  0  0  0
   15.5085   -0.0479    2.7030 C   0  0  0  0  0  0  0  0  0  0  0  0
   16.3726   -1.0926    1.9825 C   0  0  0  0  0  0  0  0  0  0  0  0
   16.9677   -0.5246    0.8101 O   0  0  0  0  0  0  0  0  0  0  0  0
   17.7356   -1.4752    0.0729 C   0  0  0  0  0  0  0  0  0  0  0  0
   18.1606   -0.8728   -1.1376 O   0  0  0  0  0  0  0  0  0  0  0  0
   18.9337   -1.9690    0.9110 C   0  0  0  0  0  0  0  0  0  0  0  0
   19.7343   -2.9248    0.2025 O   0  0  0  0  0  0  0  0  0  0  0  0
   18.4176   -2.5642    2.2279 C   0  0  0  0  0  0  0  0  0  0  0  0
   19.4885   -2.9219    3.1104 O   0  0  0  0  0  0  0  0  0  0  0  0
   17.4726   -1.5826    2.9405 C   0  0  0  0  0  0  0  0  0  0  0  0
   16.8878   -2.1764    4.1011 O   0  0  0  0  0  0  0  0  0  0  0  0
   18.9261   -0.3159   -0.9226 H   0  0  0  0  0  0  0  0  0  0  0  0
   19.1853   -3.6981   -0.0017 H   0  0  0  0  0  0  0  0  0  0  0  0
   20.1170   -2.1768    3.1466 H   0  0  0  0  0  0  0  0  0  0  0  0
   17.1222   -3.1227    4.1214 H   0  0  0  0  0  0  0  0  0  0  0  0
 14 15  1  0
 14 16  1  0
  2  3  1  0
  2  9  1  0
  2 15  1  0
  3  4  1  0
  4  5  1  0
  4  1  1  0
  1 17  1  0
 18 19  1  0
 18 26  1  0
 18 17  1  0
 19 20  1  0
 20 22  1  0
 20 21  1  0
 21 28  1  0
 22 23  1  0
 22 24  1  0
 23 29  1  0
 24 25  1  0
 24 26  1  0
 25 30  1  0
 26 27  1  0
 27 31  1  0
  5  6  1  0
  5  7  1  0
  6 11  1  0
  7  8  1  0
  7  9  1  0
  8 12  1  0
  9 10  1  0
 10 13  1  0
M  END
> <minimizedAffinity>
-5.30165

> <CNNscore>
0.6754484177

> <CNNaffinity>
2.6601915359

> <CNN_VS>
1.7968221903

> <CNNaffinity_variance>
0.6752108932

$$$$



 31 32  0  0  0  0  0  0  0  0999 V2000
   15.5606   -0.0119    2.1626 O   0  0  0  0  0  0  0  0  0  0  0  0
   18.2095   -1.5651    0.1890 C   0  0  0  0  0  0  0  0  0  0  0  0
   16.9223   -1.0564    0.5509 O   0  0  0  0  0  0  0  0  0  0  0  0
   16.8416   -0.6111    1.9049 C   0  0  0  0  0  0  0  0  0  0  0  0
   17.1787   -1.7484    2.9049 C   0  0  0  0  0  0  0  0  0  0  0  0
   17.1865   -1.2846    4.2632 O   0  0  0  0  0  0  0  0  0  0  0  0
   18.5267   -2.3894    2.5378 C   0  0  0  0  0  0  0  0  0  0  0  0
   18.7833   -3.5415    3.3660 O   0  0  0  0  0  0  0  0  0  0  0  0
   18.5622   -2.7848    1.0572 C   0  0  0  0  0  0  0  0  0  0  0  0
   19.8330   -3.3283    0.6842 O   0  0  0  0  0  0  0  0  0  0  0  0
   17.8860   -0.6141    4.3577 H   0  0  0  0  0  0  0  0  0  0  0  0
   18.0181   -4.1409    3.3123 H   0  0  0  0  0  0  0  0  0  0  0  0
   20.5319   -2.7678    1.0687 H   0  0  0  0  0  0  0  0  0  0  0  0
   18.0419   -3.3048   -1.5516 O   0  0  0  0  0  0  0  0  0  0  0  0
   18.1820   -1.9102   -1.3081 C   0  0  0  0  0  0  0  0  0  0  0  0
   17.2048   -3.5857   -1.1278 H   0  0  0  0  0  0  0  0  0  0  0  0
   14.9189   -0.5101    3.3368 C   0  0  0  0  0  0  0  0  0  0  0  0
   14.9325    0.5297    4.4663 C   0  0  0  0  0  0  0  0  0  0  0  0
   14.5010    1.8043    3.9759 O   0  0  0  0  0  0  0  0  0  0  0  0
   14.5519    2.8199    4.9773 C   0  0  0  0  0  0  0  0  0  0  0  0
   14.2540    4.0669    4.3731 O   0  0  0  0  0  0  0  0  0  0  0  0
   13.5712    2.4976    6.1245 C   0  0  0  0  0  0  0  0  0  0  0  0
   13.5895    3.4984    7.1513 O   0  0  0  0  0  0  0  0  0  0  0  0
   13.9097    1.1184    6.7057 C   0  0  0  0  0  0  0  0  0  0  0  0
   12.9533    0.7014    7.6882 O   0  0  0  0  0  0  0  0  0  0  0  0
   13.9958    0.0603    5.5933 C   0  0  0  0  0  0  0  0  0  0  0  0
   14.4351   -1.1982    6.1080 O   0  0  0  0  0  0  0  0  0  0  0  0
   13.2889    4.1111    4.2774 H   0  0  0  0  0  0  0  0  0  0  0  0
   14.4805    3.5340    7.5333 H   0  0  0  0  0  0  0  0  0  0  0  0
   12.0593    0.8525    7.3285 H   0  0  0  0  0  0  0  0  0  0  0  0
   14.7038   -1.0803    7.0380 H   0  0  0  0  0  0  0  0  0  0  0  0
 14 15  1  0
 14 16  1  0
  2  3  1  0
  2  9  1  0
  2 15  1  0
  3  4  1  0
  4  5  1  0
  4  1  1  0
  1 17  1  0
 18 19  1  0
 18 26  1  0
 18 17  1  0
 19 20  1  0
 20 22  1  0
 20 21  1  0
 21 28  1  0
 22 23  1  0
 22 24  1  0
 23 29  1  0
 24 25  1  0
 24 26  1  0
 25 30  1  0
 26 27  1  0
 27 31  1  0
  5  6  1  0
  5  7  1  0
  6 11  1  0
  7  8  1  0
  7  9  1  0
  8 12  1  0
  9 10  1  0
 10 13  1  0
M  END
> <minimizedAffinity>
-6.17714

> <CNNscore>
0.6407729387

> <CNNaffinity>
2.6366202831

> <CNN_VS>
1.6894749403

> <CNNaffinity_variance>
0.7933031917

$$$$



 31 32  0  0  0  0  0  0  0  0999 V2000
   16.0828    0.6538    4.0830 O   0  0  0  0  0  0  0  0  0  0  0  0
   18.4319   -1.8148    2.7745 C   0  0  0  0  0  0  0  0  0  0  0  0
   17.2606   -1.0021    2.8941 O   0  0  0  0  0  0  0  0  0  0  0  0
   17.2266   -0.2169    4.0858 C   0  0  0  0  0  0  0  0  0  0  0  0
   17.2984   -1.1010    5.3588 C   0  0  0  0  0  0  0  0  0  0  0  0
   17.3546   -0.3135    6.5574 O   0  0  0  0  0  0  0  0  0  0  0  0
   18.5031   -2.0518    5.2716 C   0  0  0  0  0  0  0  0  0  0  0  0
   18.4986   -2.9793    6.3756 O   0  0  0  0  0  0  0  0  0  0  0  0
   18.5068   -2.8138    3.9416 C   0  0  0  0  0  0  0  0  0  0  0  0
   19.6555   -3.6593    3.8186 O   0  0  0  0  0  0  0  0  0  0  0  0
   18.1701    0.2180    6.5410 H   0  0  0  0  0  0  0  0  0  0  0  0
   17.6316   -3.4208    6.4086 H   0  0  0  0  0  0  0  0  0  0  0  0
   20.4391   -3.1576    4.1093 H   0  0  0  0  0  0  0  0  0  0  0  0
   17.4384   -1.9423    0.5204 O   0  0  0  0  0  0  0  0  0  0  0  0
   18.3844   -2.5217    1.4110 C   0  0  0  0  0  0  0  0  0  0  0  0
   17.6948   -1.0044    0.4025 H   0  0  0  0  0  0  0  0  0  0  0  0
   14.8561   -0.0077    4.3935 C   0  0  0  0  0  0  0  0  0  0  0  0
   14.0315    0.7912    5.4127 C   0  0  0  0  0  0  0  0  0  0  0  0
   14.3931    0.4194    6.7478 O   0  0  0  0  0  0  0  0  0  0  0  0
   13.6114    1.0943    7.7327 C   0  0  0  0  0  0  0  0  0  0  0  0
   13.9300    0.5613    9.0068 O   0  0  0  0  0  0  0  0  0  0  0  0
   13.8655    2.6154    7.6754 C   0  0  0  0  0  0  0  0  0  0  0  0
   13.0999    3.3308    8.6545 O   0  0  0  0  0  0  0  0  0  0  0  0
   13.5525    3.1269    6.2629 C   0  0  0  0  0  0  0  0  0  0  0  0
   13.8938    4.5098    6.1057 O   0  0  0  0  0  0  0  0  0  0  0  0
   14.2897    2.2934    5.2017 C   0  0  0  0  0  0  0  0  0  0  0  0
   13.9055    2.6795    3.8807 O   0  0  0  0  0  0  0  0  0  0  0  0
   14.7639    0.9731    9.2849 H   0  0  0  0  0  0  0  0  0  0  0  0
   12.1573    3.1876    8.4755 H   0  0  0  0  0  0  0  0  0  0  0  0
   14.7896    4.6468    6.4666 H   0  0  0  0  0  0  0  0  0  0  0  0
   13.1632    3.3088    3.9412 H   0  0  0  0  0  0  0  0  0  0  0  0
 14 15  1  0
 14 16  1  0
  2  3  1  0
  2  9  1  0
  2 15  1  0
  3  4  1  0
  4  5  1  0
  4  1  1  0
  1 17  1  0
 18 19  1  0
 18 26  1  0
 18 17  1  0
 19 20  1  0
 20 22  1  0
 20 21  1  0
 21 28  1  0
 22 23  1  0
 22 24  1  0
 23 29  1  0
 24 25  1  0
 24 26  1  0
 25 30  1  0
 26 27  1  0
 27 31  1  0
  5  6  1  0
  5  7  1  0
  6 11  1  0
  7  8  1  0
  7  9  1  0
  8 12  1  0
  9 10  1  0
 10 13  1  0
M  END
> <minimizedAffinity>
-5.29335

> <CNNscore>
0.6379365921

> <CNNaffinity>
2.9011967182

> <CNN_VS>
1.8507795334

> <CNNaffinity_variance>
0.4211715460

$$$$



 31 32  0  0  0  0  0  0  0  0999 V2000
   16.7313   -1.7830    3.9161 O   0  0  0  0  0  0  0  0  0  0  0  0
   14.9998   -1.1484    7.0663 C   0  0  0  0  0  0  0  0  0  0  0  0
   15.5271   -1.8523    5.9381 O   0  0  0  0  0  0  0  0  0  0  0  0
   16.1261   -1.0020    4.9602 C   0  0  0  0  0  0  0  0  0  0  0  0
   15.1186    0.0436    4.4134 C   0  0  0  0  0  0  0  0  0  0  0  0
   15.7377    0.9579    3.4964 O   0  0  0  0  0  0  0  0  0  0  0  0
   14.4601    0.7993    5.5789 C   0  0  0  0  0  0  0  0  0  0  0  0
   13.4167    1.6689    5.0951 O   0  0  0  0  0  0  0  0  0  0  0  0
   13.8954   -0.1765    6.6174 C   0  0  0  0  0  0  0  0  0  0  0  0
   13.3319    0.5114    7.7394 O   0  0  0  0  0  0  0  0  0  0  0  0
   16.4254    1.4562    3.9725 H   0  0  0  0  0  0  0  0  0  0  0  0
   12.8032    1.1461    4.5490 H   0  0  0  0  0  0  0  0  0  0  0  0
   13.9441    1.2227    8.0031 H   0  0  0  0  0  0  0  0  0  0  0  0
   14.4027   -1.6745    9.4010 O   0  0  0  0  0  0  0  0  0  0  0  0
   14.4820   -2.1850    8.0756 C   0  0  0  0  0  0  0  0  0  0  0  0
   13.7997   -0.9032    9.3741 H   0  0  0  0  0  0  0  0  0  0  0  0
   18.1409   -1.9520    4.0684 C   0  0  0  0  0  0  0  0  0  0  0  0
   18.8260   -2.1873    2.7148 C   0  0  0  0  0  0  0  0  0  0  0  0
   19.2003   -3.5630    2.5778 O   0  0  0  0  0  0  0  0  0  0  0  0
   19.8941   -3.8208    1.3576 C   0  0  0  0  0  0  0  0  0  0  0  0
   20.3536   -5.1615    1.3726 O   0  0  0  0  0  0  0  0  0  0  0  0
   18.9769   -3.5498    0.1464 C   0  0  0  0  0  0  0  0  0  0  0  0
   19.6373   -3.8014   -1.1014 O   0  0  0  0  0  0  0  0  0  0  0  0
   18.4712   -2.1024    0.2099 C   0  0  0  0  0  0  0  0  0  0  0  0
   17.5088   -1.8255   -0.8153 O   0  0  0  0  0  0  0  0  0  0  0  0
   17.8567   -1.7957    1.5856 C   0  0  0  0  0  0  0  0  0  0  0  0
   17.4995   -0.4167    1.6979 O   0  0  0  0  0  0  0  0  0  0  0  0
   19.5956   -5.7225    1.1421 H   0  0  0  0  0  0  0  0  0  0  0  0
   20.3983   -3.2044   -1.1750 H   0  0  0  0  0  0  0  0  0  0  0  0
   16.8564   -2.5506   -0.8264 H   0  0  0  0  0  0  0  0  0  0  0  0
   17.8373    0.0595    0.9169 H   0  0  0  0  0  0  0  0  0  0  0  0
 14 15  1  0
 14 16  1  0
  2  3  1  0
  2  9  1  0
  2 15  1  0
  3  4  1  0
  4  5  1  0
  4  1  1  0
  1 17  1  0
 18 19  1  0
 18 26  1  0
 18 17  1  0
 19 20  1  0
 20 22  1  0
 20 21  1  0
 21 28  1  0
 22 23  1  0
 22 24  1  0
 23 29  1  0
 24 25  1  0
 24 26  1  0
 25 30  1  0
 26 27  1  0
 27 31  1  0
  5  6  1  0
  5  7  1  0
  6 11  1  0
  7  8  1  0
  7  9  1  0
  8 12  1  0
  9 10  1  0
 10 13  1  0
M  END
> <minimizedAffinity>
-4.53923

> <CNNscore>
0.6372897625

> <CNNaffinity>
2.6595609188

> <CNN_VS>
1.6949110031

> <CNNaffinity_variance>
0.5469531417

$$$$



 31 32  0  0  0  0  0  0  0  0999 V2000
   16.2503   -0.5491    1.2397 O   0  0  0  0  0  0  0  0  0  0  0  0
   18.4556    1.2020   -1.0830 C   0  0  0  0  0  0  0  0  0  0  0  0
   17.2773    0.8478   -0.3531 O   0  0  0  0  0  0  0  0  0  0  0  0
   17.4313   -0.3207    0.4526 C   0  0  0  0  0  0  0  0  0  0  0  0
   17.8284   -1.5565   -0.3973 C   0  0  0  0  0  0  0  0  0  0  0  0
   18.0717   -2.7129    0.4172 O   0  0  0  0  0  0  0  0  0  0  0  0
   19.0562   -1.2279   -1.2618 C   0  0  0  0  0  0  0  0  0  0  0  0
   19.3474   -2.3144   -2.1639 O   0  0  0  0  0  0  0  0  0  0  0  0
   18.8424    0.0697   -2.0494 C   0  0  0  0  0  0  0  0  0  0  0  0
   20.0004    0.4225   -2.8137 O   0  0  0  0  0  0  0  0  0  0  0  0
   18.8250   -2.5252    1.0048 H   0  0  0  0  0  0  0  0  0  0  0  0
   18.5406   -2.5285   -2.6650 H   0  0  0  0  0  0  0  0  0  0  0  0
   20.7879    0.3030   -2.2517 H   0  0  0  0  0  0  0  0  0  0  0  0
   19.3717    3.2116   -2.1814 O   0  0  0  0  0  0  0  0  0  0  0  0
   18.1810    2.5221   -1.8200 C   0  0  0  0  0  0  0  0  0  0  0  0
   19.8875    2.6086   -2.7555 H   0  0  0  0  0  0  0  0  0  0  0  0
   16.5097   -1.1736    2.4972 C   0  0  0  0  0  0  0  0  0  0  0  0
   16.0556   -0.2882    3.6663 C   0  0  0  0  0  0  0  0  0  0  0  0
   15.1587    0.7279    3.2032 O   0  0  0  0  0  0  0  0  0  0  0  0
   14.7532    1.6141    4.2457 C   0  0  0  0  0  0  0  0  0  0  0  0
   13.9935    2.6662    3.6757 O   0  0  0  0  0  0  0  0  0  0  0  0
   13.9489    0.8526    5.3204 C   0  0  0  0  0  0  0  0  0  0  0  0
   13.5187    1.7106    6.3858 O   0  0  0  0  0  0  0  0  0  0  0  0
   14.8005   -0.3022    5.8646 C   0  0  0  0  0  0  0  0  0  0  0  0
   14.0631   -1.1302    6.7726 O   0  0  0  0  0  0  0  0  0  0  0  0
   15.3524   -1.1648    4.7176 C   0  0  0  0  0  0  0  0  0  0  0  0
   16.2489   -2.1645    5.2060 O   0  0  0  0  0  0  0  0  0  0  0  0
   13.0991    2.3199    3.5261 H   0  0  0  0  0  0  0  0  0  0  0  0
   14.3026    2.0823    6.8199 H   0  0  0  0  0  0  0  0  0  0  0  0
   13.1993   -1.3343    6.3680 H   0  0  0  0  0  0  0  0  0  0  0  0
   16.4117   -2.0037    6.1540 H   0  0  0  0  0  0  0  0  0  0  0  0
 14 15  1  0
 14 16  1  0
  2  3  1  0
  2  9  1  0
  2 15  1  0
  3  4  1  0
  4  5  1  0
  4  1  1  0
  1 17  1  0
 18 19  1  0
 18 26  1  0
 18 17  1  0
 19 20  1  0
 20 22  1  0
 20 21  1  0
 21 28  1  0
 22 23  1  0
 22 24  1  0
 23 29  1  0
 24 25  1  0
 24 26  1  0
 25 30  1  0
 26 27  1  0
 27 31  1  0
  5  6  1  0
  5  7  1  0
  6 11  1  0
  7  8  1  0
  7  9  1  0
  8 12  1  0
  9 10  1  0
 10 13  1  0
M  END
> <minimizedAffinity>
-5.45826

> <CNNscore>
0.6338394284

> <CNNaffinity>
2.8393878937

> <CNN_VS>
1.7997159958

> <CNNaffinity_variance>
0.5057480335

$$$$



 31 32  0  0  0  0  0  0  0  0999 V2000
   14.6807   -1.4506    6.9442 O   0  0  0  0  0  0  0  0  0  0  0  0
   13.8458    1.9484    7.9802 C   0  0  0  0  0  0  0  0  0  0  0  0
   14.6221    0.7849    7.6804 O   0  0  0  0  0  0  0  0  0  0  0  0
   13.8360   -0.3575    7.3413 C   0  0  0  0  0  0  0  0  0  0  0  0
   12.8607   -0.7438    8.4845 C   0  0  0  0  0  0  0  0  0  0  0  0
   12.0056   -1.8358    8.1152 O   0  0  0  0  0  0  0  0  0  0  0  0
   12.0331    0.4810    8.9064 C   0  0  0  0  0  0  0  0  0  0  0  0
   11.2293    0.1763   10.0640 O   0  0  0  0  0  0  0  0  0  0  0  0
   12.9388    1.6838    9.1939 C   0  0  0  0  0  0  0  0  0  0  0  0
   12.1797    2.8503    9.5297 O   0  0  0  0  0  0  0  0  0  0  0  0
   11.4554   -1.5574    7.3619 H   0  0  0  0  0  0  0  0  0  0  0  0
   11.8075   -0.1848   10.7590 H   0  0  0  0  0  0  0  0  0  0  0  0
   11.4355    2.9233    8.9044 H   0  0  0  0  0  0  0  0  0  0  0  0
   14.5377    3.8186    9.4322 O   0  0  0  0  0  0  0  0  0  0  0  0
   14.8132    3.1168    8.2258 C   0  0  0  0  0  0  0  0  0  0  0  0
   14.6052    3.1690   10.1620 H   0  0  0  0  0  0  0  0  0  0  0  0
   15.8923   -1.0398    6.3101 C   0  0  0  0  0  0  0  0  0  0  0  0
   15.8906   -1.3944    4.8164 C   0  0  0  0  0  0  0  0  0  0  0  0
   15.4087   -0.2899    4.0422 O   0  0  0  0  0  0  0  0  0  0  0  0
   15.3336   -0.5914    2.6494 C   0  0  0  0  0  0  0  0  0  0  0  0
   14.7123    0.4947    1.9838 O   0  0  0  0  0  0  0  0  0  0  0  0
   16.7402   -0.8744    2.0808 C   0  0  0  0  0  0  0  0  0  0  0  0
   16.7081   -1.1785    0.6797 O   0  0  0  0  0  0  0  0  0  0  0  0
   17.3823   -2.0230    2.8702 C   0  0  0  0  0  0  0  0  0  0  0  0
   18.7422   -2.2482    2.4782 O   0  0  0  0  0  0  0  0  0  0  0  0
   17.3235   -1.7497    4.3822 C   0  0  0  0  0  0  0  0  0  0  0  0
   17.8026   -2.8689    5.1302 O   0  0  0  0  0  0  0  0  0  0  0  0
   15.3892    1.1812    1.8705 H   0  0  0  0  0  0  0  0  0  0  0  0
   16.1762   -1.9791    0.5487 H   0  0  0  0  0  0  0  0  0  0  0  0
   19.1987   -1.3867    2.4482 H   0  0  0  0  0  0  0  0  0  0  0  0
   17.9498   -3.6147    4.5194 H   0  0  0  0  0  0  0  0  0  0  0  0
 14 15  1  0
 14 16  1  0
  2  3  1  0
  2  9  1  0
  2 15  1  0
  3  4  1  0
  4  5  1  0
  4  1  1  0
  1 17  1  0
 18 19  1  0
 18 26  1  0
 18 17  1  0
 19 20  1  0
 20 22  1  0
 20 21  1  0
 21 28  1  0
 22 23  1  0
 22 24  1  0
 23 29  1  0
 24 25  1  0
 24 26  1  0
 25 30  1  0
 26 27  1  0
 27 31  1  0
  5  6  1  0
  5  7  1  0
  6 11  1  0
  7  8  1  0
  7  9  1  0
  8 12  1  0
  9 10  1  0
 10 13  1  0
M  END
> <minimizedAffinity>
-5.96899

> <CNNscore>
0.6327338219

> <CNNaffinity>
2.8314552307

> <CNN_VS>
1.7915574312

> <CNNaffinity_variance>
0.4738460481

$$$$
