@<TRIPOS>MOLECULE
UD1
 46 48 0 0 0
SMALL
GASTEIGER

@<TRIPOS>ATOM
      1 P          20.9471   71.3767   -2.0474 P.3     1  UNL1        0.2189
      2 O          20.8528   72.8490   -1.9376 O.2     1  UNL1       -0.5170
      3 O          22.4292   70.9680   -2.5257 O.3     1  UNL1       -0.4371
      4 O          19.8723   70.8495   -3.1243 O.3     1  UNL1       -0.3112
      5 C          18.6893   70.5131   -2.3979 C.3     1  UNL1        0.1811
      6 C          17.0423   70.4882   -5.5938 C.3     1  UNL1        0.2383
      7 C          16.9319   69.0277   -5.0888 C.3     1  UNL1        0.1895
      8 O          15.7408   68.4076   -5.5746 O.3     1  UNL1       -0.3779
      9 C          16.8687   69.2188   -3.5511 C.3     1  UNL1        0.1713
     10 C          17.4752   70.6167   -3.3223 C.3     1  UNL1        0.1764
     11 O          17.8794   71.1249   -4.6051 O.3     1  UNL1       -0.3308
     12 O          15.5144   69.1735   -3.0965 O.3     1  UNL1       -0.3794
     13 H          15.7327   67.5052   -5.2264 H       1  UNL1        0.2106
     14 H          15.1735   68.2974   -3.3213 H       1  UNL1        0.2105
     15 N          17.6744   70.5353   -6.9128 N.ar    1  UNL1       -0.2551
     16 C          16.9126   70.4789   -8.0191 C.ar    1  UNL1        0.3323
     17 N          17.4666   70.5242   -9.2452 N.ar    1  UNL1       -0.2743
     18 C          18.8045   70.6181   -9.3833 C.ar    1  UNL1        0.2626
     19 C          19.6187   70.6723   -8.2270 C.ar    1  UNL1        0.0795
     20 C          19.0365   70.6304   -7.0094 C.ar    1  UNL1        0.0869
     21 O          15.7044   70.3941   -7.9109 O.2     1  UNL1       -0.2464
     22 O          19.3067   70.6543  -10.4913 O.2     1  UNL1       -0.2670
     23 H          16.9015   70.4872  -10.0323 H       1  UNL1        0.1734
     24 O          20.6418   70.7110   -0.6148 O.3     1  UNL1       -0.2703
     25 P          21.7604   71.2625    0.4020 P.3     1  UNL1        0.2208
     26 O          22.7064   72.1328   -0.3304 O.2     1  UNL1       -0.5170
     27 O          22.5610   70.0221    1.0445 O.3     1  UNL1       -0.4371
     28 O          21.0520   72.1072    1.5746 O.3     1  UNL1       -0.2865
     29 C          21.7346   73.3598    1.6535 C.3     1  UNL1        0.2611
     30 C          22.6447   73.3624    2.8830 C.3     1  UNL1        0.1582
     31 C          21.7941   73.1297    4.1368 C.3     1  UNL1        0.1625
     32 C          20.6632   74.1634    4.1605 C.3     1  UNL1        0.1686
     33 C          19.9005   74.0983    2.8356 C.3     1  UNL1        0.1760
     34 O          22.6077   73.2784    5.3018 O.3     1  UNL1       -0.3801
     35 O          19.7735   73.8738    5.2404 O.3     1  UNL1       -0.3794
     36 O          20.7800   74.4141    1.7570 O.3     1  UNL1       -0.3263
     37 H          22.0340   73.1237    6.0649 H       1  UNL1        0.2105
     38 H          19.0781   74.5464    5.2181 H       1  UNL1        0.2105
     39 C          24.9362   72.5987    2.5664 C.2     1  UNL1        0.2231
     40 C          25.9586   71.4985    2.4385 C.3     1  UNL1        0.0946
     41 N          23.6384   72.2939    2.7592 N.am    1  UNL1       -0.2994
     42 O          25.2817   73.7588    2.4951 O.2     1  UNL1       -0.2751
     43 H          23.3616   71.3657    2.8161 H       1  UNL1        0.1496
     44 C          18.7483   75.1047    2.8618 C.3     1  UNL1        0.1693
     45 O          19.0055   76.1485    1.9203 O.3     1  UNL1       -0.3794
     46 H          18.2578   76.7595    1.9688 H       1  UNL1        0.2105
@<TRIPOS>BOND
     1    29    30    1
     2    29    28    1
     3    29    36    1
     4    30    31    1
     5    30    41    1
     6    31    32    1
     7    31    34    1
     8    32    33    1
     9    32    35    1
    10    33    44    1
    11    33    36    1
    12    44    45    1
    13    39    40    1
    14    39    41   am
    15    39    42    2
    16    41    43    1
    17    28    25    1
    18    34    37    1
    19    35    38    1
    20    45    46    1
    21    15    16   ar
    22    15    20   ar
    23    15     6    1
    24    16    17   ar
    25    16    21    2
    26    17    18   ar
    27    17    23    1
    28    18    19   ar
    29    18    22    2
    30    19    20   ar
    31     6     7    1
    32     6    11    1
    33     7     8    1
    34     7     9    1
    35     8    13    1
    36     9    10    1
    37     9    12    1
    38    10    11    1
    39    10     5    1
    40    12    14    1
    41     5     4    1
    42     4     1    1
    43     1     2    2
    44     1     3    1
    45     1    24    1
    46    24    25    1
    47    25    26    2
    48    25    27    1
@<TRIPOS>MOLECULE
UD1
 46 48 0 0 0
SMALL
GASTEIGER

@<TRIPOS>ATOM
      1 P          20.8216   71.1839   -2.7845 P.3     1  UNL1        0.2189
      2 O          21.5494   70.6438   -1.6152 O.2     1  UNL1       -0.5170
      3 O          20.2682   72.6560   -2.4392 O.3     1  UNL1       -0.4371
      4 O          19.5844   70.2163   -3.1396 O.3     1  UNL1       -0.3112
      5 C          18.4340   70.7603   -2.4909 C.3     1  UNL1        0.1811
      6 C          16.9168   70.5274   -5.7422 C.3     1  UNL1        0.2383
      7 C          16.8624   69.0832   -5.1841 C.3     1  UNL1        0.1895
      8 O          15.7249   68.3827   -5.6887 O.3     1  UNL1       -0.3779
      9 C          16.7292   69.3285   -3.6585 C.3     1  UNL1        0.1713
     10 C          17.2533   70.7643   -3.4631 C.3     1  UNL1        0.1764
     11 O          17.6805   71.2445   -4.7492 O.3     1  UNL1       -0.3308
     12 O          15.3623   69.2283   -3.2531 O.3     1  UNL1       -0.3794
     13 H          15.7498   67.4950   -5.3055 H       1  UNL1        0.2106
     14 H          15.0763   68.3276   -3.4554 H       1  UNL1        0.2105
     15 N          17.5967   70.5583   -7.0377 N.ar    1  UNL1       -0.2551
     16 C          16.8746   70.5070   -8.1705 C.ar    1  UNL1        0.3323
     17 N          17.4731   70.5377   -9.3760 N.ar    1  UNL1       -0.2743
     18 C          18.8163   70.6116   -9.4660 C.ar    1  UNL1        0.2626
     19 C          19.5890   70.6601   -8.2813 C.ar    1  UNL1        0.0795
     20 C          18.9627   70.6332   -7.0854 C.ar    1  UNL1        0.0869
     21 O          15.6622   70.4403   -8.1057 O.2     1  UNL1       -0.2464
     22 O          19.3588   70.6346  -10.5553 O.2     1  UNL1       -0.2670
     23 H          16.9364   70.5047  -10.1828 H       1  UNL1        0.1734
     24 O          21.8175   71.2660   -4.0456 O.3     1  UNL1       -0.2703
     25 P          23.1317   72.0510   -3.5496 P.3     1  UNL1        0.2208
     26 O          23.7628   72.7328   -4.7010 O.2     1  UNL1       -0.5170
     27 O          24.1739   71.0036   -2.9100 O.3     1  UNL1       -0.4371
     28 O          22.7202   73.1417   -2.4400 O.3     1  UNL1       -0.2865
     29 C          23.8546   73.9895   -2.2513 C.3     1  UNL1        0.2611
     30 C          23.9506   74.3839   -0.7764 C.3     1  UNL1        0.1582
     31 C          22.6619   75.1050   -0.3656 C.3     1  UNL1        0.1625
     32 C          22.4187   76.2654   -1.3363 C.3     1  UNL1        0.1686
     33 C          22.4352   75.7284   -2.7690 C.3     1  UNL1        0.1760
     34 O          22.7986   75.6095    0.9642 O.3     1  UNL1       -0.3801
     35 O          21.1488   76.8600   -1.0619 O.3     1  UNL1       -0.3794
     36 O          23.7117   75.1583   -3.0555 O.3     1  UNL1       -0.3263
     37 H          21.9675   76.0539    1.1813 H       1  UNL1        0.2105
     38 H          21.0360   77.5835   -1.6947 H       1  UNL1        0.2105
     39 C          23.0548   72.6067    0.6284 C.2     1  UNL1        0.2231
     40 C          23.2323   71.3696    1.4712 C.3     1  UNL1        0.0946
     41 N          24.1224   73.1818    0.0420 N.am    1  UNL1       -0.2994
     42 O          21.9508   73.0850    0.4785 O.2     1  UNL1       -0.2751
     43 H          25.0061   72.7994    0.1620 H       1  UNL1        0.1496
     44 C          22.1609   76.8743   -3.7451 C.3     1  UNL1        0.1693
     45 O          22.5099   76.4664   -5.0695 O.3     1  UNL1       -0.3794
     46 H          22.3225   77.2153   -5.6514 H       1  UNL1        0.2105
@<TRIPOS>BOND
     1    29    30    1
     2    29    28    1
     3    29    36    1
     4    30    31    1
     5    30    41    1
     6    31    32    1
     7    31    34    1
     8    32    33    1
     9    32    35    1
    10    33    44    1
    11    33    36    1
    12    44    45    1
    13    39    40    1
    14    39    41   am
    15    39    42    2
    16    41    43    1
    17    28    25    1
    18    34    37    1
    19    35    38    1
    20    45    46    1
    21    15    16   ar
    22    15    20   ar
    23    15     6    1
    24    16    17   ar
    25    16    21    2
    26    17    18   ar
    27    17    23    1
    28    18    19   ar
    29    18    22    2
    30    19    20   ar
    31     6     7    1
    32     6    11    1
    33     7     8    1
    34     7     9    1
    35     8    13    1
    36     9    10    1
    37     9    12    1
    38    10    11    1
    39    10     5    1
    40    12    14    1
    41     5     4    1
    42     4     1    1
    43     1     2    2
    44     1     3    1
    45     1    24    1
    46    24    25    1
    47    25    26    2
    48    25    27    1
@<TRIPOS>MOLECULE
UD1
 46 48 0 0 0
SMALL
GASTEIGER

@<TRIPOS>ATOM
      1 P          21.4121   71.0138   -0.2042 P.3     1  UNL1        0.2189
      2 O          21.5305   70.1484    0.9898 O.2     1  UNL1       -0.5170
      3 O          22.8148   71.0329   -0.9945 O.3     1  UNL1       -0.4371
      4 O          21.0351   72.5107    0.2540 O.3     1  UNL1       -0.3112
      5 C          21.0066   72.5117    1.6821 C.3     1  UNL1        0.1811
      6 C          24.2276   73.8246    2.5926 C.3     1  UNL1        0.2383
      7 C          24.0260   74.2746    1.1239 C.3     1  UNL1        0.1895
      8 O          24.6864   75.5159    0.8744 O.3     1  UNL1       -0.3779
      9 C          22.4862   74.4409    1.0427 C.3     1  UNL1        0.1713
     10 C          21.9555   73.5882    2.2113 C.3     1  UNL1        0.1764
     11 O          23.0902   72.9719    2.8435 O.3     1  UNL1       -0.3308
     12 O          22.1216   75.8128    1.2099 O.3     1  UNL1       -0.3794
     13 H          24.5233   75.7388   -0.0525 H       1  UNL1        0.2106
     14 H          22.5319   76.3012    0.4838 H       1  UNL1        0.2105
     15 N          25.4764   73.0759    2.7396 N.ar    1  UNL1       -0.2551
     16 C          25.5487   71.8077    2.2995 C.ar    1  UNL1        0.3323
     17 N          26.6856   71.0966    2.4182 N.ar    1  UNL1       -0.2743
     18 C          27.7742   71.6467    2.9929 C.ar    1  UNL1        0.2626
     19 C          27.7101   72.9789    3.4660 C.ar    1  UNL1        0.0795
     20 C          26.5588   73.6712    3.3294 C.ar    1  UNL1        0.0869
     21 O          24.5753   71.2978    1.7789 O.2     1  UNL1       -0.2464
     22 O          28.8011   71.0031    3.1050 O.2     1  UNL1       -0.2670
     23 H          26.7214   70.1846    2.0908 H       1  UNL1        0.1734
     24 O          20.2589   70.4418   -1.1694 O.3     1  UNL1       -0.2703
     25 P          20.5837   70.9793   -2.6510 P.3     1  UNL1        0.2208
     26 O          21.8707   70.4123   -3.1102 O.2     1  UNL1       -0.5170
     27 O          20.6831   72.5861   -2.6298 O.3     1  UNL1       -0.4371
     28 O          19.4099   70.5289   -3.6559 O.3     1  UNL1       -0.2865
     29 C          18.8806   71.7223   -4.2363 C.3     1  UNL1        0.2611
     30 C          17.4090   71.5017   -4.5909 C.3     1  UNL1        0.1582
     31 C          17.3001   70.3287   -5.5716 C.3     1  UNL1        0.1625
     32 C          18.2246   70.5988   -6.7634 C.3     1  UNL1        0.1686
     33 C          19.6356   70.8846   -6.2449 C.3     1  UNL1        0.1760
     34 O          15.9508   70.2078   -6.0257 O.3     1  UNL1       -0.3801
     35 O          18.2506   69.4536   -7.6174 O.3     1  UNL1       -0.3794
     36 O          19.6180   72.0443   -5.4135 O.3     1  UNL1       -0.3263
     37 H          15.9282   69.4598   -6.6384 H       1  UNL1        0.2105
     38 H          18.8434   69.6659   -8.3522 H       1  UNL1        0.2105
     39 C          16.4085   69.9157   -3.0359 C.2     1  UNL1        0.2231
     40 C          15.6292   69.6018   -1.7843 C.3     1  UNL1        0.0946
     41 N          16.6525   71.1963   -3.3749 N.am    1  UNL1       -0.2994
     42 O          16.8154   69.0152   -3.7386 O.2     1  UNL1       -0.2751
     43 H          16.3267   71.9171   -2.8129 H       1  UNL1        0.1496
     44 C          20.5741   71.1238   -7.4294 C.3     1  UNL1        0.1693
     45 O          21.0945   69.8735   -7.8855 O.3     1  UNL1       -0.3794
     46 H          21.6795   70.0687   -8.6300 H       1  UNL1        0.2105
@<TRIPOS>BOND
     1    29    30    1
     2    29    28    1
     3    29    36    1
     4    30    31    1
     5    30    41    1
     6    31    32    1
     7    31    34    1
     8    32    33    1
     9    32    35    1
    10    33    44    1
    11    33    36    1
    12    44    45    1
    13    39    40    1
    14    39    41   am
    15    39    42    2
    16    41    43    1
    17    28    25    1
    18    34    37    1
    19    35    38    1
    20    45    46    1
    21    15    16   ar
    22    15    20   ar
    23    15     6    1
    24    16    17   ar
    25    16    21    2
    26    17    18   ar
    27    17    23    1
    28    18    19   ar
    29    18    22    2
    30    19    20   ar
    31     6     7    1
    32     6    11    1
    33     7     8    1
    34     7     9    1
    35     8    13    1
    36     9    10    1
    37     9    12    1
    38    10    11    1
    39    10     5    1
    40    12    14    1
    41     5     4    1
    42     4     1    1
    43     1     2    2
    44     1     3    1
    45     1    24    1
    46    24    25    1
    47    25    26    2
    48    25    27    1
@<TRIPOS>MOLECULE
UD1
 46 48 0 0 0
SMALL
GASTEIGER

@<TRIPOS>ATOM
      1 P          21.6259   71.5341   -3.0066 P.3     1  UNL1        0.2189
      2 O          22.9441   70.8984   -3.2235 O.2     1  UNL1       -0.5170
      3 O          21.4317   71.8455   -1.4389 O.3     1  UNL1       -0.4371
      4 O          20.4622   70.5380   -3.5031 O.3     1  UNL1       -0.3112
      5 C          19.3529   70.7264   -2.6231 C.3     1  UNL1        0.1811
      6 C          17.4229   70.5760   -5.6529 C.3     1  UNL1        0.2383
      7 C          17.3377   69.1444   -5.0669 C.3     1  UNL1        0.1895
      8 O          16.0987   68.5238   -5.4118 O.3     1  UNL1       -0.3779
      9 C          17.4168   69.4117   -3.5413 C.3     1  UNL1        0.1713
     10 C          18.0617   70.8074   -3.4388 C.3     1  UNL1        0.1764
     11 O          18.3552   71.2444   -4.7767 O.3     1  UNL1       -0.3308
     12 O          16.1088   69.4143   -2.9653 O.3     1  UNL1       -0.3794
     13 H          16.1092   67.6399   -5.0192 H       1  UNL1        0.2106
     14 H          15.7364   68.5349   -3.1140 H       1  UNL1        0.2105
     15 N          17.9334   70.5465   -7.0240 N.ar    1  UNL1       -0.2551
     16 C          17.0740   70.4470   -8.0530 C.ar    1  UNL1        0.3323
     17 N          17.5151   70.4216   -9.3246 N.ar    1  UNL1       -0.2743
     18 C          18.8360   70.4868   -9.5869 C.ar    1  UNL1        0.2626
     19 C          19.7522   70.5857   -8.5128 C.ar    1  UNL1        0.0795
     20 C          19.2822   70.6145   -7.2473 C.ar    1  UNL1        0.0869
     21 O          15.8796   70.3874   -7.8324 O.2     1  UNL1       -0.2464
     22 O          19.2363   70.4591  -10.7360 O.2     1  UNL1       -0.2670
     23 H          16.8807   70.3543  -10.0548 H       1  UNL1        0.1734
     24 O          21.5486   72.9075   -3.8412 O.3     1  UNL1       -0.2703
     25 P          22.7469   72.8675   -4.9144 P.3     1  UNL1        0.2208
     26 O          22.5345   71.7402   -5.8488 O.2     1  UNL1       -0.5170
     27 O          24.1488   72.6710   -4.1475 O.3     1  UNL1       -0.4371
     28 O          22.7770   74.2494   -5.7389 O.3     1  UNL1       -0.2865
     29 C          22.2955   73.9590   -7.0523 C.3     1  UNL1        0.2611
     30 C          22.7352   75.0693   -8.0084 C.3     1  UNL1        0.1582
     31 C          22.1783   76.4082   -7.5116 C.3     1  UNL1        0.1625
     32 C          20.6636   76.2701   -7.3253 C.3     1  UNL1        0.1686
     33 C          20.3803   75.0709   -6.4181 C.3     1  UNL1        0.1760
     34 O          22.4548   77.4281   -8.4732 O.3     1  UNL1       -0.3801
     35 O          20.1457   77.4586   -6.7245 O.3     1  UNL1       -0.3794
     36 O          20.8720   73.8782   -7.0281 O.3     1  UNL1       -0.3263
     37 H          22.0884   78.2509   -8.1210 H       1  UNL1        0.2105
     38 H          19.1919   77.3289   -6.6248 H       1  UNL1        0.2105
     39 C          24.8322   75.3482   -9.2163 C.2     1  UNL1        0.2231
     40 C          26.3377   75.4109   -9.2569 C.3     1  UNL1        0.0946
     41 N          24.1977   75.1307   -8.0482 N.am    1  UNL1       -0.2994
     42 O          24.1917   75.4929  -10.2356 O.2     1  UNL1       -0.2751
     43 H          24.7101   75.0147   -7.2324 H       1  UNL1        0.1496
     44 C          18.8713   74.9438   -6.1993 C.3     1  UNL1        0.1693
     45 O          18.3323   74.0023   -7.1295 O.3     1  UNL1       -0.3794
     46 H          17.3821   73.9524   -6.9582 H       1  UNL1        0.2105
@<TRIPOS>BOND
     1    29    30    1
     2    29    28    1
     3    29    36    1
     4    30    31    1
     5    30    41    1
     6    31    32    1
     7    31    34    1
     8    32    33    1
     9    32    35    1
    10    33    44    1
    11    33    36    1
    12    44    45    1
    13    39    40    1
    14    39    41   am
    15    39    42    2
    16    41    43    1
    17    28    25    1
    18    34    37    1
    19    35    38    1
    20    45    46    1
    21    15    16   ar
    22    15    20   ar
    23    15     6    1
    24    16    17   ar
    25    16    21    2
    26    17    18   ar
    27    17    23    1
    28    18    19   ar
    29    18    22    2
    30    19    20   ar
    31     6     7    1
    32     6    11    1
    33     7     8    1
    34     7     9    1
    35     8    13    1
    36     9    10    1
    37     9    12    1
    38    10    11    1
    39    10     5    1
    40    12    14    1
    41     5     4    1
    42     4     1    1
    43     1     2    2
    44     1     3    1
    45     1    24    1
    46    24    25    1
    47    25    26    2
    48    25    27    1
@<TRIPOS>MOLECULE
UD1
 46 48 0 0 0
SMALL
GASTEIGER

@<TRIPOS>ATOM
      1 P          20.5497   71.9754   -1.7494 P.3     1  UNL1        0.2189
      2 O          21.3406   72.9525   -2.5295 O.2     1  UNL1       -0.5170
      3 O          21.1215   70.4928   -2.0089 O.3     1  UNL1       -0.4371
      4 O          19.0084   72.0434   -2.2104 O.3     1  UNL1       -0.3112
      5 C          18.5998   70.7030   -2.4875 C.3     1  UNL1        0.1811
      6 C          16.9925   70.4915   -5.6967 C.3     1  UNL1        0.2383
      7 C          16.9390   69.0468   -5.1398 C.3     1  UNL1        0.1895
      8 O          15.7814   68.3586   -5.6146 O.3     1  UNL1       -0.3779
      9 C          16.8498   69.2903   -3.6108 C.3     1  UNL1        0.1713
     10 C          17.3932   70.7205   -3.4271 C.3     1  UNL1        0.1764
     11 O          17.7900   71.1991   -4.7236 O.3     1  UNL1       -0.3308
     12 O          15.4935   69.2028   -3.1685 O.3     1  UNL1       -0.3794
     13 H          15.8079   67.4699   -5.2338 H       1  UNL1        0.2106
     14 H          15.1933   68.3053   -3.3645 H       1  UNL1        0.2105
     15 N          17.6372   70.5184   -7.0101 N.ar    1  UNL1       -0.2551
     16 C          16.8843   70.4728   -8.1230 C.ar    1  UNL1        0.3323
     17 N          17.4501   70.4999   -9.3442 N.ar    1  UNL1       -0.2743
     18 C          18.7909   70.5645   -9.4706 C.ar    1  UNL1        0.2626
     19 C          19.5958   70.6070   -8.3073 C.ar    1  UNL1        0.0795
     20 C          19.0019   70.5838   -7.0948 C.ar    1  UNL1        0.0869
     21 O          15.6737   70.4145   -8.0253 O.2     1  UNL1       -0.2464
     22 O          19.3037   70.5843  -10.5743 O.2     1  UNL1       -0.2670
     23 H          16.8914   70.4711  -10.1362 H       1  UNL1        0.1734
     24 O          20.6571   72.3266   -0.1829 O.3     1  UNL1       -0.2703
     25 P          21.9966   71.6202    0.3611 P.3     1  UNL1        0.2208
     26 O          22.9354   71.4112   -0.7632 O.2     1  UNL1       -0.5170
     27 O          21.6251   70.1990    1.0202 O.3     1  UNL1       -0.4371
     28 O          22.6881   72.5599    1.4699 O.3     1  UNL1       -0.2865
     29 C          22.8673   71.7585    2.6390 C.3     1  UNL1        0.2611
     30 C          22.3966   72.5422    3.8655 C.3     1  UNL1        0.1582
     31 C          23.2040   73.8409    3.9707 C.3     1  UNL1        0.1625
     32 C          24.6963   73.4931    3.9523 C.3     1  UNL1        0.1686
     33 C          24.9940   72.6401    2.7174 C.3     1  UNL1        0.1760
     34 O          22.8796   74.5089    5.1913 O.3     1  UNL1       -0.3801
     35 O          25.4666   74.6954    3.9015 O.3     1  UNL1       -0.3794
     36 O          24.2468   71.4258    2.7786 O.3     1  UNL1       -0.3263
     37 H          23.4084   75.3183    5.2159 H       1  UNL1        0.2105
     38 H          26.3975   74.4309    3.8907 H       1  UNL1        0.2105
     39 C          20.5929   74.0334    3.1891 C.2     1  UNL1        0.2231
     40 C          19.1279   74.3593    3.0482 C.3     1  UNL1        0.0946
     41 N          20.9735   72.8591    3.7279 N.am    1  UNL1       -0.2994
     42 O          21.4294   74.8288    2.8179 O.2     1  UNL1       -0.2751
     43 H          20.3043   72.2225    4.0253 H       1  UNL1        0.1496
     44 C          26.4884   72.3143    2.6723 C.3     1  UNL1        0.1693
     45 O          26.6647   70.9183    2.4233 O.3     1  UNL1       -0.3794
     46 H          27.6175   70.7558    2.4030 H       1  UNL1        0.2105
@<TRIPOS>BOND
     1    29    30    1
     2    29    28    1
     3    29    36    1
     4    30    31    1
     5    30    41    1
     6    31    32    1
     7    31    34    1
     8    32    33    1
     9    32    35    1
    10    33    44    1
    11    33    36    1
    12    44    45    1
    13    39    40    1
    14    39    41   am
    15    39    42    2
    16    41    43    1
    17    28    25    1
    18    34    37    1
    19    35    38    1
    20    45    46    1
    21    15    16   ar
    22    15    20   ar
    23    15     6    1
    24    16    17   ar
    25    16    21    2
    26    17    18   ar
    27    17    23    1
    28    18    19   ar
    29    18    22    2
    30    19    20   ar
    31     6     7    1
    32     6    11    1
    33     7     8    1
    34     7     9    1
    35     8    13    1
    36     9    10    1
    37     9    12    1
    38    10    11    1
    39    10     5    1
    40    12    14    1
    41     5     4    1
    42     4     1    1
    43     1     2    2
    44     1     3    1
    45     1    24    1
    46    24    25    1
    47    25    26    2
    48    25    27    1
@<TRIPOS>MOLECULE
UD1
 46 48 0 0 0
SMALL
GASTEIGER

@<TRIPOS>ATOM
      1 P          19.6188   72.3089   -3.0049 P.3     1  UNL1        0.2189
      2 O          20.6622   73.3445   -3.1706 O.2     1  UNL1       -0.5170
      3 O          20.0226   70.9999   -3.8511 O.3     1  UNL1       -0.4371
      4 O          18.2097   72.8775   -3.5378 O.3     1  UNL1       -0.3112
      5 C          17.1867   72.1976   -2.8088 C.3     1  UNL1        0.1811
      6 C          16.5907   70.4258   -5.8801 C.3     1  UNL1        0.2383
      7 C          17.1503   69.3513   -4.9143 C.3     1  UNL1        0.1895
      8 O          16.6129   68.0631   -5.2162 O.3     1  UNL1       -0.3779
      9 C          16.6422   69.8542   -3.5381 C.3     1  UNL1        0.1713
     10 C          16.3520   71.3497   -3.7698 C.3     1  UNL1        0.1764
     11 O          16.7131   71.6519   -5.1283 O.3     1  UNL1       -0.3308
     12 O          15.4517   69.1596   -3.1599 O.3     1  UNL1       -0.3794
     13 H          16.9994   67.4428   -4.5827 H       1  UNL1        0.2106
     14 H          15.6845   68.2242   -3.0893 H       1  UNL1        0.2105
     15 N          17.3889   70.4895   -7.1049 N.ar    1  UNL1       -0.2551
     16 C          16.7741   70.5841   -8.2967 C.ar    1  UNL1        0.3323
     17 N          17.4831   70.6484   -9.4392 N.ar    1  UNL1       -0.2743
     18 C          18.8304   70.6092   -9.4060 C.ar    1  UNL1        0.2626
     19 C          19.4904   70.5036   -8.1585 C.ar    1  UNL1        0.0795
     20 C          18.7549   70.4463   -7.0275 C.ar    1  UNL1        0.0869
     21 O          15.5595   70.6207   -8.3431 O.2     1  UNL1       -0.2464
     22 O          19.4723   70.6623  -10.4387 O.2     1  UNL1       -0.2670
     23 H          17.0232   70.7212  -10.2898 H       1  UNL1        0.1734
     24 O          19.4876   71.9234   -1.4483 O.3     1  UNL1       -0.2703
     25 P          20.9686   71.5639   -0.9320 P.3     1  UNL1        0.2208
     26 O          21.6213   70.6552   -1.9001 O.2     1  UNL1       -0.5170
     27 O          20.8764   70.8407    0.5036 O.3     1  UNL1       -0.4371
     28 O          21.8337   72.9143   -0.7964 O.3     1  UNL1       -0.2865
     29 C          23.1849   72.5184   -0.5540 C.3     1  UNL1        0.2611
     30 C          23.7654   73.3695    0.5768 C.3     1  UNL1        0.1582
     31 C          23.6980   74.8477    0.1769 C.3     1  UNL1        0.1625
     32 C          24.3807   75.0188   -1.1843 C.3     1  UNL1        0.1686
     33 C          23.7515   74.0453   -2.1832 C.3     1  UNL1        0.1760
     34 O          24.3713   75.6400    1.1569 O.3     1  UNL1       -0.3801
     35 O          24.2011   76.3597   -1.6438 O.3     1  UNL1       -0.3794
     36 O          23.9531   72.7035   -1.7410 O.3     1  UNL1       -0.3263
     37 H          24.3043   76.5600    0.8664 H       1  UNL1        0.2105
     38 H          24.6445   76.4232   -2.5017 H       1  UNL1        0.2105
     39 C          23.5378   72.5077    2.8439 C.2     1  UNL1        0.2231
     40 C          22.7369   72.2878    4.1019 C.3     1  UNL1        0.0946
     41 N          22.9879   73.1561    1.7992 N.am    1  UNL1       -0.2994
     42 O          24.6775   72.1002    2.7718 O.2     1  UNL1       -0.2751
     43 H          22.0757   73.4821    1.8566 H       1  UNL1        0.1496
     44 C          24.4043   74.2309   -3.5545 C.3     1  UNL1        0.1693
     45 O          24.5641   72.9574   -4.1828 O.3     1  UNL1       -0.3794
     46 H          24.9778   73.1189   -5.0415 H       1  UNL1        0.2105
@<TRIPOS>BOND
     1    29    30    1
     2    29    28    1
     3    29    36    1
     4    30    31    1
     5    30    41    1
     6    31    32    1
     7    31    34    1
     8    32    33    1
     9    32    35    1
    10    33    44    1
    11    33    36    1
    12    44    45    1
    13    39    40    1
    14    39    41   am
    15    39    42    2
    16    41    43    1
    17    28    25    1
    18    34    37    1
    19    35    38    1
    20    45    46    1
    21    15    16   ar
    22    15    20   ar
    23    15     6    1
    24    16    17   ar
    25    16    21    2
    26    17    18   ar
    27    17    23    1
    28    18    19   ar
    29    18    22    2
    30    19    20   ar
    31     6     7    1
    32     6    11    1
    33     7     8    1
    34     7     9    1
    35     8    13    1
    36     9    10    1
    37     9    12    1
    38    10    11    1
    39    10     5    1
    40    12    14    1
    41     5     4    1
    42     4     1    1
    43     1     2    2
    44     1     3    1
    45     1    24    1
    46    24    25    1
    47    25    26    2
    48    25    27    1
@<TRIPOS>MOLECULE
UD1
 46 48 0 0 0
SMALL
GASTEIGER

@<TRIPOS>ATOM
      1 P          20.7441   71.3396   -2.0870 P.3     1  UNL1        0.2189
      2 O          21.9592   70.7950   -2.7318 O.2     1  UNL1       -0.5170
      3 O          20.3275   70.4002   -0.8474 O.3     1  UNL1       -0.4371
      4 O          19.5414   71.3793   -3.1569 O.3     1  UNL1       -0.3112
      5 C          18.3679   70.9307   -2.4772 C.3     1  UNL1        0.1811
      6 C          16.8932   70.5711   -5.7366 C.3     1  UNL1        0.2383
      7 C          16.8777   69.1399   -5.1434 C.3     1  UNL1        0.1895
      8 O          15.7679   68.3921   -5.6417 O.3     1  UNL1       -0.3779
      9 C          16.7208   69.4181   -3.6258 C.3     1  UNL1        0.1713
     10 C          17.1980   70.8740   -3.4608 C.3     1  UNL1        0.1764
     11 O          17.6237   71.3358   -4.7541 O.3     1  UNL1       -0.3308
     12 O          15.3535   69.2852   -3.2315 O.3     1  UNL1       -0.3794
     13 H          15.8163   67.5152   -5.2365 H       1  UNL1        0.2106
     14 H          15.0977   68.3713   -3.4142 H       1  UNL1        0.2105
     15 N          17.5855   70.5915   -7.0256 N.ar    1  UNL1       -0.2551
     16 C          16.8762   70.5053   -8.1644 C.ar    1  UNL1        0.3323
     17 N          17.4862   70.5257   -9.3642 N.ar    1  UNL1       -0.2743
     18 C          18.8286   70.6242   -9.4424 C.ar    1  UNL1        0.2626
     19 C          19.5881   70.7097   -8.2513 C.ar    1  UNL1        0.0795
     20 C          18.9502   70.6924   -7.0613 C.ar    1  UNL1        0.0869
     21 O          15.6647   70.4160   -8.1102 O.2     1  UNL1       -0.2464
     22 O          19.3815   70.6379  -10.5266 O.2     1  UNL1       -0.2670
     23 H          16.9584   70.4673  -10.1756 H       1  UNL1        0.1734
     24 O          21.0398   72.8296   -1.5568 O.3     1  UNL1       -0.2703
     25 P          22.2810   72.7229   -0.5383 P.3     1  UNL1        0.2208
     26 O          23.4972   73.2634   -1.1846 O.2     1  UNL1       -0.5170
     27 O          22.5232   71.1802   -0.1460 O.3     1  UNL1       -0.4371
     28 O          21.9593   73.5693    0.7924 O.3     1  UNL1       -0.2865
     29 C          20.9255   72.8705    1.4882 C.3     1  UNL1        0.2611
     30 C          19.7864   73.8406    1.8068 C.3     1  UNL1        0.1582
     31 C          20.3316   74.9908    2.6608 C.3     1  UNL1        0.1625
     32 C          21.0451   74.3995    3.8813 C.3     1  UNL1        0.1686
     33 C          22.0916   73.3894    3.4059 C.3     1  UNL1        0.1760
     34 O          19.2519   75.8224    3.0896 O.3     1  UNL1       -0.3801
     35 O          21.6866   75.4457    4.6131 O.3     1  UNL1       -0.3794
     36 O          21.4511   72.3287    2.6980 O.3     1  UNL1       -0.3263
     37 H          19.6392   76.5309    3.6219 H       1  UNL1        0.2105
     38 H          22.1230   75.0304    5.3705 H       1  UNL1        0.2105
     39 C          19.6564   75.5639    0.0900 C.2     1  UNL1        0.2231
     40 C          19.0874   76.1132   -1.1933 C.3     1  UNL1        0.0946
     41 N          19.2343   74.3743    0.5600 N.am    1  UNL1       -0.2994
     42 O          20.4941   76.1934    0.7001 O.2     1  UNL1       -0.2751
     43 H          18.5637   73.8705    0.0720 H       1  UNL1        0.1496
     44 C          22.8325   72.8168    4.6160 C.3     1  UNL1        0.1693
     45 O          22.0020   72.9166    5.7746 O.3     1  UNL1       -0.3794
     46 H          22.5052   72.5463    6.5123 H       1  UNL1        0.2105
@<TRIPOS>BOND
     1    29    30    1
     2    29    28    1
     3    29    36    1
     4    30    31    1
     5    30    41    1
     6    31    32    1
     7    31    34    1
     8    32    33    1
     9    32    35    1
    10    33    44    1
    11    33    36    1
    12    44    45    1
    13    39    40    1
    14    39    41   am
    15    39    42    2
    16    41    43    1
    17    28    25    1
    18    34    37    1
    19    35    38    1
    20    45    46    1
    21    15    16   ar
    22    15    20   ar
    23    15     6    1
    24    16    17   ar
    25    16    21    2
    26    17    18   ar
    27    17    23    1
    28    18    19   ar
    29    18    22    2
    30    19    20   ar
    31     6     7    1
    32     6    11    1
    33     7     8    1
    34     7     9    1
    35     8    13    1
    36     9    10    1
    37     9    12    1
    38    10    11    1
    39    10     5    1
    40    12    14    1
    41     5     4    1
    42     4     1    1
    43     1     2    2
    44     1     3    1
    45     1    24    1
    46    24    25    1
    47    25    26    2
    48    25    27    1
@<TRIPOS>MOLECULE
UD1
 46 48 0 0 0
SMALL
GASTEIGER

@<TRIPOS>ATOM
      1 P          20.6453   71.2971   -2.9986 P.3     1  UNL1        0.2189
      2 O          20.3533   72.7290   -2.7680 O.2     1  UNL1       -0.5170
      3 O          21.1637   71.0916   -4.5090 O.3     1  UNL1       -0.4371
      4 O          19.3059   70.4332   -2.7697 O.3     1  UNL1       -0.3112
      5 C          18.2379   71.3648   -2.5915 C.3     1  UNL1        0.1811
      6 C          16.8583   70.4734   -5.7898 C.3     1  UNL1        0.2383
      7 C          17.0796   69.1188   -5.0714 C.3     1  UNL1        0.1895
      8 O          16.1125   68.1546   -5.4892 O.3     1  UNL1       -0.3779
      9 C          16.8718   69.5018   -3.5830 C.3     1  UNL1        0.1713
     10 C          17.0982   71.0257   -3.5535 C.3     1  UNL1        0.1764
     11 O          17.4464   71.4342   -4.8873 O.3     1  UNL1       -0.3308
     12 O          15.5442   69.1785   -3.1638 O.3     1  UNL1       -0.3794
     13 H          16.3051   67.3380   -5.0079 H       1  UNL1        0.2106
     14 H          15.4456   68.2221   -3.2616 H       1  UNL1        0.2105
     15 N          17.5430   70.4935   -7.0829 N.ar    1  UNL1       -0.2551
     16 C          16.8231   70.5385   -8.2175 C.ar    1  UNL1        0.3323
     17 N          17.4264   70.5619   -9.4207 N.ar    1  UNL1       -0.2743
     18 C          18.7716   70.5309   -9.5071 C.ar    1  UNL1        0.2626
     19 C          19.5415   70.4774   -8.3208 C.ar    1  UNL1        0.0795
     20 C          18.9108   70.4603   -7.1270 C.ar    1  UNL1        0.0869
     21 O          15.6090   70.5670   -8.1559 O.2     1  UNL1       -0.2464
     22 O          19.3180   70.5471  -10.5945 O.2     1  UNL1       -0.2670
     23 H          16.8916   70.5992  -10.2286 H       1  UNL1        0.1734
     24 O          21.7812   70.8085   -1.9691 O.3     1  UNL1       -0.2703
     25 P          23.0801   71.7176   -2.2442 P.3     1  UNL1        0.2208
     26 O          22.7050   72.8692   -3.0939 O.2     1  UNL1       -0.5170
     27 O          24.2011   70.8398   -2.9958 O.3     1  UNL1       -0.4371
     28 O          23.6685   72.2525   -0.8449 O.3     1  UNL1       -0.2865
     29 C          22.8901   73.3926   -0.4766 C.3     1  UNL1        0.2611
     30 C          23.8258   74.5465   -0.1120 C.3     1  UNL1        0.1582
     31 C          24.7301   74.1115    1.0467 C.3     1  UNL1        0.1625
     32 C          23.8486   73.6003    2.1912 C.3     1  UNL1        0.1686
     33 C          22.9132   72.5154    1.6533 C.3     1  UNL1        0.1760
     34 O          25.5037   75.2261    1.4949 O.3     1  UNL1       -0.3801
     35 O          24.6733   73.0541    3.2223 O.3     1  UNL1       -0.3794
     36 O          22.0691   73.0645    0.6421 O.3     1  UNL1       -0.3263
     37 H          26.0566   74.9082    2.2219 H       1  UNL1        0.2105
     38 H          24.0794   72.7441    3.9207 H       1  UNL1        0.2105
     39 C          24.5512   76.1201   -1.8242 C.2     1  UNL1        0.2231
     40 C          25.3979   76.4787   -3.0187 C.3     1  UNL1        0.0946
     41 N          24.6485   74.8955   -1.2720 N.am    1  UNL1       -0.2994
     42 O          23.7815   76.9342   -1.3604 O.2     1  UNL1       -0.2751
     43 H          25.2642   74.2438   -1.6432 H       1  UNL1        0.1496
     44 C          22.0507   71.9751    2.7958 C.3     1  UNL1        0.1693
     45 O          21.7244   73.0397    3.6914 O.3     1  UNL1       -0.3794
     46 H          21.1822   72.6575    4.3947 H       1  UNL1        0.2105
@<TRIPOS>BOND
     1    29    30    1
     2    29    28    1
     3    29    36    1
     4    30    31    1
     5    30    41    1
     6    31    32    1
     7    31    34    1
     8    32    33    1
     9    32    35    1
    10    33    44    1
    11    33    36    1
    12    44    45    1
    13    39    40    1
    14    39    41   am
    15    39    42    2
    16    41    43    1
    17    28    25    1
    18    34    37    1
    19    35    38    1
    20    45    46    1
    21    15    16   ar
    22    15    20   ar
    23    15     6    1
    24    16    17   ar
    25    16    21    2
    26    17    18   ar
    27    17    23    1
    28    18    19   ar
    29    18    22    2
    30    19    20   ar
    31     6     7    1
    32     6    11    1
    33     7     8    1
    34     7     9    1
    35     8    13    1
    36     9    10    1
    37     9    12    1
    38    10    11    1
    39    10     5    1
    40    12    14    1
    41     5     4    1
    42     4     1    1
    43     1     2    2
    44     1     3    1
    45     1    24    1
    46    24    25    1
    47    25    26    2
    48    25    27    1
@<TRIPOS>MOLECULE
UD1
 46 48 0 0 0
SMALL
GASTEIGER

@<TRIPOS>ATOM
      1 P          23.0860   71.5870   -2.8307 P.3     1  UNL1        0.2189
      2 O          24.3175   70.7794   -2.9715 O.2     1  UNL1       -0.5170
      3 O          23.0648   72.7347   -3.9598 O.3     1  UNL1       -0.4371
      4 O          23.0562   72.2695   -1.3726 O.3     1  UNL1       -0.3112
      5 C          24.0204   71.5818   -0.5739 C.3     1  UNL1        0.1811
      6 C          22.9523   71.8079    2.8517 C.3     1  UNL1        0.2383
      7 C          21.7335   72.3003    2.0318 C.3     1  UNL1        0.1895
      8 O          20.5098   71.9937    2.7009 O.3     1  UNL1       -0.3779
      9 C          21.8690   71.4801    0.7226 C.3     1  UNL1        0.1713
     10 C          23.3506   71.0575    0.6972 C.3     1  UNL1        0.1764
     11 O          23.9811   71.6319    1.8546 O.3     1  UNL1       -0.3308
     12 O          21.0157   70.3341    0.7596 O.3     1  UNL1       -0.3794
     13 H          19.7939   72.3253    2.1415 H       1  UNL1        0.2106
     14 H          20.1099   70.6627    0.8354 H       1  UNL1        0.2105
     15 N          23.3551   72.8117    3.8374 N.ar    1  UNL1       -0.2551
     16 C          24.3220   73.6945    3.5324 C.ar    1  UNL1        0.3323
     17 N          24.7099   74.6312    4.4180 N.ar    1  UNL1       -0.2743
     18 C          24.1366   74.6928    5.6368 C.ar    1  UNL1        0.2626
     19 C          23.1216   73.7657    5.9732 C.ar    1  UNL1        0.0795
     20 C          22.7481   72.8399    5.0640 C.ar    1  UNL1        0.0869
     21 O          24.8485   73.6518    2.4371 O.2     1  UNL1       -0.2464
     22 O          24.4899   75.5362    6.4400 O.2     1  UNL1       -0.2670
     23 H          25.4056   75.2631    4.1794 H       1  UNL1        0.1734
     24 O          21.7987   70.6376   -3.0050 O.3     1  UNL1       -0.2703
     25 P          20.5026   71.5776   -2.8443 P.3     1  UNL1        0.2208
     26 O          20.9194   72.9154   -2.3696 O.2     1  UNL1       -0.5170
     27 O          19.4917   70.9211   -1.7768 O.3     1  UNL1       -0.4371
     28 O          19.7615   71.7195   -4.2659 O.3     1  UNL1       -0.2865
     29 C          19.9034   70.4649   -4.9345 C.3     1  UNL1        0.2611
     30 C          19.9448   70.6997   -6.4455 C.3     1  UNL1        0.1582
     31 C          18.6527   71.4009   -6.8794 C.3     1  UNL1        0.1625
     32 C          17.4585   70.5812   -6.3794 C.3     1  UNL1        0.1686
     33 C          17.6032   70.3579   -4.8726 C.3     1  UNL1        0.1760
     34 O          18.6125   71.4915   -8.3047 O.3     1  UNL1       -0.3801
     35 O          16.2471   71.2908   -6.6447 O.3     1  UNL1       -0.3794
     36 O          18.7985   69.6254   -4.6063 O.3     1  UNL1       -0.3263
     37 H          17.7856   71.9382   -8.5331 H       1  UNL1        0.2105
     38 H          15.5226   70.7409   -6.3141 H       1  UNL1        0.2105
     39 C          20.9430   72.8738   -6.9049 C.2     1  UNL1        0.2231
     40 C          22.1279   73.7399   -7.2489 C.3     1  UNL1        0.0946
     41 N          21.0957   71.5415   -6.7791 N.am    1  UNL1       -0.2994
     42 O          19.8516   73.3764   -6.7421 O.2     1  UNL1       -0.2751
     43 H          21.9689   71.1391   -6.9096 H       1  UNL1        0.1496
     44 C          16.3985   69.5676   -4.3574 C.3     1  UNL1        0.1693
     45 O          15.9652   68.6496   -5.3631 O.3     1  UNL1       -0.3794
     46 H          15.2066   68.1734   -4.9992 H       1  UNL1        0.2105
@<TRIPOS>BOND
     1    29    30    1
     2    29    28    1
     3    29    36    1
     4    30    31    1
     5    30    41    1
     6    31    32    1
     7    31    34    1
     8    32    33    1
     9    32    35    1
    10    33    44    1
    11    33    36    1
    12    44    45    1
    13    39    40    1
    14    39    41   am
    15    39    42    2
    16    41    43    1
    17    28    25    1
    18    34    37    1
    19    35    38    1
    20    45    46    1
    21    15    16   ar
    22    15    20   ar
    23    15     6    1
    24    16    17   ar
    25    16    21    2
    26    17    18   ar
    27    17    23    1
    28    18    19   ar
    29    18    22    2
    30    19    20   ar
    31     6     7    1
    32     6    11    1
    33     7     8    1
    34     7     9    1
    35     8    13    1
    36     9    10    1
    37     9    12    1
    38    10    11    1
    39    10     5    1
    40    12    14    1
    41     5     4    1
    42     4     1    1
    43     1     2    2
    44     1     3    1
    45     1    24    1
    46    24    25    1
    47    25    26    2
    48    25    27    1
@<TRIPOS>MOLECULE
UD1
 46 48 0 0 0
SMALL
GASTEIGER

@<TRIPOS>ATOM
      1 P          16.7432   69.5585   -2.9138 P.3     1  UNL1        0.2189
      2 O          16.5617   69.0156   -4.2780 O.2     1  UNL1       -0.5170
      3 O          16.8574   68.3435   -1.8634 O.3     1  UNL1       -0.4371
      4 O          15.4796   70.4804   -2.5313 O.3     1  UNL1       -0.3112
      5 C          15.1830   70.2265   -1.1572 C.3     1  UNL1        0.1811
      6 C          12.6827   68.2483    0.5049 C.3     1  UNL1        0.2383
      7 C          12.3217   69.7115    0.8637 C.3     1  UNL1        0.1895
      8 O          10.9132   69.8605    1.0459 O.3     1  UNL1       -0.3779
      9 C          12.8017   70.4829   -0.3932 C.3     1  UNL1        0.1713
     10 C          13.8240   69.5335   -1.0474 C.3     1  UNL1        0.1764
     11 O          13.9333   68.3735   -0.2050 O.3     1  UNL1       -0.3308
     12 O          11.7056   70.7332   -1.2756 O.3     1  UNL1       -0.3794
     13 H          10.7559   70.7890    1.2665 H       1  UNL1        0.2106
     14 H          11.0750   71.2809   -0.7893 H       1  UNL1        0.2105
     15 N          12.8546   67.4440    1.7152 N.ar    1  UNL1       -0.2551
     16 C          12.5175   66.1426    1.7038 C.ar    1  UNL1        0.3323
     17 N          12.6685   65.3778    2.8013 N.ar    1  UNL1       -0.2743
     18 C          13.1551   65.9117    3.9398 C.ar    1  UNL1        0.2626
     19 C          13.5083   67.2818    3.9675 C.ar    1  UNL1        0.0795
     20 C          13.3516   68.0246    2.8508 C.ar    1  UNL1        0.0869
     21 O          12.0774   65.6466    0.6846 O.2     1  UNL1       -0.2464
     22 O          13.2876   65.2223    4.9341 O.2     1  UNL1       -0.2670
     23 H          12.4247   64.4397    2.7738 H       1  UNL1        0.1734
     24 O          18.0869   70.4420   -2.8621 O.3     1  UNL1       -0.2703
     25 P          17.8142   71.7554   -3.7509 P.3     1  UNL1        0.2208
     26 O          17.3749   72.8623   -2.8731 O.2     1  UNL1       -0.5170
     27 O          16.6651   71.4421   -4.8342 O.3     1  UNL1       -0.4371
     28 O          19.1669   72.1796   -4.5130 O.3     1  UNL1       -0.2865
     29 C          19.9863   71.0113   -4.5843 C.3     1  UNL1        0.2611
     30 C          21.4578   71.4278   -4.6174 C.3     1  UNL1        0.1582
     31 C          21.6960   72.3307   -5.8329 C.3     1  UNL1        0.1625
     32 C          21.1949   71.6067   -7.0870 C.3     1  UNL1        0.1686
     33 C          19.7419   71.1793   -6.8687 C.3     1  UNL1        0.1760
     34 O          23.0925   72.6044   -5.9598 O.3     1  UNL1       -0.3801
     35 O          21.2721   72.4868   -8.2100 O.3     1  UNL1       -0.3794
     36 O          19.6651   70.2785   -5.7646 O.3     1  UNL1       -0.3263
     37 H          23.1963   73.1740   -6.7345 H       1  UNL1        0.2105
     38 H          20.9472   71.9923   -8.9758 H       1  UNL1        0.2105
     39 C          23.0017   72.0124   -2.8260 C.2     1  UNL1        0.2231
     40 C          23.3409   72.7638   -1.5641 C.3     1  UNL1        0.0946
     41 N          21.7880   72.1580   -3.3917 N.am    1  UNL1       -0.2994
     42 O          23.8213   71.2760   -3.3320 O.2     1  UNL1       -0.2751
     43 H          21.1318   72.7471   -2.9868 H       1  UNL1        0.1496
     44 C          19.2215   70.4836   -8.1282 C.3     1  UNL1        0.1693
     45 O          18.5870   71.4436   -8.9754 O.3     1  UNL1       -0.3794
     46 H          18.2740   70.9652   -9.7550 H       1  UNL1        0.2105
@<TRIPOS>BOND
     1    29    30    1
     2    29    28    1
     3    29    36    1
     4    30    31    1
     5    30    41    1
     6    31    32    1
     7    31    34    1
     8    32    33    1
     9    32    35    1
    10    33    44    1
    11    33    36    1
    12    44    45    1
    13    39    40    1
    14    39    41   am
    15    39    42    2
    16    41    43    1
    17    28    25    1
    18    34    37    1
    19    35    38    1
    20    45    46    1
    21    15    16   ar
    22    15    20   ar
    23    15     6    1
    24    16    17   ar
    25    16    21    2
    26    17    18   ar
    27    17    23    1
    28    18    19   ar
    29    18    22    2
    30    19    20   ar
    31     6     7    1
    32     6    11    1
    33     7     8    1
    34     7     9    1
    35     8    13    1
    36     9    10    1
    37     9    12    1
    38    10    11    1
    39    10     5    1
    40    12    14    1
    41     5     4    1
    42     4     1    1
    43     1     2    2
    44     1     3    1
    45     1    24    1
    46    24    25    1
    47    25    26    2
    48    25    27    1
@<TRIPOS>MOLECULE
UD1
 46 48 0 0 0
SMALL
GASTEIGER

@<TRIPOS>ATOM
      1 P          22.1088   73.1064   -2.5345 P.3     1  UNL1        0.2189
      2 O          22.4441   74.3678   -1.8378 O.2     1  UNL1       -0.5170
      3 O          23.4260   72.1868   -2.6431 O.3     1  UNL1       -0.4371
      4 O          21.5643   73.4389   -4.0129 O.3     1  UNL1       -0.3112
      5 C          22.4436   72.7907   -4.9333 C.3     1  UNL1        0.1811
      6 C          19.5519   70.8953   -5.9196 C.3     1  UNL1        0.2383
      7 C          19.2999   72.3132   -6.4908 C.3     1  UNL1        0.1895
      8 O          18.5296   72.2511   -7.6916 O.3     1  UNL1       -0.3779
      9 C          20.7407   72.8074   -6.7826 C.3     1  UNL1        0.1713
     10 C          21.6291   71.9191   -5.8905 C.3     1  UNL1        0.1764
     11 O          20.7579   71.0538   -5.1424 O.3     1  UNL1       -0.3308
     12 O          21.0631   72.6228   -8.1627 O.3     1  UNL1       -0.3794
     13 H          18.4082   73.1617   -7.9940 H       1  UNL1        0.2106
     14 H          20.4363   73.1561   -8.6696 H       1  UNL1        0.2105
     15 N          18.4400   70.4737   -5.0668 N.ar    1  UNL1       -0.2551
     16 C          17.3760   69.8606   -5.6138 C.ar    1  UNL1        0.3323
     17 N          16.3407   69.4585   -4.8530 N.ar    1  UNL1       -0.2743
     18 C          16.3512   69.6746   -3.5222 C.ar    1  UNL1        0.2626
     19 C          17.4624   70.3243   -2.9340 C.ar    1  UNL1        0.0795
     20 C          18.4897   70.7124   -3.7198 C.ar    1  UNL1        0.0869
     21 O          17.3518   69.6585   -6.8127 O.2     1  UNL1       -0.2464
     22 O          15.4136   69.3158   -2.8340 O.2     1  UNL1       -0.2670
     23 H          15.5835   69.0134   -5.2638 H       1  UNL1        0.1734
     24 O          20.9724   72.3226   -1.7080 O.3     1  UNL1       -0.2703
     25 P          21.7173   71.5581   -0.5038 P.3     1  UNL1        0.2208
     26 O          22.9114   70.8589   -1.0274 O.2     1  UNL1       -0.5170
     27 O          20.7134   70.4850    0.1540 O.3     1  UNL1       -0.4371
     28 O          22.1674   72.6251    0.6139 O.3     1  UNL1       -0.2865
     29 C          21.8690   72.0448    1.8849 C.3     1  UNL1        0.2611
     30 C          21.5717   73.1580    2.8911 C.3     1  UNL1        0.1582
     31 C          22.7907   74.0820    2.9909 C.3     1  UNL1        0.1625
     32 C          24.0260   73.2316    3.3055 C.3     1  UNL1        0.1686
     33 C          24.1398   72.1145    2.2660 C.3     1  UNL1        0.1760
     34 O          22.5840   75.0363    4.0340 O.3     1  UNL1       -0.3801
     35 O          25.1953   74.0514    3.2581 O.3     1  UNL1       -0.3794
     36 O          22.9857   71.2775    2.3294 O.3     1  UNL1       -0.3263
     37 H          23.3725   75.5955    4.0614 H       1  UNL1        0.2105
     38 H          25.9477   73.4775    3.4607 H       1  UNL1        0.2105
     39 C          20.5791   75.0244    1.6805 C.2     1  UNL1        0.2231
     40 C          19.3819   75.8155    1.2190 C.3     1  UNL1        0.0946
     41 N          20.4090   73.9265    2.4421 N.am    1  UNL1       -0.2994
     42 O          21.6961   75.3766    1.3668 O.2     1  UNL1       -0.2751
     43 H          19.5152   73.6446    2.6935 H       1  UNL1        0.1496
     44 C          25.3890   71.2786    2.5521 C.3     1  UNL1        0.1693
     45 O          25.0531   69.8902    2.5119 O.3     1  UNL1       -0.3794
     46 H          25.8657   69.4003    2.6971 H       1  UNL1        0.2105
@<TRIPOS>BOND
     1    29    30    1
     2    29    28    1
     3    29    36    1
     4    30    31    1
     5    30    41    1
     6    31    32    1
     7    31    34    1
     8    32    33    1
     9    32    35    1
    10    33    44    1
    11    33    36    1
    12    44    45    1
    13    39    40    1
    14    39    41   am
    15    39    42    2
    16    41    43    1
    17    28    25    1
    18    34    37    1
    19    35    38    1
    20    45    46    1
    21    15    16   ar
    22    15    20   ar
    23    15     6    1
    24    16    17   ar
    25    16    21    2
    26    17    18   ar
    27    17    23    1
    28    18    19   ar
    29    18    22    2
    30    19    20   ar
    31     6     7    1
    32     6    11    1
    33     7     8    1
    34     7     9    1
    35     8    13    1
    36     9    10    1
    37     9    12    1
    38    10    11    1
    39    10     5    1
    40    12    14    1
    41     5     4    1
    42     4     1    1
    43     1     2    2
    44     1     3    1
    45     1    24    1
    46    24    25    1
    47    25    26    2
    48    25    27    1
@<TRIPOS>MOLECULE
UD1
 46 48 0 0 0
SMALL
GASTEIGER

@<TRIPOS>ATOM
      1 P          22.7536   71.4418   -2.9740 P.3     1  UNL1        0.2189
      2 O          24.1299   70.9012   -3.0231 O.2     1  UNL1       -0.5170
      3 O          22.4929   72.3643   -4.2676 O.3     1  UNL1       -0.4371
      4 O          22.5720   72.3257   -1.6404 O.3     1  UNL1       -0.3112
      5 C          23.7001   72.0543   -0.8072 C.3     1  UNL1        0.1811
      6 C          22.9866   72.0362    2.7167 C.3     1  UNL1        0.2383
      7 C          21.6425   72.4233    2.0504 C.3     1  UNL1        0.1895
      8 O          20.5359   71.9610    2.8256 O.3     1  UNL1       -0.3779
      9 C          21.7220   71.6716    0.6962 C.3     1  UNL1        0.1713
     10 C          23.2283   71.4137    0.4990 C.3     1  UNL1        0.1764
     11 O          23.9156   72.0101    1.6122 O.3     1  UNL1       -0.3308
     12 O          21.0016   70.4391    0.7651 O.3     1  UNL1       -0.3794
     13 H          19.7337   72.2333    2.3590 H       1  UNL1        0.2106
     14 H          20.0798   70.6643    0.9489 H       1  UNL1        0.2105
     15 N          23.3856   73.0408    3.7031 N.ar    1  UNL1       -0.2551
     16 C          24.2760   73.9896    3.3651 C.ar    1  UNL1        0.3323
     17 N          24.6582   74.9285    4.2509 N.ar    1  UNL1       -0.2743
     18 C          24.1571   74.9259    5.5026 C.ar    1  UNL1        0.2626
     19 C          23.2234   73.9292    5.8736 C.ar    1  UNL1        0.0795
     20 C          22.8533   73.0026    4.9637 C.ar    1  UNL1        0.0869
     21 O          24.7368   74.0052    2.2400 O.2     1  UNL1       -0.2464
     22 O          24.5056   75.7715    6.3057 O.2     1  UNL1       -0.2670
     23 H          25.2979   75.6083    3.9885 H       1  UNL1        0.1734
     24 O          21.6997   70.2261   -2.9594 O.3     1  UNL1       -0.2703
     25 P          20.2317   70.8839   -2.9206 P.3     1  UNL1        0.2208
     26 O          20.3530   72.3569   -2.8544 O.2     1  UNL1       -0.5170
     27 O          19.4388   70.3527   -1.6240 O.3     1  UNL1       -0.4371
     28 O          19.4221   70.4714   -4.2491 O.3     1  UNL1       -0.2865
     29 C          18.9060   71.6790   -4.8117 C.3     1  UNL1        0.2611
     30 C          17.4373   71.4737   -5.1873 C.3     1  UNL1        0.1582
     31 C          17.3333   70.3209   -6.1922 C.3     1  UNL1        0.1625
     32 C          18.2728   70.6093   -7.3679 C.3     1  UNL1        0.1686
     33 C          19.6793   70.8767   -6.8279 C.3     1  UNL1        0.1760
     34 O          15.9887   70.2167   -6.6639 O.3     1  UNL1       -0.3801
     35 O          18.3023   69.4810   -8.2440 O.3     1  UNL1       -0.3794
     36 O          19.6586   72.0199   -5.9739 O.3     1  UNL1       -0.3263
     37 H          15.9689   69.4811   -7.2914 H       1  UNL1        0.2105
     38 H          18.9046   69.7044   -8.9677 H       1  UNL1        0.2105
     39 C          16.4324   69.8624   -3.6616 C.2     1  UNL1        0.2231
     40 C          15.6371   69.5283   -2.4253 C.3     1  UNL1        0.0946
     41 N          16.6653   71.1487   -3.9862 N.am    1  UNL1       -0.2994
     42 O          16.8621   68.9730   -4.3647 O.2     1  UNL1       -0.2751
     43 H          16.3213   71.8607   -3.4238 H       1  UNL1        0.1496
     44 C          20.6326   71.1340   -7.9967 C.3     1  UNL1        0.1693
     45 O          19.8881   71.5910   -9.1275 O.3     1  UNL1       -0.3794
     46 H          20.5245   71.7405   -9.8398 H       1  UNL1        0.2105
@<TRIPOS>BOND
     1    29    30    1
     2    29    28    1
     3    29    36    1
     4    30    31    1
     5    30    41    1
     6    31    32    1
     7    31    34    1
     8    32    33    1
     9    32    35    1
    10    33    44    1
    11    33    36    1
    12    44    45    1
    13    39    40    1
    14    39    41   am
    15    39    42    2
    16    41    43    1
    17    28    25    1
    18    34    37    1
    19    35    38    1
    20    45    46    1
    21    15    16   ar
    22    15    20   ar
    23    15     6    1
    24    16    17   ar
    25    16    21    2
    26    17    18   ar
    27    17    23    1
    28    18    19   ar
    29    18    22    2
    30    19    20   ar
    31     6     7    1
    32     6    11    1
    33     7     8    1
    34     7     9    1
    35     8    13    1
    36     9    10    1
    37     9    12    1
    38    10    11    1
    39    10     5    1
    40    12    14    1
    41     5     4    1
    42     4     1    1
    43     1     2    2
    44     1     3    1
    45     1    24    1
    46    24    25    1
    47    25    26    2
    48    25    27    1
@<TRIPOS>MOLECULE
UD1
 46 48 0 0 0
SMALL
GASTEIGER

@<TRIPOS>ATOM
      1 P          21.5986   72.9486   -6.3279 P.3     1  UNL1        0.2189
      2 O          21.7293   74.3987   -6.0654 O.2     1  UNL1       -0.5170
      3 O          22.9575   72.3992   -6.9943 O.3     1  UNL1       -0.4371
      4 O          20.3677   72.6948   -7.3345 O.3     1  UNL1       -0.3112
      5 C          20.7352   71.5950   -8.1686 C.3     1  UNL1        0.1811
      6 C          17.7196   70.0857   -6.9214 C.3     1  UNL1        0.2383
      7 C          17.2359   71.0808   -8.0058 C.3     1  UNL1        0.1895
      8 O          16.0404   70.6134   -8.6316 O.3     1  UNL1       -0.3779
      9 C          18.4220   71.0756   -9.0049 C.3     1  UNL1        0.1713
     10 C          19.6108   70.5582   -8.1721 C.3     1  UNL1        0.1764
     11 O          19.1364   70.3470   -6.8313 O.3     1  UNL1       -0.3308
     12 O          18.1502   70.1979  -10.0997 O.3     1  UNL1       -0.3794
     13 H          15.7931   71.2749   -9.2925 H       1  UNL1        0.2106
     14 H          17.3633   70.5409  -10.5438 H       1  UNL1        0.2105
     15 N          17.0631   70.3529   -5.6412 N.ar    1  UNL1       -0.2551
     16 C          16.4279   69.3581   -4.9976 C.ar    1  UNL1        0.3323
     17 N          15.8187   69.5742   -3.8168 N.ar    1  UNL1       -0.2743
     18 C          15.8287   70.8030   -3.2619 C.ar    1  UNL1        0.2626
     19 C          16.4886   71.8608   -3.9316 C.ar    1  UNL1        0.0795
     20 C          17.0961   71.6150   -5.1122 C.ar    1  UNL1        0.0869
     21 O          16.4102   68.2443   -5.4853 O.2     1  UNL1       -0.2464
     22 O          15.2742   71.0006   -2.1966 O.2     1  UNL1       -0.2670
     23 H          15.3694   68.8439   -3.3641 H       1  UNL1        0.1734
     24 O          21.3277   72.1749   -4.9434 O.3     1  UNL1       -0.2703
     25 P          22.6110   72.4332   -4.0076 P.3     1  UNL1        0.2208
     26 O          23.8108   72.6126   -4.8545 O.2     1  UNL1       -0.5170
     27 O          22.8276   71.1709   -3.0321 O.3     1  UNL1       -0.4371
     28 O          22.3748   73.7578   -3.1244 O.3     1  UNL1       -0.2865
     29 C          23.5294   73.9163   -2.2980 C.3     1  UNL1        0.2611
     30 C          23.0905   74.0661   -0.8403 C.3     1  UNL1        0.1582
     31 C          22.1661   75.2827   -0.7177 C.3     1  UNL1        0.1625
     32 C          22.8789   76.5018   -1.3125 C.3     1  UNL1        0.1686
     33 C          23.3312   76.1692   -2.7359 C.3     1  UNL1        0.1760
     34 O          21.8696   75.5219    0.6594 O.3     1  UNL1       -0.3801
     35 O          21.9812   77.6130   -1.3421 O.3     1  UNL1       -0.3794
     36 O          24.2494   75.0772   -2.7073 O.3     1  UNL1       -0.3263
     37 H          21.2871   76.2933    0.6899 H       1  UNL1        0.2105
     38 H          22.4691   78.3567   -1.7234 H       1  UNL1        0.2105
     39 C          22.9572   71.9908    0.4284 C.2     1  UNL1        0.2231
     40 C          22.2192   70.7500    0.8622 C.3     1  UNL1        0.0946
     41 N          22.3738   72.8609   -0.4182 N.am    1  UNL1       -0.2994
     42 O          24.0769   72.2057    0.8411 O.2     1  UNL1       -0.2751
     43 H          21.4778   72.6890   -0.7489 H       1  UNL1        0.1496
     44 C          24.0159   77.3916   -3.3508 C.3     1  UNL1        0.1693
     45 O          23.0381   78.2141   -3.9908 O.3     1  UNL1       -0.3794
     46 H          23.5100   78.9707   -4.3642 H       1  UNL1        0.2105
@<TRIPOS>BOND
     1    29    30    1
     2    29    28    1
     3    29    36    1
     4    30    31    1
     5    30    41    1
     6    31    32    1
     7    31    34    1
     8    32    33    1
     9    32    35    1
    10    33    44    1
    11    33    36    1
    12    44    45    1
    13    39    40    1
    14    39    41   am
    15    39    42    2
    16    41    43    1
    17    28    25    1
    18    34    37    1
    19    35    38    1
    20    45    46    1
    21    15    16   ar
    22    15    20   ar
    23    15     6    1
    24    16    17   ar
    25    16    21    2
    26    17    18   ar
    27    17    23    1
    28    18    19   ar
    29    18    22    2
    30    19    20   ar
    31     6     7    1
    32     6    11    1
    33     7     8    1
    34     7     9    1
    35     8    13    1
    36     9    10    1
    37     9    12    1
    38    10    11    1
    39    10     5    1
    40    12    14    1
    41     5     4    1
    42     4     1    1
    43     1     2    2
    44     1     3    1
    45     1    24    1
    46    24    25    1
    47    25    26    2
    48    25    27    1
@<TRIPOS>MOLECULE
UD1
 46 48 0 0 0
SMALL
GASTEIGER

@<TRIPOS>ATOM
      1 P          20.6957   71.1946   -1.0789 P.3     1  UNL1        0.2189
      2 O          21.0960   70.6143    0.2218 O.2     1  UNL1       -0.5170
      3 O          20.8015   72.7996   -1.0059 O.3     1  UNL1       -0.4371
      4 O          19.1775   70.7724   -1.4098 O.3     1  UNL1       -0.3112
      5 C          19.2089   70.0437   -2.6380 C.3     1  UNL1        0.1811
      6 C          17.3498   70.4188   -5.6926 C.3     1  UNL1        0.2383
      7 C          17.0534   68.9692   -5.2333 C.3     1  UNL1        0.1895
      8 O          15.7491   68.5590   -5.6454 O.3     1  UNL1       -0.3779
      9 C          17.1321   69.0942   -3.6895 C.3     1  UNL1        0.1713
     10 C          17.9612   70.3725   -3.4592 C.3     1  UNL1        0.1764
     11 O          18.3443   70.8746   -4.7509 O.3     1  UNL1       -0.3308
     12 O          15.8236   69.2315   -3.1313 O.3     1  UNL1       -0.3794
     13 H          15.6279   67.6526   -5.3304 H       1  UNL1        0.2106
     14 H          15.3369   68.4283   -3.3597 H       1  UNL1        0.2105
     15 N          17.8841   70.4330   -7.0549 N.ar    1  UNL1       -0.2551
     16 C          17.0408   70.4765   -8.1009 C.ar    1  UNL1        0.3323
     17 N          17.5042   70.4945   -9.3647 N.ar    1  UNL1       -0.2743
     18 C          18.8310   70.4596   -9.6024 C.ar    1  UNL1        0.2626
     19 C          19.7299   70.4076   -8.5105 C.ar    1  UNL1        0.0795
     20 C          19.2381   70.3959   -7.2530 C.ar    1  UNL1        0.0869
     21 O          15.8415   70.5086   -7.9027 O.2     1  UNL1       -0.2464
     22 O          19.2510   70.4710  -10.7447 O.2     1  UNL1       -0.2670
     23 H          16.8817   70.5309  -10.1071 H       1  UNL1        0.1734
     24 O          21.6698   70.6437   -2.2350 O.3     1  UNL1       -0.2703
     25 P          23.0190   71.5176   -2.1617 P.3     1  UNL1        0.2208
     26 O          24.1023   70.8137   -2.8825 O.2     1  UNL1       -0.5170
     27 O          23.4441   71.7217   -0.6222 O.3     1  UNL1       -0.4371
     28 O          22.7669   72.9542   -2.8422 O.3     1  UNL1       -0.2865
     29 C          23.9696   73.3040   -3.5295 C.3     1  UNL1        0.2611
     30 C          24.2915   74.7762   -3.2668 C.3     1  UNL1        0.1582
     31 C          23.1210   75.6394   -3.7509 C.3     1  UNL1        0.1625
     32 C          22.8243   75.2876   -5.2125 C.3     1  UNL1        0.1686
     33 C          22.6100   73.7770   -5.3279 C.3     1  UNL1        0.1760
     34 O          23.4706   77.0210   -3.6488 O.3     1  UNL1       -0.3801
     35 O          21.6454   75.9730   -5.6391 O.3     1  UNL1       -0.3794
     36 O          23.7953   73.0900   -4.9285 O.3     1  UNL1       -0.3263
     37 H          22.7078   77.5261   -3.9625 H       1  UNL1        0.2105
     38 H          21.4951   75.7232   -6.5619 H       1  UNL1        0.2105
     39 C          23.4707   75.3960   -1.0585 C.2     1  UNL1        0.2231
     40 C          23.6799   75.6111    0.4187 C.3     1  UNL1        0.0946
     41 N          24.4942   74.9847   -1.8316 N.am    1  UNL1       -0.2994
     42 O          22.3808   75.5939   -1.5516 O.2     1  UNL1       -0.2751
     43 H          25.3666   74.8265   -1.4372 H       1  UNL1        0.1496
     44 C          22.2808   73.4192   -6.7787 C.3     1  UNL1        0.1693
     45 O          22.9673   72.2195   -7.1414 O.3     1  UNL1       -0.3794
     46 H          22.7334   72.0302   -8.0602 H       1  UNL1        0.2105
@<TRIPOS>BOND
     1    29    30    1
     2    29    28    1
     3    29    36    1
     4    30    31    1
     5    30    41    1
     6    31    32    1
     7    31    34    1
     8    32    33    1
     9    32    35    1
    10    33    44    1
    11    33    36    1
    12    44    45    1
    13    39    40    1
    14    39    41   am
    15    39    42    2
    16    41    43    1
    17    28    25    1
    18    34    37    1
    19    35    38    1
    20    45    46    1
    21    15    16   ar
    22    15    20   ar
    23    15     6    1
    24    16    17   ar
    25    16    21    2
    26    17    18   ar
    27    17    23    1
    28    18    19   ar
    29    18    22    2
    30    19    20   ar
    31     6     7    1
    32     6    11    1
    33     7     8    1
    34     7     9    1
    35     8    13    1
    36     9    10    1
    37     9    12    1
    38    10    11    1
    39    10     5    1
    40    12    14    1
    41     5     4    1
    42     4     1    1
    43     1     2    2
    44     1     3    1
    45     1    24    1
    46    24    25    1
    47    25    26    2
    48    25    27    1
@<TRIPOS>MOLECULE
UD1
 46 48 0 0 0
SMALL
GASTEIGER

@<TRIPOS>ATOM
      1 P          23.2364   72.2584   -2.9346 P.3     1  UNL1        0.2189
      2 O          24.0380   73.5018   -2.9477 O.2     1  UNL1       -0.5170
      3 O          24.1996   70.9961   -3.2017 O.3     1  UNL1       -0.4371
      4 O          22.1158   72.3308   -4.0886 O.3     1  UNL1       -0.3112
      5 C          22.8038   72.5557   -5.3201 C.3     1  UNL1        0.1811
      6 C          19.6502   71.8027   -6.8740 C.3     1  UNL1        0.2383
      7 C          19.4562   73.2144   -6.2662 C.3     1  UNL1        0.1895
      8 O          18.5356   73.9827   -7.0418 O.3     1  UNL1       -0.3779
      9 C          20.8862   73.8075   -6.3572 C.3     1  UNL1        0.1713
     10 C          21.7979   72.5705   -6.4721 C.3     1  UNL1        0.1764
     11 O          20.9553   71.4077   -6.4004 O.3     1  UNL1       -0.3308
     12 O          21.0108   74.6380   -7.5138 O.3     1  UNL1       -0.3794
     13 H          18.4592   74.8458   -6.6120 H       1  UNL1        0.2106
     14 H          20.3750   75.3584   -7.4100 H       1  UNL1        0.2105
     15 N          18.6234   70.8814   -6.3858 N.ar    1  UNL1       -0.2551
     16 C          18.6406   70.4844   -5.1014 C.ar    1  UNL1        0.3323
     17 N          17.7065   69.6408   -4.6241 N.ar    1  UNL1       -0.2743
     18 C          16.7376   69.1704   -5.4352 C.ar    1  UNL1        0.2626
     19 C          16.7111   69.5754   -6.7910 C.ar    1  UNL1        0.0795
     20 C          17.6572   70.4267   -7.2422 C.ar    1  UNL1        0.0869
     21 O          19.5081   70.9000   -4.3575 O.2     1  UNL1       -0.2464
     22 O          15.8953   68.4038   -5.0059 O.2     1  UNL1       -0.2670
     23 H          17.7314   69.3687   -3.6938 H       1  UNL1        0.1734
     24 O          22.5217   72.0957   -1.5023 O.3     1  UNL1       -0.2703
     25 P          22.2752   73.5810   -0.9343 P.3     1  UNL1        0.2208
     26 O          21.4741   74.3548   -1.9082 O.2     1  UNL1       -0.5170
     27 O          23.6920   74.3109   -0.7058 O.3     1  UNL1       -0.4371
     28 O          21.4843   73.4975    0.4649 O.3     1  UNL1       -0.2865
     29 C          22.0778   74.4631    1.3348 C.3     1  UNL1        0.2611
     30 C          22.6591   73.7514    2.5577 C.3     1  UNL1        0.1582
     31 C          21.5377   72.9928    3.2763 C.3     1  UNL1        0.1625
     32 C          20.3960   73.9709    3.5726 C.3     1  UNL1        0.1686
     33 C          19.9832   74.6639    2.2723 C.3     1  UNL1        0.1760
     34 O          22.0356   72.4480    4.4997 O.3     1  UNL1       -0.3801
     35 O          19.2814   73.2560    4.1094 O.3     1  UNL1       -0.3794
     36 O          21.0866   75.4014    1.7478 O.3     1  UNL1       -0.3263
     37 H          21.2993   71.9804    4.9174 H       1  UNL1        0.2105
     38 H          18.5869   73.9080    4.2804 H       1  UNL1        0.2105
     39 C          23.3848   71.5115    1.9330 C.2     1  UNL1        0.2231
     40 C          24.4503   70.5403    1.4927 C.3     1  UNL1        0.0946
     41 N          23.6937   72.8077    2.1295 N.am    1  UNL1       -0.2994
     42 O          22.2491   71.1259    2.1110 O.2     1  UNL1       -0.2751
     43 H          24.6025   73.1166    1.9873 H       1  UNL1        0.1496
     44 C          18.8213   75.6194    2.5517 C.3     1  UNL1        0.1693
     45 O          17.6042   74.8762    2.6427 O.3     1  UNL1       -0.3794
     46 H          16.8993   75.5141    2.8186 H       1  UNL1        0.2105
@<TRIPOS>BOND
     1    29    30    1
     2    29    28    1
     3    29    36    1
     4    30    31    1
     5    30    41    1
     6    31    32    1
     7    31    34    1
     8    32    33    1
     9    32    35    1
    10    33    44    1
    11    33    36    1
    12    44    45    1
    13    39    40    1
    14    39    41   am
    15    39    42    2
    16    41    43    1
    17    28    25    1
    18    34    37    1
    19    35    38    1
    20    45    46    1
    21    15    16   ar
    22    15    20   ar
    23    15     6    1
    24    16    17   ar
    25    16    21    2
    26    17    18   ar
    27    17    23    1
    28    18    19   ar
    29    18    22    2
    30    19    20   ar
    31     6     7    1
    32     6    11    1
    33     7     8    1
    34     7     9    1
    35     8    13    1
    36     9    10    1
    37     9    12    1
    38    10    11    1
    39    10     5    1
    40    12    14    1
    41     5     4    1
    42     4     1    1
    43     1     2    2
    44     1     3    1
    45     1    24    1
    46    24    25    1
    47    25    26    2
    48    25    27    1
@<TRIPOS>MOLECULE
UD1
 46 48 0 0 0
SMALL
GASTEIGER

@<TRIPOS>ATOM
      1 P          22.4201   71.1375    0.6438 P.3     1  UNL1        0.2189
      2 O          21.2303   70.3111    0.9441 O.2     1  UNL1       -0.5170
      3 O          23.7427   70.3855    1.1709 O.3     1  UNL1       -0.4371
      4 O          22.2837   72.5619    1.3822 O.3     1  UNL1       -0.3112
      5 C          20.9493   72.6410    1.8858 C.3     1  UNL1        0.1811
      6 C          22.3538   73.4853    5.0861 C.3     1  UNL1        0.2383
      7 C          21.3696   74.6412    4.7770 C.3     1  UNL1        0.1895
      8 O          20.8188   75.1790    5.9797 O.3     1  UNL1       -0.3779
      9 C          20.2779   73.9244    3.9406 C.3     1  UNL1        0.1713
     10 C          20.9805   72.6577    3.4149 C.3     1  UNL1        0.1764
     11 O          22.3418   72.6989    3.8757 O.3     1  UNL1       -0.3308
     12 O          19.1620   73.5799    4.7645 O.3     1  UNL1       -0.3794
     13 H          20.2182   75.8909    5.7190 H       1  UNL1        0.2106
     14 H          18.8036   74.4084    5.1099 H       1  UNL1        0.2105
     15 N          23.6963   74.0033    5.3518 N.ar    1  UNL1       -0.2551
     16 C          24.0982   74.1931    6.6206 C.ar    1  UNL1        0.3323
     17 N          25.3290   74.6646    6.8947 N.ar    1  UNL1       -0.2743
     18 C          26.1803   74.9646    5.8931 C.ar    1  UNL1        0.2626
     19 C          25.7679   74.7753    4.5525 C.ar    1  UNL1        0.0795
     20 C          24.5299   74.2959    4.3062 C.ar    1  UNL1        0.0869
     21 O          23.3419   73.9271    7.5348 O.2     1  UNL1       -0.2464
     22 O          27.2916   75.3955    6.1396 O.2     1  UNL1       -0.2670
     23 H          25.6039   74.7909    7.8159 H       1  UNL1        0.1734
     24 O          22.5283   71.3651   -0.9453 O.3     1  UNL1       -0.2703
     25 P          21.0375   71.6577   -1.4756 P.3     1  UNL1        0.2208
     26 O          20.6700   73.0572   -1.1668 O.2     1  UNL1       -0.5170
     27 O          20.0034   70.6596   -0.7498 O.3     1  UNL1       -0.4371
     28 O          20.9775   71.4258   -3.0671 O.3     1  UNL1       -0.2865
     29 C          20.1347   72.4473   -3.6033 C.3     1  UNL1        0.2611
     30 C          18.9900   71.7992   -4.3841 C.3     1  UNL1        0.1582
     31 C          19.5751   70.9357   -5.5073 C.3     1  UNL1        0.1625
     32 C          20.5282   71.7974   -6.3423 C.3     1  UNL1        0.1686
     33 C          21.5589   72.4433   -5.4139 C.3     1  UNL1        0.1760
     34 O          18.5183   70.4455   -6.3345 O.3     1  UNL1       -0.3801
     35 O          21.1959   70.9776   -7.3033 O.3     1  UNL1       -0.3794
     36 O          20.8972   73.2845   -4.4699 O.3     1  UNL1       -0.3263
     37 H          18.9304   69.9088   -7.0255 H       1  UNL1        0.2105
     38 H          21.7850   71.5585   -7.8054 H       1  UNL1        0.2105
     39 C          18.4493   69.6412   -3.3918 C.2     1  UNL1        0.2231
     40 C          17.6311   68.7785   -2.4651 C.3     1  UNL1        0.0946
     41 N          18.1957   70.9608   -3.4838 N.am    1  UNL1       -0.2994
     42 O          19.3358   69.1471   -4.0552 O.2     1  UNL1       -0.2751
     43 H          17.4862   71.3564   -2.9531 H       1  UNL1        0.1496
     44 C          22.5356   73.2805   -6.2422 C.3     1  UNL1        0.1693
     45 O          23.3400   72.4165   -7.0475 O.3     1  UNL1       -0.3794
     46 H          23.9400   72.9825   -7.5519 H       1  UNL1        0.2105
@<TRIPOS>BOND
     1    29    30    1
     2    29    28    1
     3    29    36    1
     4    30    31    1
     5    30    41    1
     6    31    32    1
     7    31    34    1
     8    32    33    1
     9    32    35    1
    10    33    44    1
    11    33    36    1
    12    44    45    1
    13    39    40    1
    14    39    41   am
    15    39    42    2
    16    41    43    1
    17    28    25    1
    18    34    37    1
    19    35    38    1
    20    45    46    1
    21    15    16   ar
    22    15    20   ar
    23    15     6    1
    24    16    17   ar
    25    16    21    2
    26    17    18   ar
    27    17    23    1
    28    18    19   ar
    29    18    22    2
    30    19    20   ar
    31     6     7    1
    32     6    11    1
    33     7     8    1
    34     7     9    1
    35     8    13    1
    36     9    10    1
    37     9    12    1
    38    10    11    1
    39    10     5    1
    40    12    14    1
    41     5     4    1
    42     4     1    1
    43     1     2    2
    44     1     3    1
    45     1    24    1
    46    24    25    1
    47    25    26    2
    48    25    27    1
@<TRIPOS>MOLECULE
UD1
 46 48 0 0 0
SMALL
GASTEIGER

@<TRIPOS>ATOM
      1 P          22.0103   72.7833   -5.6788 P.3     1  UNL1        0.2189
      2 O          22.0370   74.0938   -4.9926 O.2     1  UNL1       -0.5170
      3 O          23.2203   72.7076   -6.7384 O.3     1  UNL1       -0.4371
      4 O          20.6088   72.6120   -6.4529 O.3     1  UNL1       -0.3112
      5 C          20.8652   71.7971   -7.5977 C.3     1  UNL1        0.1811
      6 C          17.7307   70.2683   -6.7230 C.3     1  UNL1        0.2383
      7 C          17.3606   71.3310   -7.7878 C.3     1  UNL1        0.1895
      8 O          16.2234   70.9192   -8.5471 O.3     1  UNL1       -0.3779
      9 C          18.6342   71.3634   -8.6720 C.3     1  UNL1        0.1713
     10 C          19.7348   70.7804   -7.7647 C.3     1  UNL1        0.1764
     11 O          19.1358   70.5012   -6.4878 O.3     1  UNL1       -0.3308
     12 O          18.4557   70.5537   -9.8362 O.3     1  UNL1       -0.3794
     13 H          16.0457   71.6211   -9.1884 H       1  UNL1        0.2106
     14 H          17.7172   70.9340  -10.3303 H       1  UNL1        0.2105
     15 N          16.9611   70.4731   -5.4953 N.ar    1  UNL1       -0.2551
     16 C          16.4802   69.4113   -4.8255 C.ar    1  UNL1        0.3323
     17 N          15.7723   69.5697   -3.6914 N.ar    1  UNL1       -0.2743
     18 C          15.5253   70.8053   -3.2116 C.ar    1  UNL1        0.2626
     19 C          16.0205   71.9321   -3.9101 C.ar    1  UNL1        0.0795
     20 C          16.7321   71.7443   -5.0422 C.ar    1  UNL1        0.0869
     21 O          16.6948   68.2905   -5.2455 O.2     1  UNL1       -0.2464
     22 O          14.8813   70.9499   -2.1890 O.2     1  UNL1       -0.2670
     23 H          15.4371   68.7924   -3.2186 H       1  UNL1        0.1734
     24 O          22.1713   71.6061   -4.5939 O.3     1  UNL1       -0.2703
     25 P          23.3234   72.0708   -3.5711 P.3     1  UNL1        0.2208
     26 O          24.2447   73.0034   -4.2568 O.2     1  UNL1       -0.5170
     27 O          24.1445   70.7817   -3.0649 O.3     1  UNL1       -0.4371
     28 O          22.6546   72.8095   -2.3072 O.3     1  UNL1       -0.2865
     29 C          23.1696   72.1743   -1.1356 C.3     1  UNL1        0.2611
     30 C          22.0125   71.8385   -0.1932 C.3     1  UNL1        0.1582
     31 C          21.2727   73.1302    0.1725 C.3     1  UNL1        0.1625
     32 C          22.2883   74.1383    0.7204 C.3     1  UNL1        0.1686
     33 C          23.4233   74.3030   -0.2925 C.3     1  UNL1        0.1760
     34 O          20.2854   72.8515    1.1669 O.3     1  UNL1       -0.3801
     35 O          21.6464   75.3976    0.9300 O.3     1  UNL1       -0.3794
     36 O          24.0842   73.0528   -0.4835 O.3     1  UNL1       -0.3263
     37 H          19.8454   73.6893    1.3664 H       1  UNL1        0.2105
     38 H          22.3202   76.0013    1.2736 H       1  UNL1        0.2105
     39 C          19.9987   71.3922   -1.4893 C.2     1  UNL1        0.2231
     40 C          19.0492   70.4428   -2.1742 C.3     1  UNL1        0.0946
     41 N          21.0900   70.9166   -0.8591 N.am    1  UNL1       -0.2994
     42 O          19.7800   72.5847   -1.5048 O.2     1  UNL1       -0.2751
     43 H          21.2652   69.9622   -0.8464 H       1  UNL1        0.1496
     44 C          24.4269   75.3326    0.2308 C.3     1  UNL1        0.1693
     45 O          25.0357   74.8400    1.4262 O.3     1  UNL1       -0.3794
     46 H          25.6590   75.5171    1.7222 H       1  UNL1        0.2105
@<TRIPOS>BOND
     1    29    30    1
     2    29    28    1
     3    29    36    1
     4    30    31    1
     5    30    41    1
     6    31    32    1
     7    31    34    1
     8    32    33    1
     9    32    35    1
    10    33    44    1
    11    33    36    1
    12    44    45    1
    13    39    40    1
    14    39    41   am
    15    39    42    2
    16    41    43    1
    17    28    25    1
    18    34    37    1
    19    35    38    1
    20    45    46    1
    21    15    16   ar
    22    15    20   ar
    23    15     6    1
    24    16    17   ar
    25    16    21    2
    26    17    18   ar
    27    17    23    1
    28    18    19   ar
    29    18    22    2
    30    19    20   ar
    31     6     7    1
    32     6    11    1
    33     7     8    1
    34     7     9    1
    35     8    13    1
    36     9    10    1
    37     9    12    1
    38    10    11    1
    39    10     5    1
    40    12    14    1
    41     5     4    1
    42     4     1    1
    43     1     2    2
    44     1     3    1
    45     1    24    1
    46    24    25    1
    47    25    26    2
    48    25    27    1
@<TRIPOS>MOLECULE
UD1
 46 48 0 0 0
SMALL
GASTEIGER

@<TRIPOS>ATOM
      1 P          21.5280   71.4036   -2.8496 P.3     1  UNL1        0.2189
      2 O          22.7989   70.6615   -3.0007 O.2     1  UNL1       -0.5170
      3 O          21.2264   71.6386   -1.2855 O.3     1  UNL1       -0.4371
      4 O          20.3286   70.5517   -3.5042 O.3     1  UNL1       -0.3112
      5 C          19.2012   70.6912   -2.6383 C.3     1  UNL1        0.1811
      6 C          17.3162   70.5523   -5.6969 C.3     1  UNL1        0.2383
      7 C          17.2070   69.1233   -5.1084 C.3     1  UNL1        0.1895
      8 O          15.9670   68.5147   -5.4706 O.3     1  UNL1       -0.3779
      9 C          17.2656   69.3942   -3.5825 C.3     1  UNL1        0.1713
     10 C          17.9235   70.7834   -3.4739 C.3     1  UNL1        0.1764
     11 O          18.2420   71.2134   -4.8084 O.3     1  UNL1       -0.3308
     12 O          15.9491   69.4121   -3.0266 O.3     1  UNL1       -0.3794
     13 H          15.9622   67.6319   -5.0754 H       1  UNL1        0.2106
     14 H          15.5698   68.5362   -3.1786 H       1  UNL1        0.2105
     15 N          17.8473   70.5135   -7.0599 N.ar    1  UNL1       -0.2551
     16 C          17.0019   70.4363   -8.1024 C.ar    1  UNL1        0.3323
     17 N          17.4622   70.4031   -9.3670 N.ar    1  UNL1       -0.2743
     18 C          18.7882   70.4376   -9.6086 C.ar    1  UNL1        0.2626
     19 C          19.6896   70.5128   -8.5201 C.ar    1  UNL1        0.0795
     20 C          19.2006   70.5502   -7.2620 C.ar    1  UNL1        0.0869
     21 O          15.8032   70.4044   -7.9007 O.2     1  UNL1       -0.2464
     22 O          19.2057   70.4028  -10.7514 O.2     1  UNL1       -0.2670
     23 H          16.8379   70.3522  -10.1072 H       1  UNL1        0.1734
     24 O          21.6447   72.8252   -3.5941 O.3     1  UNL1       -0.2703
     25 P          23.0795   72.8523   -4.3221 P.3     1  UNL1        0.2208
     26 O          22.9591   72.2577   -5.6715 O.2     1  UNL1       -0.5170
     27 O          24.1381   72.0038   -3.4551 O.3     1  UNL1       -0.4371
     28 O          23.5894   74.3735   -4.4496 O.3     1  UNL1       -0.2865
     29 C          22.5588   75.1012   -5.1202 C.3     1  UNL1        0.2611
     30 C          23.1786   75.9375   -6.2412 C.3     1  UNL1        0.1582
     31 C          24.2130   76.8950   -5.6390 C.3     1  UNL1        0.1625
     32 C          23.5433   77.6991   -4.5196 C.3     1  UNL1        0.1686
     33 C          22.8986   76.7297   -3.5267 C.3     1  UNL1        0.1760
     34 O          24.6900   77.7830   -6.6515 O.3     1  UNL1       -0.3801
     35 O          24.5243   78.4914   -3.8477 O.3     1  UNL1       -0.3794
     36 O          21.8990   75.9556   -4.1885 O.3     1  UNL1       -0.3263
     37 H          25.3368   78.3656   -6.2301 H       1  UNL1        0.2105
     38 H          24.0611   78.9795   -3.1521 H       1  UNL1        0.2105
     39 C          23.7616   75.3234   -8.5253 C.2     1  UNL1        0.2231
     40 C          24.4349   74.4125   -9.5199 C.3     1  UNL1        0.0946
     41 N          23.8328   75.0531   -7.2077 N.am    1  UNL1       -0.2994
     42 O          23.1550   76.2997   -8.9113 O.2     1  UNL1       -0.2751
     43 H          24.3181   74.2717   -6.8985 H       1  UNL1        0.1496
     44 C          22.2547   77.5220   -2.3871 C.3     1  UNL1        0.1693
     45 O          21.0177   78.0805   -2.8343 O.3     1  UNL1       -0.3794
     46 H          20.6460   78.5705   -2.0884 H       1  UNL1        0.2105
@<TRIPOS>BOND
     1    29    30    1
     2    29    28    1
     3    29    36    1
     4    30    31    1
     5    30    41    1
     6    31    32    1
     7    31    34    1
     8    32    33    1
     9    32    35    1
    10    33    44    1
    11    33    36    1
    12    44    45    1
    13    39    40    1
    14    39    41   am
    15    39    42    2
    16    41    43    1
    17    28    25    1
    18    34    37    1
    19    35    38    1
    20    45    46    1
    21    15    16   ar
    22    15    20   ar
    23    15     6    1
    24    16    17   ar
    25    16    21    2
    26    17    18   ar
    27    17    23    1
    28    18    19   ar
    29    18    22    2
    30    19    20   ar
    31     6     7    1
    32     6    11    1
    33     7     8    1
    34     7     9    1
    35     8    13    1
    36     9    10    1
    37     9    12    1
    38    10    11    1
    39    10     5    1
    40    12    14    1
    41     5     4    1
    42     4     1    1
    43     1     2    2
    44     1     3    1
    45     1    24    1
    46    24    25    1
    47    25    26    2
    48    25    27    1
@<TRIPOS>MOLECULE
UD1
 46 48 0 0 0
SMALL
GASTEIGER

@<TRIPOS>ATOM
      1 P          22.7056   71.9039   -3.0520 P.3     1  UNL1        0.2189
      2 O          23.8870   71.9065   -3.9425 O.2     1  UNL1       -0.5170
      3 O          23.1041   71.2543   -1.6336 O.3     1  UNL1       -0.4371
      4 O          21.5280   71.0371   -3.7262 O.3     1  UNL1       -0.3112
      5 C          20.5877   70.7416   -2.6924 C.3     1  UNL1        0.1811
      6 C          18.0673   70.6881   -5.2560 C.3     1  UNL1        0.2383
      7 C          17.9923   69.2826   -4.6085 C.3     1  UNL1        0.1895
      8 O          16.6637   68.7625   -4.6684 O.3     1  UNL1       -0.3779
      9 C          18.4059   69.5767   -3.1431 C.3     1  UNL1        0.1713
     10 C          19.1662   70.9142   -3.2299 C.3     1  UNL1        0.1764
     11 O          19.2103   71.2941   -4.6159 O.3     1  UNL1       -0.3308
     12 O          17.2496   69.7041   -2.3127 O.3     1  UNL1       -0.3794
     13 H          16.6853   67.8901   -4.2513 H       1  UNL1        0.2106
     14 H          16.7863   68.8566   -2.3472 H       1  UNL1        0.2105
     15 N          18.2794   70.5841   -6.7001 N.ar    1  UNL1       -0.2551
     16 C          17.2212   70.5614   -7.5290 C.ar    1  UNL1        0.3323
     17 N          17.3866   70.4703   -8.8619 N.ar    1  UNL1       -0.2743
     18 C          18.6251   70.3905   -9.3890 C.ar    1  UNL1        0.2626
     19 C          19.7477   70.4073   -8.5275 C.ar    1  UNL1        0.0795
     20 C          19.5533   70.5048   -7.1948 C.ar    1  UNL1        0.0869
     21 O          16.0979   70.6326   -7.0688 O.2     1  UNL1       -0.2464
     22 O          18.7756   70.3033  -10.5936 O.2     1  UNL1       -0.2670
     23 H          16.6122   70.4601   -9.4453 H       1  UNL1        0.1734
     24 O          22.1990   73.4146   -2.8280 O.3     1  UNL1       -0.2703
     25 P          23.4455   74.2394   -2.2321 P.3     1  UNL1        0.2208
     26 O          23.0556   75.6541   -2.0431 O.2     1  UNL1       -0.5170
     27 O          24.6839   74.1572   -3.2577 O.3     1  UNL1       -0.4371
     28 O          23.8803   73.6090   -0.8165 O.3     1  UNL1       -0.2865
     29 C          23.2371   74.3836    0.1972 C.3     1  UNL1        0.2611
     30 C          24.2884   74.9008    1.1807 C.3     1  UNL1        0.1582
     31 C          25.0270   73.7080    1.7982 C.3     1  UNL1        0.1625
     32 C          23.9934   72.7467    2.3945 C.3     1  UNL1        0.1686
     33 C          22.9659   72.3895    1.3183 C.3     1  UNL1        0.1760
     34 O          25.9060   74.1690    2.8259 O.3     1  UNL1       -0.3801
     35 O          24.6486   71.5594    2.8445 O.3     1  UNL1       -0.3794
     36 O          22.2902   73.5699    0.8862 O.3     1  UNL1       -0.3263
     37 H          26.3491   73.3882    3.1856 H       1  UNL1        0.2105
     38 H          23.9629   70.9832    3.2108 H       1  UNL1        0.2105
     39 C          25.6849   76.8923    1.0450 C.2     1  UNL1        0.2231
     40 C          26.6673   77.7723    0.3153 C.3     1  UNL1        0.0946
     41 N          25.2432   75.7559    0.4725 N.am    1  UNL1       -0.2994
     42 O          25.2912   77.2075    2.1477 O.2     1  UNL1       -0.2751
     43 H          25.5579   75.5035   -0.4101 H       1  UNL1        0.1496
     44 C          21.9472   71.4041    1.8946 C.3     1  UNL1        0.1693
     45 O          21.7630   70.3203    0.9816 O.3     1  UNL1       -0.3794
     46 H          21.1153   69.7244    1.3817 H       1  UNL1        0.2105
@<TRIPOS>BOND
     1    29    30    1
     2    29    28    1
     3    29    36    1
     4    30    31    1
     5    30    41    1
     6    31    32    1
     7    31    34    1
     8    32    33    1
     9    32    35    1
    10    33    44    1
    11    33    36    1
    12    44    45    1
    13    39    40    1
    14    39    41   am
    15    39    42    2
    16    41    43    1
    17    28    25    1
    18    34    37    1
    19    35    38    1
    20    45    46    1
    21    15    16   ar
    22    15    20   ar
    23    15     6    1
    24    16    17   ar
    25    16    21    2
    26    17    18   ar
    27    17    23    1
    28    18    19   ar
    29    18    22    2
    30    19    20   ar
    31     6     7    1
    32     6    11    1
    33     7     8    1
    34     7     9    1
    35     8    13    1
    36     9    10    1
    37     9    12    1
    38    10    11    1
    39    10     5    1
    40    12    14    1
    41     5     4    1
    42     4     1    1
    43     1     2    2
    44     1     3    1
    45     1    24    1
    46    24    25    1
    47    25    26    2
    48    25    27    1
@<TRIPOS>MOLECULE
UD1
 46 48 0 0 0
SMALL
GASTEIGER

@<TRIPOS>ATOM
      1 P          22.7207   71.0094    0.5200 P.3     1  UNL1        0.2189
      2 O          21.5651   70.2704    1.0743 O.2     1  UNL1       -0.5170
      3 O          24.0866   70.2833    0.9670 O.3     1  UNL1       -0.4371
      4 O          22.7092   72.5196    1.0786 O.3     1  UNL1       -0.3112
      5 C          22.0235   72.4923    2.3314 C.3     1  UNL1        0.1811
      6 C          24.7474   73.9570    4.1651 C.3     1  UNL1        0.2383
      7 C          23.4744   74.5193    4.8458 C.3     1  UNL1        0.1895
      8 O          23.7034   74.7660    6.2336 O.3     1  UNL1       -0.3779
      9 C          22.4615   73.3614    4.6493 C.3     1  UNL1        0.1713
     10 C          23.0406   72.5533    3.4720 C.3     1  UNL1        0.1764
     11 O          24.2303   73.2295    3.0307 O.3     1  UNL1       -0.3308
     12 O          22.3867   72.5568    5.8281 O.3     1  UNL1       -0.3794
     13 H          22.8769   75.1134    6.5965 H       1  UNL1        0.2106
     14 H          22.0759   73.1322    6.5398 H       1  UNL1        0.2105
     15 N          25.6242   75.0430    3.7256 N.ar    1  UNL1       -0.2551
     16 C          26.7831   75.2658    4.3697 C.ar    1  UNL1        0.3323
     17 N          27.6109   76.2552    3.9848 N.ar    1  UNL1       -0.2743
     18 C          27.2835   77.0493    2.9455 C.ar    1  UNL1        0.2626
     19 C          26.0638   76.8297    2.2623 C.ar    1  UNL1        0.0795
     20 C          25.2546   75.8269    2.6660 C.ar    1  UNL1        0.0869
     21 O          27.0923   74.5580    5.3088 O.2     1  UNL1       -0.2464
     22 O          28.0290   77.9472    2.5997 O.2     1  UNL1       -0.2670
     23 H          28.4451   76.3986    4.4578 H       1  UNL1        0.1734
     24 O          22.6238   71.0308   -1.0859 O.3     1  UNL1       -0.2703
     25 P          21.1426   71.5394   -1.4555 P.3     1  UNL1        0.2208
     26 O          21.0202   72.9779   -1.1324 O.2     1  UNL1       -0.5170
     27 O          20.0600   70.7050   -0.6047 O.3     1  UNL1       -0.4371
     28 O          20.8743   71.3178   -3.0270 O.3     1  UNL1       -0.2865
     29 C          20.0936   72.4275   -3.4747 C.3     1  UNL1        0.2611
     30 C          18.8418   71.9102   -4.1856 C.3     1  UNL1        0.1582
     31 C          19.2641   71.0330   -5.3695 C.3     1  UNL1        0.1625
     32 C          20.2313   71.8309   -6.2503 C.3     1  UNL1        0.1686
     33 C          21.3801   72.3516   -5.3840 C.3     1  UNL1        0.1760
     34 O          18.1109   70.6664   -6.1292 O.3     1  UNL1       -0.3801
     35 O          20.7511   70.9847   -7.2776 O.3     1  UNL1       -0.3794
     36 O          20.8672   73.2191   -4.3737 O.3     1  UNL1       -0.3263
     37 H          18.4219   70.1165   -6.8614 H       1  UNL1        0.2105
     38 H          21.3544   71.5254   -7.8068 H       1  UNL1        0.2105
     39 C          18.1650   69.7785   -3.2202 C.2     1  UNL1        0.2231
     40 C          17.3380   68.9645   -2.2580 C.3     1  UNL1        0.0946
     41 N          18.0390   71.1191   -3.2506 N.am    1  UNL1       -0.2994
     42 O          18.9435   69.2262   -3.9680 O.2     1  UNL1       -0.2751
     43 H          17.4159   71.5613   -2.6525 H       1  UNL1        0.1496
     44 C          22.3691   73.1228   -6.2605 C.3     1  UNL1        0.1693
     45 O          23.1544   72.2003   -7.0184 O.3     1  UNL1       -0.3794
     46 H          23.7629   72.7258   -7.5552 H       1  UNL1        0.2105
@<TRIPOS>BOND
     1    29    30    1
     2    29    28    1
     3    29    36    1
     4    30    31    1
     5    30    41    1
     6    31    32    1
     7    31    34    1
     8    32    33    1
     9    32    35    1
    10    33    44    1
    11    33    36    1
    12    44    45    1
    13    39    40    1
    14    39    41   am
    15    39    42    2
    16    41    43    1
    17    28    25    1
    18    34    37    1
    19    35    38    1
    20    45    46    1
    21    15    16   ar
    22    15    20   ar
    23    15     6    1
    24    16    17   ar
    25    16    21    2
    26    17    18   ar
    27    17    23    1
    28    18    19   ar
    29    18    22    2
    30    19    20   ar
    31     6     7    1
    32     6    11    1
    33     7     8    1
    34     7     9    1
    35     8    13    1
    36     9    10    1
    37     9    12    1
    38    10    11    1
    39    10     5    1
    40    12    14    1
    41     5     4    1
    42     4     1    1
    43     1     2    2
    44     1     3    1
    45     1    24    1
    46    24    25    1
    47    25    26    2
    48    25    27    1
