@<TRIPOS>MOLECULE
*****
 43 45 0 0 0
SMALL
GASTEIGER

@<TRIPOS>ATOM
      1 P          22.9617   71.6629   -2.8536 P.3     1  UNL1        0.2189
      2 O          23.7784   72.9770   -3.3280 O.co2   1  UNL1       -0.4371
      3 O          23.5995   70.3545   -3.2185 O.2     1  UNL1       -0.5170
      4 O          21.4698   71.9028   -3.4322 O.3     1  UNL1       -0.3112
      5 C          20.5928   70.7949   -3.5208 C.3     1  UNL1        0.1811
      6 O          18.7693   71.8951   -4.6352 O.3     1  UNL1       -0.3308
      7 O          17.0089   70.7294   -2.5060 O.3     1  UNL1       -0.3794
      8 O          16.5767   69.0585   -4.6173 O.3     1  UNL1       -0.3779
      9 C          18.1579   70.1646   -3.1379 C.3     1  UNL1        0.1713
     10 C          17.8190   69.7266   -4.5470 C.3     1  UNL1        0.1895
     11 C          19.1574   71.2863   -3.3846 C.3     1  UNL1        0.1764
     12 C          17.8154   71.0484   -5.2958 C.3     1  UNL1        0.2383
     13 H          16.3559   70.0315   -2.3383 H       1  UNL1        0.2105
     14 H          16.6305   68.2233   -4.1258 H       1  UNL1        0.2106
     15 O          16.0272   70.4112   -7.3870 O.2     1  UNL1       -0.2464
     16 O          19.3908   70.5031  -10.5369 O.2     1  UNL1       -0.2670
     17 N          18.1971   70.8997   -6.6717 N.ar    1  UNL1       -0.2551
     18 N          17.7043   70.4566   -8.9536 N.ar    1  UNL1       -0.2743
     19 C          17.2209   70.5781   -7.6442 C.ar    1  UNL1        0.3323
     20 C          19.5239   71.0736   -7.0461 C.ar    1  UNL1        0.0869
     21 C          19.9696   70.9546   -8.2983 C.ar    1  UNL1        0.0795
     22 C          19.0143   70.6195   -9.3746 C.ar    1  UNL1        0.2626
     23 H          17.0437   70.2311   -9.6479 H       1  UNL1        0.1734
     24 O          22.7786   71.9030   -1.2657 O.3     1  UNL1       -0.2703
     25 P          22.4380   70.8714   -0.0685 P.3     1  UNL1        0.2208
     26 O          23.6871   69.8423   -0.1004 O.co2   1  UNL1       -0.4371
     27 O          21.0928   70.2150   -0.1853 O.2     1  UNL1       -0.5170
     28 O          22.6502   71.7275    1.2823 O.3     1  UNL1       -0.2858
     29 O          21.8331   72.4596    3.3813 O.3     1  UNL1       -0.3226
     30 O          21.2382   75.8066    1.0336 O.3     1  UNL1       -0.3794
     31 O          20.6306   73.1437   -0.0029 O.3     1  UNL1       -0.3775
     32 O          23.4374   75.7289    2.9331 O.3     1  UNL1       -0.3792
     33 C          21.8949   74.6120    1.4572 C.3     1  UNL1        0.1718
     34 C          20.9265   73.4330    1.3585 C.3     1  UNL1        0.1968
     35 C          22.3474   74.8093    2.9057 C.3     1  UNL1        0.1723
     36 C          21.5157   72.1845    2.0163 C.3     1  UNL1        0.2706
     37 C          22.8030   73.4940    3.5311 C.3     1  UNL1        0.1830
     38 H          20.9417   75.7046    0.1154 H       1  UNL1        0.2105
     39 H          20.2567   73.9317   -0.4266 H       1  UNL1        0.2106
     40 H          23.1606   76.5702    2.5378 H       1  UNL1        0.2106
     41 O          22.0552   72.7981    5.6425 O.co2   1  UNL1       -0.5466
     42 O          23.7029   74.3734    5.5898 O.co2   1  UNL1       -0.5466
     43 C          22.9260   73.6263    5.0142 C.2     1  UNL1        0.0799
@<TRIPOS>UNITY_ATOM_ATTR
2 1
charge -1
26 1
charge -1
41 1
charge -1
@<TRIPOS>BOND
     1     1     4    1
     2     1    24    1
     3     1     2    1
     4     1     3    2
     5    25    28    1
     6    25    24    1
     7    25    26    1
     8    25    27    2
     9     6    11    1
    10     6    12    1
    11    29    36    1
    12    29    37    1
    13     7     9    1
    14     7    13    1
    15     8    10    1
    16     8    14    1
    17     4     5    1
    18    28    36    1
    19    30    33    1
    20    30    38    1
    21    31    34    1
    22    31    39    1
    23    32    35    1
    24    32    40    1
    25    41    43   ar
    26    15    19    2
    27    42    43   ar
    28    16    22    2
    29    17    12    1
    30    17    19   ar
    31    17    20   ar
    32    18    19   ar
    33    18    22   ar
    34    18    23    1
    35     9    10    1
    36     9    11    1
    37    10    12    1
    38    11     5    1
    39    33    34    1
    40    33    35    1
    41    34    36    1
    42    35    37    1
    43    37    43    1
    44    20    21   ar
    45    21    22   ar
@<TRIPOS>MOLECULE
*****
 43 45 0 0 0
SMALL
GASTEIGER

@<TRIPOS>ATOM
      1 P          21.8955   73.9491   -5.8921 P.3     1  UNL1        0.2189
      2 O          21.5724   75.0536   -4.7543 O.co2   1  UNL1       -0.4371
      3 O          22.9303   74.3598   -6.8981 O.2     1  UNL1       -0.5170
      4 O          20.4410   73.5739   -6.4934 O.3     1  UNL1       -0.3112
      5 C          19.9422   74.3326   -7.5797 C.3     1  UNL1        0.1811
      6 O          19.6060   72.0322   -8.1899 O.3     1  UNL1       -0.3308
      7 O          17.9016   73.0688  -10.4287 O.3     1  UNL1       -0.3794
      8 O          16.0515   72.2840   -8.5855 O.3     1  UNL1       -0.3779
      9 C          18.0504   73.5694   -9.0998 C.3     1  UNL1        0.1713
     10 C          17.3261   72.6730   -8.1179 C.3     1  UNL1        0.1895
     11 C          19.5044   73.3838   -8.6880 C.3     1  UNL1        0.1764
     12 C          18.2857   71.5018   -7.9931 C.3     1  UNL1        0.2383
     13 H          16.9804   73.1766  -10.7139 H       1  UNL1        0.2105
     14 H          15.4779   73.0644   -8.6474 H       1  UNL1        0.2106
     15 O          16.0677   70.0357   -7.0403 O.2     1  UNL1       -0.2464
     16 O          18.1499   69.1443   -3.0261 O.2     1  UNL1       -0.2670
     17 N          18.2215   70.8759   -6.7027 N.ar    1  UNL1       -0.2551
     18 N          17.1065   69.5940   -5.0415 N.ar    1  UNL1       -0.2743
     19 C          17.0605   70.1628   -6.3211 C.ar    1  UNL1        0.3323
     20 C          19.3001   70.9701   -5.8317 C.ar    1  UNL1        0.0869
     21 C          19.3293   70.4225   -4.6152 C.ar    1  UNL1        0.0795
     22 C          18.1558   69.6611   -4.1392 C.ar    1  UNL1        0.2626
     23 H          16.3089   69.0943   -4.7527 H       1  UNL1        0.1734
     24 O          22.2801   72.6389   -5.0271 O.3     1  UNL1       -0.2703
     25 P          23.1435   72.4790   -3.6696 P.3     1  UNL1        0.2208
     26 O          24.3326   73.5610   -3.8581 O.co2   1  UNL1       -0.4371
     27 O          23.6174   71.0797   -3.4024 O.2     1  UNL1       -0.5170
     28 O          22.2066   73.1009   -2.5130 O.3     1  UNL1       -0.2858
     29 O          21.5405   71.1990   -1.2686 O.3     1  UNL1       -0.3226
     30 O          20.0361   74.2804    1.0357 O.3     1  UNL1       -0.3794
     31 O          19.8110   74.3624   -1.8759 O.3     1  UNL1       -0.3775
     32 O          22.4343   72.8676    1.8745 O.3     1  UNL1       -0.3792
     33 C          20.9533   73.6492    0.1422 C.3     1  UNL1        0.1718
     34 C          20.2181   73.2221   -1.1284 C.3     1  UNL1        0.1968
     35 C          21.5412   72.4280    0.8529 C.3     1  UNL1        0.1723
     36 C          21.1093   72.3429   -2.0069 C.3     1  UNL1        0.2706
     37 C          22.3107   71.5359   -0.1169 C.3     1  UNL1        0.1830
     38 H          19.6497   75.0595    0.6055 H       1  UNL1        0.2105
     39 H          19.2454   74.9248   -1.3244 H       1  UNL1        0.2106
     40 H          21.9570   73.4366    2.4984 H       1  UNL1        0.2106
     41 O          21.4660   69.4542    0.5572 O.co2   1  UNL1       -0.5466
     42 O          23.6890   69.8332    0.8942 O.co2   1  UNL1       -0.5466
     43 C          22.5942   70.2042    0.4983 C.2     1  UNL1        0.0799
@<TRIPOS>UNITY_ATOM_ATTR
2 1
charge -1
26 1
charge -1
41 1
charge -1
@<TRIPOS>BOND
     1     1     4    1
     2     1    24    1
     3     1     2    1
     4     1     3    2
     5    25    28    1
     6    25    24    1
     7    25    26    1
     8    25    27    2
     9     6    11    1
    10     6    12    1
    11    29    36    1
    12    29    37    1
    13     7     9    1
    14     7    13    1
    15     8    10    1
    16     8    14    1
    17     4     5    1
    18    28    36    1
    19    30    33    1
    20    30    38    1
    21    31    34    1
    22    31    39    1
    23    32    35    1
    24    32    40    1
    25    41    43   ar
    26    15    19    2
    27    42    43   ar
    28    16    22    2
    29    17    12    1
    30    17    19   ar
    31    17    20   ar
    32    18    19   ar
    33    18    22   ar
    34    18    23    1
    35     9    10    1
    36     9    11    1
    37    10    12    1
    38    11     5    1
    39    33    34    1
    40    33    35    1
    41    34    36    1
    42    35    37    1
    43    37    43    1
    44    20    21   ar
    45    21    22   ar
@<TRIPOS>MOLECULE
*****
 43 45 0 0 0
SMALL
GASTEIGER

@<TRIPOS>ATOM
      1 P          22.8109   71.6761   -2.2406 P.3     1  UNL1        0.2189
      2 O          23.3513   73.1952   -2.3791 O.co2   1  UNL1       -0.4371
      3 O          23.4290   70.6945   -3.1926 O.2     1  UNL1       -0.5170
      4 O          21.2025   71.8260   -2.3319 O.3     1  UNL1       -0.3112
      5 C          20.5552   71.4473   -3.5328 C.3     1  UNL1        0.1811
      6 O          18.6113   72.2356   -4.7064 O.3     1  UNL1       -0.3308
      7 O          17.0061   71.0205   -2.4842 O.3     1  UNL1       -0.3794
      8 O          16.7799   69.1627   -4.4675 O.3     1  UNL1       -0.3779
      9 C          18.2151   70.5554   -3.0845 C.3     1  UNL1        0.1713
     10 C          17.9318   69.9797   -4.4559 C.3     1  UNL1        0.1895
     11 C          19.0708   71.7695   -3.4192 C.3     1  UNL1        0.1764
     12 C          17.7674   71.2343   -5.2967 C.3     1  UNL1        0.2383
     13 H          16.4428   70.2623   -2.2615 H       1  UNL1        0.2105
     14 H          16.9349   68.3775   -3.9185 H       1  UNL1        0.2106
     15 O          16.0361   70.3577   -7.3487 O.2     1  UNL1       -0.2464
     16 O          19.3983   70.5042  -10.4981 O.2     1  UNL1       -0.2670
     17 N          18.1641   71.0349   -6.6619 N.ar    1  UNL1       -0.2551
     18 N          17.7126   70.4305   -8.9151 N.ar    1  UNL1       -0.2743
     19 C          17.2165   70.5920   -7.6148 C.ar    1  UNL1        0.3323
     20 C          19.4773   71.2788   -7.0452 C.ar    1  UNL1        0.0869
     21 C          19.9353   71.1204   -8.2886 C.ar    1  UNL1        0.0795
     22 C          19.0098   70.6597   -9.3443 C.ar    1  UNL1        0.2626
     23 H          17.0719   70.1210   -9.5956 H       1  UNL1        0.1734
     24 O          23.0569   71.3446   -0.6777 O.3     1  UNL1       -0.2703
     25 P          22.1446   70.5507    0.3952 P.3     1  UNL1        0.2208
     26 O          23.2331   69.9385    1.4251 O.co2   1  UNL1       -0.4371
     27 O          21.2262   69.5304   -0.2126 O.2     1  UNL1       -0.5170
     28 O          21.3974   71.7089    1.2335 O.3     1  UNL1       -0.2858
     29 O          21.9278   74.0170    1.2582 O.3     1  UNL1       -0.3226
     30 O          20.2264   73.5056    4.9880 O.3     1  UNL1       -0.3794
     31 O          22.0833   71.5180    3.9222 O.3     1  UNL1       -0.3775
     32 O          18.7220   74.7982    2.8628 O.3     1  UNL1       -0.3792
     33 C          20.4165   73.2505    3.5963 C.3     1  UNL1        0.1718
     34 C          21.8571   72.8012    3.3505 C.3     1  UNL1        0.1968
     35 C          20.1254   74.5452    2.8342 C.3     1  UNL1        0.1723
     36 C          22.1633   72.7404    1.8534 C.3     1  UNL1        0.2706
     37 C          20.5740   74.4479    1.3789 C.3     1  UNL1        0.1830
     38 H          20.4059   72.6966    5.4926 H       1  UNL1        0.2105
     39 H          21.8907   71.5492    4.8721 H       1  UNL1        0.2106
     40 H          18.4237   74.8623    3.7835 H       1  UNL1        0.2106
     41 O          21.4388   75.8124   -0.3216 O.co2   1  UNL1       -0.5466
     42 O          19.9383   76.7598    1.1101 O.co2   1  UNL1       -0.5466
     43 C          20.5931   75.7975    0.7383 C.2     1  UNL1        0.0799
@<TRIPOS>UNITY_ATOM_ATTR
2 1
charge -1
26 1
charge -1
41 1
charge -1
@<TRIPOS>BOND
     1     1     4    1
     2     1    24    1
     3     1     2    1
     4     1     3    2
     5    25    28    1
     6    25    24    1
     7    25    26    1
     8    25    27    2
     9     6    11    1
    10     6    12    1
    11    29    36    1
    12    29    37    1
    13     7     9    1
    14     7    13    1
    15     8    10    1
    16     8    14    1
    17     4     5    1
    18    28    36    1
    19    30    33    1
    20    30    38    1
    21    31    34    1
    22    31    39    1
    23    32    35    1
    24    32    40    1
    25    41    43   ar
    26    15    19    2
    27    42    43   ar
    28    16    22    2
    29    17    12    1
    30    17    19   ar
    31    17    20   ar
    32    18    19   ar
    33    18    22   ar
    34    18    23    1
    35     9    10    1
    36     9    11    1
    37    10    12    1
    38    11     5    1
    39    33    34    1
    40    33    35    1
    41    34    36    1
    42    35    37    1
    43    37    43    1
    44    20    21   ar
    45    21    22   ar
@<TRIPOS>MOLECULE
*****
 43 45 0 0 0
SMALL
GASTEIGER

@<TRIPOS>ATOM
      1 P          22.8571   72.2334   -3.2802 P.3     1  UNL1        0.2189
      2 O          23.8361   72.9154   -4.3735 O.co2   1  UNL1       -0.4371
      3 O          23.5025   71.1913   -2.4146 O.2     1  UNL1       -0.5170
      4 O          21.5883   71.7353   -4.1519 O.3     1  UNL1       -0.3112
      5 C          20.7644   70.7125   -3.6232 C.3     1  UNL1        0.1811
      6 O          18.9454   71.8745   -4.6809 O.3     1  UNL1       -0.3308
      7 O          17.2170   70.7820   -2.4876 O.3     1  UNL1       -0.3794
      8 O          16.6528   69.1200   -4.5747 O.3     1  UNL1       -0.3779
      9 C          18.3225   70.1731   -3.1551 C.3     1  UNL1        0.1713
     10 C          17.9203   69.7425   -4.5497 C.3     1  UNL1        0.1895
     11 C          19.3533   71.2566   -3.4411 C.3     1  UNL1        0.1764
     12 C          17.9394   71.0606   -5.3047 C.3     1  UNL1        0.2383
     13 H          16.5450   70.1091   -2.2944 H       1  UNL1        0.2105
     14 H          16.6928   68.2853   -4.0811 H       1  UNL1        0.2106
     15 O          16.0630   70.4556   -7.3270 O.2     1  UNL1       -0.2464
     16 O          19.3149   70.4396  -10.5933 O.2     1  UNL1       -0.2670
     17 N          18.2685   70.8929   -6.6919 N.ar    1  UNL1       -0.2551
     18 N          17.6846   70.4472   -8.9517 N.ar    1  UNL1       -0.2743
     19 C          17.2508   70.5900   -7.6271 C.ar    1  UNL1        0.3323
     20 C          19.5853   71.0300   -7.1138 C.ar    1  UNL1        0.0869
     21 C          19.9835   70.8911   -8.3799 C.ar    1  UNL1        0.0795
     22 C          18.9826   70.5735   -9.4195 C.ar    1  UNL1        0.2626
     23 H          16.9943   70.2342   -9.6206 H       1  UNL1        0.1734
     24 O          22.2684   73.5062   -2.4762 O.3     1  UNL1       -0.2703
     25 P          23.0000   74.5973   -1.5338 P.3     1  UNL1        0.2208
     26 O          22.5006   76.0097   -2.1470 O.co2   1  UNL1       -0.4371
     27 O          24.4920   74.4473   -1.4620 O.2     1  UNL1       -0.5170
     28 O          22.2462   74.4812   -0.1123 O.3     1  UNL1       -0.2858
     29 O          21.3373   72.2960   -0.0241 O.3     1  UNL1       -0.3226
     30 O          20.2855   73.7940    3.6796 O.3     1  UNL1       -0.3794
     31 O          20.0500   75.4560    1.2887 O.3     1  UNL1       -0.3775
     32 O          22.4755   71.8972    3.4411 O.3     1  UNL1       -0.3792
     33 C          21.1008   73.6469    2.5171 C.3     1  UNL1        0.1718
     34 C          20.3040   74.0560    1.2780 C.3     1  UNL1        0.1968
     35 C          21.5226   72.1792    2.4179 C.3     1  UNL1        0.1723
     36 C          21.0600   73.6967   -0.0019 C.3     1  UNL1        0.2706
     37 C          22.1555   71.8717    1.0639 C.3     1  UNL1        0.1830
     38 H          20.0053   74.7190    3.7633 H       1  UNL1        0.2105
     39 H          19.5708   75.6911    2.0983 H       1  UNL1        0.2106
     40 H          22.0852   72.0889    4.3082 H       1  UNL1        0.2106
     41 O          21.2595   69.9576    0.0465 O.co2   1  UNL1       -0.5466
     42 O          23.1255   69.6782    1.3268 O.co2   1  UNL1       -0.5466
     43 C          22.2600   70.3967    0.8498 C.2     1  UNL1        0.0799
@<TRIPOS>UNITY_ATOM_ATTR
2 1
charge -1
26 1
charge -1
41 1
charge -1
@<TRIPOS>BOND
     1     1     4    1
     2     1    24    1
     3     1     2    1
     4     1     3    2
     5    25    28    1
     6    25    24    1
     7    25    26    1
     8    25    27    2
     9     6    11    1
    10     6    12    1
    11    29    36    1
    12    29    37    1
    13     7     9    1
    14     7    13    1
    15     8    10    1
    16     8    14    1
    17     4     5    1
    18    28    36    1
    19    30    33    1
    20    30    38    1
    21    31    34    1
    22    31    39    1
    23    32    35    1
    24    32    40    1
    25    41    43   ar
    26    15    19    2
    27    42    43   ar
    28    16    22    2
    29    17    12    1
    30    17    19   ar
    31    17    20   ar
    32    18    19   ar
    33    18    22   ar
    34    18    23    1
    35     9    10    1
    36     9    11    1
    37    10    12    1
    38    11     5    1
    39    33    34    1
    40    33    35    1
    41    34    36    1
    42    35    37    1
    43    37    43    1
    44    20    21   ar
    45    21    22   ar
@<TRIPOS>MOLECULE
*****
 43 45 0 0 0
SMALL
GASTEIGER

@<TRIPOS>ATOM
      1 P          22.1198   70.9321   -1.5787 P.3     1  UNL1        0.2189
      2 O          23.4866   70.7465   -2.4250 O.co2   1  UNL1       -0.4371
      3 O          21.4329   69.6540   -1.1961 O.2     1  UNL1       -0.5170
      4 O          21.2457   71.9591   -2.4727 O.3     1  UNL1       -0.3112
      5 C          20.5661   71.4570   -3.6087 C.3     1  UNL1        0.1811
      6 O          18.6174   72.2434   -4.7757 O.3     1  UNL1       -0.3308
      7 O          17.0230   71.0611   -2.5282 O.3     1  UNL1       -0.3794
      8 O          16.7713   69.1834   -4.4895 O.3     1  UNL1       -0.3779
      9 C          18.2248   70.5829   -3.1327 C.3     1  UNL1        0.1713
     10 C          17.9276   69.9941   -4.4956 C.3     1  UNL1        0.1895
     11 C          19.0844   71.7887   -3.4871 C.3     1  UNL1        0.1764
     12 C          17.7635   71.2405   -5.3486 C.3     1  UNL1        0.2383
     13 H          16.4573   70.3085   -2.2930 H       1  UNL1        0.2105
     14 H          16.9263   68.4033   -3.9332 H       1  UNL1        0.2106
     15 O          16.0220   70.3103   -7.3681 O.2     1  UNL1       -0.2464
     16 O          19.3492   70.4475  -10.5547 O.2     1  UNL1       -0.2670
     17 N          18.1484   71.0242   -6.7146 N.ar    1  UNL1       -0.2551
     18 N          17.6811   70.3785   -8.9531 N.ar    1  UNL1       -0.2743
     19 C          17.1965   70.5547   -7.6503 C.ar    1  UNL1        0.3323
     20 C          19.4545   71.2779   -7.1156 C.ar    1  UNL1        0.0869
     21 C          19.9015   71.1053   -8.3611 C.ar    1  UNL1        0.0795
     22 C          18.9709   70.6166   -9.3996 C.ar    1  UNL1        0.2626
     23 H          17.0372   70.0504   -9.6218 H       1  UNL1        0.1734
     24 O          22.5875   71.8451   -0.3295 O.3     1  UNL1       -0.2703
     25 P          21.7296   72.5931    0.8186 P.3     1  UNL1        0.2208
     26 O          21.1735   71.3696    1.7209 O.co2   1  UNL1       -0.4371
     27 O          20.6621   73.5081    0.2919 O.2     1  UNL1       -0.5170
     28 O          22.8323   73.3160    1.7480 O.3     1  UNL1       -0.2858
     29 O          21.3754   74.5622    3.1385 O.3     1  UNL1       -0.3226
     30 O          24.9317   74.7900    5.2286 O.3     1  UNL1       -0.3794
     31 O          24.9007   75.0847    2.3223 O.3     1  UNL1       -0.3775
     32 O          22.8163   73.0151    6.1372 O.3     1  UNL1       -0.3792
     33 C          23.9597   74.1906    4.3720 C.3     1  UNL1        0.1718
     34 C          23.7408   75.0781    3.1465 C.3     1  UNL1        0.1968
     35 C          22.6578   74.0449    5.1631 C.3     1  UNL1        0.1723
     36 C          22.5478   74.5898    2.3235 C.3     1  UNL1        0.2706
     37 C          21.4901   73.6786    4.2516 C.3     1  UNL1        0.1830
     38 H          25.7678   74.8927    4.7473 H       1  UNL1        0.2105
     39 H          25.6616   75.3932    2.8382 H       1  UNL1        0.2106
     40 H          23.5566   73.2359    6.7237 H       1  UNL1        0.2106
     41 O          20.3869   74.0581    6.2864 O.co2   1  UNL1       -0.5466
     42 O          19.0888   73.8375    4.4249 O.co2   1  UNL1       -0.5466
     43 C          20.1871   73.8602    4.9598 C.2     1  UNL1        0.0799
@<TRIPOS>UNITY_ATOM_ATTR
2 1
charge -1
26 1
charge -1
41 1
charge -1
@<TRIPOS>BOND
     1     1     4    1
     2     1    24    1
     3     1     2    1
     4     1     3    2
     5    25    28    1
     6    25    24    1
     7    25    26    1
     8    25    27    2
     9     6    11    1
    10     6    12    1
    11    29    36    1
    12    29    37    1
    13     7     9    1
    14     7    13    1
    15     8    10    1
    16     8    14    1
    17     4     5    1
    18    28    36    1
    19    30    33    1
    20    30    38    1
    21    31    34    1
    22    31    39    1
    23    32    35    1
    24    32    40    1
    25    41    43   ar
    26    15    19    2
    27    42    43   ar
    28    16    22    2
    29    17    12    1
    30    17    19   ar
    31    17    20   ar
    32    18    19   ar
    33    18    22   ar
    34    18    23    1
    35     9    10    1
    36     9    11    1
    37    10    12    1
    38    11     5    1
    39    33    34    1
    40    33    35    1
    41    34    36    1
    42    35    37    1
    43    37    43    1
    44    20    21   ar
    45    21    22   ar
@<TRIPOS>MOLECULE
*****
 43 45 0 0 0
SMALL
GASTEIGER

@<TRIPOS>ATOM
      1 P          21.2865   75.0657   -6.5408 P.3     1  UNL1        0.2189
      2 O          21.0465   76.3778   -7.4571 O.co2   1  UNL1       -0.4371
      3 O          22.7207   74.7834   -6.2018 O.2     1  UNL1       -0.5170
      4 O          20.5074   73.8902   -7.3339 O.3     1  UNL1       -0.3112
      5 C          21.2688   72.8499   -7.9192 C.3     1  UNL1        0.1811
      6 O          19.9889   70.8301   -8.1642 O.3     1  UNL1       -0.3308
      7 O          18.5925   72.2104  -10.4305 O.3     1  UNL1       -0.3794
      8 O          16.8003   72.4536   -8.3897 O.3     1  UNL1       -0.3779
      9 C          19.0730   72.7531   -9.2004 C.3     1  UNL1        0.1713
     10 C          18.1685   72.3428   -8.0577 C.3     1  UNL1        0.1895
     11 C          20.3727   72.0421   -8.8491 C.3     1  UNL1        0.1764
     12 C          18.5972   70.9054   -7.8167 C.3     1  UNL1        0.2383
     13 H          17.7624   72.6493  -10.6756 H       1  UNL1        0.2105
     14 H          16.5770   73.3872   -8.5331 H       1  UNL1        0.2106
     15 O          16.1936   69.9101   -6.7174 O.2     1  UNL1       -0.2464
     16 O          18.0933   69.4112   -2.5478 O.2     1  UNL1       -0.2670
     17 N          18.4358   70.5079   -6.4467 N.ar    1  UNL1       -0.2551
     18 N          17.1417   69.6635   -4.6415 N.ar    1  UNL1       -0.2743
     19 C          17.1862   70.0213   -5.9955 C.ar    1  UNL1        0.3323
     20 C          19.5075   70.6001   -5.5669 C.ar    1  UNL1        0.0869
     21 C          19.4499   70.2552   -4.2791 C.ar    1  UNL1        0.0795
     22 C          18.1804   69.7380   -3.7276 C.ar    1  UNL1        0.2626
     23 H          16.2816   69.3239   -4.3037 H       1  UNL1        0.1734
     24 O          20.3333   75.3359   -5.2635 O.3     1  UNL1       -0.2703
     25 P          20.6566   75.3387   -3.6795 P.3     1  UNL1        0.2208
     26 O          19.1892   75.2465   -3.0023 O.co2   1  UNL1       -0.4371
     27 O          21.4771   76.5092   -3.2205 O.2     1  UNL1       -0.5170
     28 O          21.3270   73.8989   -3.3961 O.3     1  UNL1       -0.2858
     29 O          22.1039   73.5079   -1.1932 O.3     1  UNL1       -0.3226
     30 O          23.8115   70.3630   -3.2576 O.3     1  UNL1       -0.3794
     31 O          23.7704   73.0453   -4.4143 O.3     1  UNL1       -0.3775
     32 O          21.4999   69.9070   -1.5548 O.3     1  UNL1       -0.3792
     33 C          22.8168   71.3456   -2.9693 C.3     1  UNL1        0.1718
     34 C          23.4333   72.7414   -3.0657 C.3     1  UNL1        0.1968
     35 C          22.2963   71.0903   -1.5531 C.3     1  UNL1        0.1723
     36 C          22.4659   73.8041   -2.5426 C.3     1  UNL1        0.2706
     37 C          21.4418   72.2526   -1.0557 C.3     1  UNL1        0.1830
     38 H          24.1570   70.5053   -4.1529 H       1  UNL1        0.2105
     39 H          24.3839   72.3748   -4.7527 H       1  UNL1        0.2106
     40 H          22.0320   69.1596   -1.8695 H       1  UNL1        0.2106
     41 O          20.8729   73.3590    0.9327 O.co2   1  UNL1       -0.5466
     42 O          21.3207   71.1278    1.0754 O.co2   1  UNL1       -0.5466
     43 C          21.2157   72.1523    0.4178 C.2     1  UNL1        0.0799
@<TRIPOS>UNITY_ATOM_ATTR
2 1
charge -1
26 1
charge -1
41 1
charge -1
@<TRIPOS>BOND
     1     1     4    1
     2     1    24    1
     3     1     2    1
     4     1     3    2
     5    25    28    1
     6    25    24    1
     7    25    26    1
     8    25    27    2
     9     6    11    1
    10     6    12    1
    11    29    36    1
    12    29    37    1
    13     7     9    1
    14     7    13    1
    15     8    10    1
    16     8    14    1
    17     4     5    1
    18    28    36    1
    19    30    33    1
    20    30    38    1
    21    31    34    1
    22    31    39    1
    23    32    35    1
    24    32    40    1
    25    41    43   ar
    26    15    19    2
    27    42    43   ar
    28    16    22    2
    29    17    12    1
    30    17    19   ar
    31    17    20   ar
    32    18    19   ar
    33    18    22   ar
    34    18    23    1
    35     9    10    1
    36     9    11    1
    37    10    12    1
    38    11     5    1
    39    33    34    1
    40    33    35    1
    41    34    36    1
    42    35    37    1
    43    37    43    1
    44    20    21   ar
    45    21    22   ar
@<TRIPOS>MOLECULE
*****
 43 45 0 0 0
SMALL
GASTEIGER

@<TRIPOS>ATOM
      1 P          22.3083   73.7612   -4.4518 P.3     1  UNL1        0.2189
      2 O          22.2279   74.8813   -5.6170 O.co2   1  UNL1       -0.4371
      3 O          23.1513   72.5642   -4.7807 O.2     1  UNL1       -0.5170
      4 O          20.7591   73.4544   -4.1002 O.3     1  UNL1       -0.3112
      5 C          20.4060   72.1478   -3.6849 C.3     1  UNL1        0.1811
      6 O          18.2904   72.3065   -4.8149 O.3     1  UNL1       -0.3308
      7 O          17.1320   70.8652   -2.4544 O.3     1  UNL1       -0.3794
      8 O          17.3592   68.8811   -4.3113 O.3     1  UNL1       -0.3779
      9 C          18.4047   70.6983   -3.0796 C.3     1  UNL1        0.1713
     10 C          18.2491   69.9742   -4.4001 C.3     1  UNL1        0.1895
     11 C          18.8932   72.0701   -3.5241 C.3     1  UNL1        0.1764
     12 C          17.7307   71.0781   -5.3060 C.3     1  UNL1        0.2383
     13 H          16.7994   70.0017   -2.1618 H       1  UNL1        0.2105
     14 H          17.7344   68.2057   -3.7239 H       1  UNL1        0.2106
     15 O          15.9667   70.3985   -7.4042 O.2     1  UNL1       -0.2464
     16 O          19.3693   70.4098  -10.5133 O.2     1  UNL1       -0.2670
     17 N          18.1290   70.8972   -6.6733 N.ar    1  UNL1       -0.2551
     18 N          17.6632   70.4038   -8.9505 N.ar    1  UNL1       -0.2743
     19 C          17.1639   70.5563   -7.6503 C.ar    1  UNL1        0.3323
     20 C          19.4609   71.0589   -7.0349 C.ar    1  UNL1        0.0869
     21 C          19.9217   70.9104   -8.2785 C.ar    1  UNL1        0.0795
     22 C          18.9787   70.5535   -9.3587 C.ar    1  UNL1        0.2626
     23 H          17.0105   70.1644   -9.6477 H       1  UNL1        0.1734
     24 O          22.8113   74.6071   -3.1694 O.3     1  UNL1       -0.2703
     25 P          22.0212   75.1040   -1.8494 P.3     1  UNL1        0.2208
     26 O          20.5290   75.4019   -2.4017 O.co2   1  UNL1       -0.4371
     27 O          22.6641   76.2651   -1.1476 O.2     1  UNL1       -0.5170
     28 O          21.8631   73.7784   -0.9437 O.3     1  UNL1       -0.2858
     29 O          23.3290   73.6568    0.9125 O.3     1  UNL1       -0.3226
     30 O          21.7310   69.8475    0.8523 O.3     1  UNL1       -0.3794
     31 O          22.5144   71.1642   -1.6351 O.3     1  UNL1       -0.3775
     32 O          20.8347   71.7747    2.8356 O.3     1  UNL1       -0.3792
     33 C          21.7351   71.2622    0.6604 C.3     1  UNL1        0.1718
     34 C          22.8340   71.6406   -0.3329 C.3     1  UNL1        0.1968
     35 C          21.9931   71.9226    2.0166 C.3     1  UNL1        0.1723
     36 C          23.0215   73.1573   -0.3896 C.3     1  UNL1        0.2706
     37 C          22.2953   73.4104    1.8632 C.3     1  UNL1        0.1830
     38 H          21.5688   69.4064    0.0035 H       1  UNL1        0.2105
     39 H          22.3937   70.2025   -1.6064 H       1  UNL1        0.2106
     40 H          20.6314   70.8322    2.9411 H       1  UNL1        0.2106
     41 O          21.8910   74.1191    4.0623 O.co2   1  UNL1       -0.5466
     42 O          24.0372   74.2537    3.3041 O.co2   1  UNL1       -0.5466
     43 C          22.8620   73.9697    3.1275 C.2     1  UNL1        0.0799
@<TRIPOS>UNITY_ATOM_ATTR
2 1
charge -1
26 1
charge -1
41 1
charge -1
@<TRIPOS>BOND
     1     1     4    1
     2     1    24    1
     3     1     2    1
     4     1     3    2
     5    25    28    1
     6    25    24    1
     7    25    26    1
     8    25    27    2
     9     6    11    1
    10     6    12    1
    11    29    36    1
    12    29    37    1
    13     7     9    1
    14     7    13    1
    15     8    10    1
    16     8    14    1
    17     4     5    1
    18    28    36    1
    19    30    33    1
    20    30    38    1
    21    31    34    1
    22    31    39    1
    23    32    35    1
    24    32    40    1
    25    41    43   ar
    26    15    19    2
    27    42    43   ar
    28    16    22    2
    29    17    12    1
    30    17    19   ar
    31    17    20   ar
    32    18    19   ar
    33    18    22   ar
    34    18    23    1
    35     9    10    1
    36     9    11    1
    37    10    12    1
    38    11     5    1
    39    33    34    1
    40    33    35    1
    41    34    36    1
    42    35    37    1
    43    37    43    1
    44    20    21   ar
    45    21    22   ar
@<TRIPOS>MOLECULE
*****
 43 45 0 0 0
SMALL
GASTEIGER

@<TRIPOS>ATOM
      1 P          22.2877   73.3919   -5.2396 P.3     1  UNL1        0.2189
      2 O          22.4986   74.9036   -5.7773 O.co2   1  UNL1       -0.4371
      3 O          23.5258   72.7288   -4.7112 O.2     1  UNL1       -0.5170
      4 O          21.5592   72.6390   -6.4726 O.3     1  UNL1       -0.3112
      5 C          20.7940   73.4115   -7.3794 C.3     1  UNL1        0.1811
      6 O          20.0018   71.1800   -7.7925 O.3     1  UNL1       -0.3308
      7 O          18.4570   72.3515  -10.0800 O.3     1  UNL1       -0.3794
      8 O          16.5513   72.0865   -8.1477 O.3     1  UNL1       -0.3779
      9 C          18.7424   72.9150   -8.7995 C.3     1  UNL1        0.1713
     10 C          17.8914   72.2553   -7.7352 C.3     1  UNL1        0.1895
     11 C          20.1461   72.4828   -8.3983 C.3     1  UNL1        0.1764
     12 C          18.6112   70.9332   -7.5305 C.3     1  UNL1        0.2383
     13 H          17.5650   72.6138  -10.3576 H       1  UNL1        0.2105
     14 H          16.1368   72.9563   -8.2640 H       1  UNL1        0.2106
     15 O          16.2881   69.6718   -6.5364 O.2     1  UNL1       -0.2464
     16 O          18.1803   69.0562   -2.3789 O.2     1  UNL1       -0.2670
     17 N          18.4697   70.4337   -6.1921 N.ar    1  UNL1       -0.2551
     18 N          17.2324   69.3673   -4.4664 N.ar    1  UNL1       -0.2743
     19 C          17.2605   69.8165   -5.7932 C.ar    1  UNL1        0.3323
     20 C          19.5209   70.5556   -5.2915 C.ar    1  UNL1        0.0869
     21 C          19.4792   70.1225   -4.0300 C.ar    1  UNL1        0.0795
     22 C          18.2518   69.4666   -3.5334 C.ar    1  UNL1        0.2626
     23 H          16.4002   68.9361   -4.1650 H       1  UNL1        0.1734
     24 O          21.0971   73.5541   -4.1584 O.3     1  UNL1       -0.2703
     25 P          21.0978   74.1686   -2.6630 P.3     1  UNL1        0.2208
     26 O          19.5605   74.6295   -2.4519 O.co2   1  UNL1       -0.4371
     27 O          22.1059   75.2597   -2.4461 O.2     1  UNL1       -0.5170
     28 O          21.2761   72.8903   -1.6953 O.3     1  UNL1       -0.2858
     29 O          23.0519   73.2603   -0.1725 O.3     1  UNL1       -0.3226
     30 O          21.9490   69.3867    0.7475 O.3     1  UNL1       -0.3794
     31 O          22.1105   70.2589   -2.0359 O.3     1  UNL1       -0.3775
     32 O          21.1892   71.5761    2.5025 O.3     1  UNL1       -0.3792
     33 C          21.7452   70.7319    0.3154 C.3     1  UNL1        0.1718
     34 C          22.5952   71.0052   -0.9256 C.3     1  UNL1        0.1968
     35 C          22.1566   71.6631    1.4580 C.3     1  UNL1        0.1723
     36 C          22.5819   72.4925   -1.2812 C.3     1  UNL1        0.2706
     37 C          22.2417   73.1135    0.9915 C.3     1  UNL1        0.1830
     38 H          21.6942   68.7767    0.0374 H       1  UNL1        0.2105
     39 H          22.1160   69.3142   -1.8172 H       1  UNL1        0.2106
     40 H          21.1252   70.6578    2.8083 H       1  UNL1        0.2106
     41 O          23.2339   73.2316    3.1136 O.co2   1  UNL1       -0.5466
     42 O          23.2414   75.1326    1.8546 O.co2   1  UNL1       -0.5466
     43 C          22.9507   73.9551    2.0021 C.2     1  UNL1        0.0799
@<TRIPOS>UNITY_ATOM_ATTR
2 1
charge -1
26 1
charge -1
41 1
charge -1
@<TRIPOS>BOND
     1     1     4    1
     2     1    24    1
     3     1     2    1
     4     1     3    2
     5    25    28    1
     6    25    24    1
     7    25    26    1
     8    25    27    2
     9     6    11    1
    10     6    12    1
    11    29    36    1
    12    29    37    1
    13     7     9    1
    14     7    13    1
    15     8    10    1
    16     8    14    1
    17     4     5    1
    18    28    36    1
    19    30    33    1
    20    30    38    1
    21    31    34    1
    22    31    39    1
    23    32    35    1
    24    32    40    1
    25    41    43   ar
    26    15    19    2
    27    42    43   ar
    28    16    22    2
    29    17    12    1
    30    17    19   ar
    31    17    20   ar
    32    18    19   ar
    33    18    22   ar
    34    18    23    1
    35     9    10    1
    36     9    11    1
    37    10    12    1
    38    11     5    1
    39    33    34    1
    40    33    35    1
    41    34    36    1
    42    35    37    1
    43    37    43    1
    44    20    21   ar
    45    21    22   ar
@<TRIPOS>MOLECULE
*****
 43 45 0 0 0
SMALL
GASTEIGER

@<TRIPOS>ATOM
      1 P          21.6835   70.5405   -0.9799 P.3     1  UNL1        0.2189
      2 O          21.4110   69.5413    0.2636 O.co2   1  UNL1       -0.4371
      3 O          23.1243   70.6818   -1.3751 O.2     1  UNL1       -0.5170
      4 O          20.9355   71.9092   -0.5497 O.3     1  UNL1       -0.3112
      5 C          21.6373   72.8393    0.2546 C.3     1  UNL1        0.1811
      6 O          22.8974   72.5283    2.2777 O.3     1  UNL1       -0.3308
      7 O          20.2542   72.4464    3.6913 O.3     1  UNL1       -0.3794
      8 O          21.1170   74.9851    4.1879 O.3     1  UNL1       -0.3779
      9 C          20.6543   73.2317    2.5680 C.3     1  UNL1        0.1713
     10 C          21.5729   74.3506    3.0113 C.3     1  UNL1        0.1895
     11 C          21.5791   72.3827    1.7066 C.3     1  UNL1        0.1764
     12 C          22.8878   73.6175    3.2142 C.3     1  UNL1        0.2383
     13 H          19.6625   72.9679    4.2566 H       1  UNL1        0.2105
     14 H          20.2777   75.4376    4.0068 H       1  UNL1        0.2106
     15 O          24.8220   74.2944    5.1577 O.2     1  UNL1       -0.2464
     16 O          27.2149   76.8421    2.1531 O.2     1  UNL1       -0.2670
     17 N          24.0266   74.4559    2.9669 N.ar    1  UNL1       -0.2551
     18 N          26.0114   75.5634    3.6597 N.ar    1  UNL1       -0.2743
     19 C          24.9384   74.7344    4.0124 C.ar    1  UNL1        0.3323
     20 C          24.2320   74.9910    1.7010 C.ar    1  UNL1        0.0869
     21 C          25.2596   75.7795    1.3800 C.ar    1  UNL1        0.0795
     22 C          26.2577   76.1200    2.4150 C.ar    1  UNL1        0.2626
     23 H          26.6585   75.7731    4.3715 H       1  UNL1        0.1734
     24 O          20.7226   69.9495   -2.1376 O.3     1  UNL1       -0.2703
     25 P          19.2796   70.4432   -2.6738 P.3     1  UNL1        0.2208
     26 O          19.1541   71.9409   -2.0725 O.co2   1  UNL1       -0.4371
     27 O          18.1427   69.5331   -2.3088 O.2     1  UNL1       -0.5170
     28 O          19.4834   70.6569   -4.2597 O.3     1  UNL1       -0.2858
     29 O          20.0289   72.5059   -5.6355 O.3     1  UNL1       -0.3226
     30 O          17.1547   70.5905   -7.9022 O.3     1  UNL1       -0.3794
     31 O          16.8155   70.8764   -5.0147 O.3     1  UNL1       -0.3775
     32 O          19.9627   70.3787   -8.6242 O.3     1  UNL1       -0.3792
     33 C          18.2345   70.6810   -6.9729 C.3     1  UNL1        0.1718
     34 C          17.8133   71.5411   -5.7811 C.3     1  UNL1        0.1968
     35 C          19.4262   71.3163   -7.6929 C.3     1  UNL1        0.1723
     36 C          19.0094   71.8508   -4.8799 C.3     1  UNL1        0.2706
     37 C          20.5249   71.7110   -6.7103 C.3     1  UNL1        0.1830
     38 H          16.3859   70.1896   -7.4668 H       1  UNL1        0.2105
     39 H          16.0536   70.6766   -5.5804 H       1  UNL1        0.2106
     40 H          19.2733   70.1191   -9.2553 H       1  UNL1        0.2106
     41 O          21.0276   73.1111   -8.5237 O.co2   1  UNL1       -0.5466
     42 O          22.6287   72.8739   -6.9177 O.co2   1  UNL1       -0.5466
     43 C          21.5211   72.6132   -7.3629 C.2     1  UNL1        0.0799
@<TRIPOS>UNITY_ATOM_ATTR
2 1
charge -1
26 1
charge -1
41 1
charge -1
@<TRIPOS>BOND
     1     1     4    1
     2     1    24    1
     3     1     2    1
     4     1     3    2
     5    25    28    1
     6    25    24    1
     7    25    26    1
     8    25    27    2
     9     6    11    1
    10     6    12    1
    11    29    36    1
    12    29    37    1
    13     7     9    1
    14     7    13    1
    15     8    10    1
    16     8    14    1
    17     4     5    1
    18    28    36    1
    19    30    33    1
    20    30    38    1
    21    31    34    1
    22    31    39    1
    23    32    35    1
    24    32    40    1
    25    41    43   ar
    26    15    19    2
    27    42    43   ar
    28    16    22    2
    29    17    12    1
    30    17    19   ar
    31    17    20   ar
    32    18    19   ar
    33    18    22   ar
    34    18    23    1
    35     9    10    1
    36     9    11    1
    37    10    12    1
    38    11     5    1
    39    33    34    1
    40    33    35    1
    41    34    36    1
    42    35    37    1
    43    37    43    1
    44    20    21   ar
    45    21    22   ar
@<TRIPOS>MOLECULE
*****
 43 45 0 0 0
SMALL
GASTEIGER

@<TRIPOS>ATOM
      1 P          21.6474   70.2760   -0.8658 P.3     1  UNL1        0.2189
      2 O          22.1204   69.2102    0.2563 O.co2   1  UNL1       -0.4371
      3 O          22.6279   70.5008   -1.9793 O.2     1  UNL1       -0.5170
      4 O          21.2438   71.5882   -0.0095 O.3     1  UNL1       -0.3112
      5 C          22.2430   72.2221    0.7678 C.3     1  UNL1        0.1811
      6 O          23.0408   72.4082    3.0275 O.3     1  UNL1       -0.3308
      7 O          20.1604   72.6404    3.8281 O.3     1  UNL1       -0.3794
      8 O          21.0074   75.2316    3.8922 O.3     1  UNL1       -0.3779
      9 C          20.8180   73.1416    2.6641 C.3     1  UNL1        0.1713
     10 C          21.6707   74.3411    3.0195 C.3     1  UNL1        0.1895
     11 C          21.8650   72.1208    2.2399 C.3     1  UNL1        0.1764
     12 C          22.8827   73.6875    3.6613 C.3     1  UNL1        0.2383
     13 H          19.4866   73.2757    4.1181 H       1  UNL1        0.2105
     14 H          20.2439   75.6216    3.4372 H       1  UNL1        0.2106
     15 O          23.5244   75.0902    1.2954 O.2     1  UNL1       -0.2464
     16 O          27.5128   76.5922    3.0507 O.2     1  UNL1       -0.2670
     17 N          24.0822   74.4533    3.4729 N.ar    1  UNL1       -0.2551
     18 N          25.5107   75.8361    2.1715 N.ar    1  UNL1       -0.2743
     19 C          24.3086   75.1201    2.2457 C.ar    1  UNL1        0.3323
     20 C          25.0178   74.5396    4.4967 C.ar    1  UNL1        0.0869
     21 C          26.1590   75.2261    4.4113 C.ar    1  UNL1        0.0795
     22 C          26.4723   75.9509    3.1623 C.ar    1  UNL1        0.2626
     23 H          25.6914   76.3070    1.3260 H       1  UNL1        0.1734
     24 O          20.2147   69.6949   -1.3373 O.3     1  UNL1       -0.2703
     25 P          19.3607   69.9433   -2.6873 P.3     1  UNL1        0.2208
     26 O          18.0060   70.6435   -2.1445 O.co2   1  UNL1       -0.4371
     27 O          19.1319   68.7068   -3.5075 O.2     1  UNL1       -0.5170
     28 O          20.1475   71.1219   -3.4582 O.3     1  UNL1       -0.2858
     29 O          19.4104   72.3064   -5.3721 O.3     1  UNL1       -0.3226
     30 O          15.8281   71.1981   -3.6381 O.3     1  UNL1       -0.3794
     31 O          18.0331   72.1726   -1.9880 O.3     1  UNL1       -0.3775
     32 O          16.8033   69.8006   -5.9933 O.3     1  UNL1       -0.3792
     33 C          17.2073   71.0620   -3.9807 C.3     1  UNL1        0.1718
     34 C          17.9954   72.2408   -3.4088 C.3     1  UNL1        0.1968
     35 C          17.3154   71.0399   -5.5070 C.3     1  UNL1        0.1723
     36 C          19.4275   72.2530   -3.9451 C.3     1  UNL1        0.2706
     37 C          18.7641   71.1822   -5.9650 C.3     1  UNL1        0.1830
     38 H          15.7347   71.2146   -2.6726 H       1  UNL1        0.2105
     39 H          17.1276   72.1642   -1.6410 H       1  UNL1        0.2106
     40 H          15.8818   69.6976   -5.7086 H       1  UNL1        0.2106
     41 O          18.6386   70.3649   -8.1599 O.co2   1  UNL1       -0.5466
     42 O          19.0287   72.5965   -7.9018 O.co2   1  UNL1       -0.5466
     43 C          18.8310   71.4887   -7.4258 C.2     1  UNL1        0.0799
@<TRIPOS>UNITY_ATOM_ATTR
2 1
charge -1
26 1
charge -1
41 1
charge -1
@<TRIPOS>BOND
     1     1     4    1
     2     1    24    1
     3     1     2    1
     4     1     3    2
     5    25    28    1
     6    25    24    1
     7    25    26    1
     8    25    27    2
     9     6    11    1
    10     6    12    1
    11    29    36    1
    12    29    37    1
    13     7     9    1
    14     7    13    1
    15     8    10    1
    16     8    14    1
    17     4     5    1
    18    28    36    1
    19    30    33    1
    20    30    38    1
    21    31    34    1
    22    31    39    1
    23    32    35    1
    24    32    40    1
    25    41    43   ar
    26    15    19    2
    27    42    43   ar
    28    16    22    2
    29    17    12    1
    30    17    19   ar
    31    17    20   ar
    32    18    19   ar
    33    18    22   ar
    34    18    23    1
    35     9    10    1
    36     9    11    1
    37    10    12    1
    38    11     5    1
    39    33    34    1
    40    33    35    1
    41    34    36    1
    42    35    37    1
    43    37    43    1
    44    20    21   ar
    45    21    22   ar
@<TRIPOS>MOLECULE
*****
 43 45 0 0 0
SMALL
GASTEIGER

@<TRIPOS>ATOM
      1 P          23.0028   72.2788   -3.4487 P.3     1  UNL1        0.2189
      2 O          23.2972   70.6978   -3.2682 O.co2   1  UNL1       -0.4371
      3 O          24.1623   73.0853   -3.9557 O.2     1  UNL1       -0.5170
      4 O          22.4076   72.7295   -2.0133 O.3     1  UNL1       -0.3112
      5 C          22.1376   74.1019   -1.7941 C.3     1  UNL1        0.1811
      6 O          20.2077   73.5102   -0.4890 O.3     1  UNL1       -0.3308
      7 O          18.8792   75.9058   -1.7087 O.3     1  UNL1       -0.3794
      8 O          19.5954   76.8144    0.7606 O.3     1  UNL1       -0.3779
      9 C          20.2409   75.7291   -1.3173 C.3     1  UNL1        0.1713
     10 C          20.3628   75.7745    0.1911 C.3     1  UNL1        0.1895
     11 C          20.6355   74.2913   -1.6258 C.3     1  UNL1        0.1764
     12 C          19.8655   74.3953    0.5893 C.3     1  UNL1        0.2383
     13 H          18.6042   76.8173   -1.5213 H       1  UNL1        0.2105
     14 H          19.9519   77.6715    0.4773 H       1  UNL1        0.2106
     15 O          18.9270   74.9727    3.1897 O.2     1  UNL1       -0.2464
     16 O          22.2979   72.5150    5.1495 O.2     1  UNL1       -0.2670
     17 N          20.4788   73.9192    1.7968 N.ar    1  UNL1       -0.2551
     18 N          20.6074   73.7489    4.1633 N.ar    1  UNL1       -0.2743
     19 C          19.9283   74.2673    3.0529 C.ar    1  UNL1        0.3323
     20 C          21.6109   73.1161    1.7297 C.ar    1  UNL1        0.0869
     21 C          22.2471   72.6294    2.7970 C.ar    1  UNL1        0.0795
     22 C          21.7369   72.9468    4.1469 C.ar    1  UNL1        0.2626
     23 H          20.2439   73.9794    5.0488 H       1  UNL1        0.1734
     24 O          21.6997   72.2984   -4.4049 O.3     1  UNL1       -0.2703
     25 P          21.3739   73.1534   -5.7377 P.3     1  UNL1        0.2208
     26 O          22.5673   72.7333   -6.7475 O.co2   1  UNL1       -0.4371
     27 O          21.2513   74.6317   -5.5063 O.2     1  UNL1       -0.5170
     28 O          20.0546   72.4609   -6.3560 O.3     1  UNL1       -0.2858
     29 O          19.0343   70.3434   -6.0652 O.3     1  UNL1       -0.3226
     30 O          18.4625   71.0047  -10.1030 O.3     1  UNL1       -0.3794
     31 O          21.0141   71.6622   -8.8414 O.3     1  UNL1       -0.3775
     32 O          16.2489   71.3191   -8.2451 O.3     1  UNL1       -0.3792
     33 C          18.6083   71.3696   -8.7305 C.3     1  UNL1        0.1718
     34 C          19.9756   70.9123   -8.2219 C.3     1  UNL1        0.1968
     35 C          17.4904   70.6874   -7.9386 C.3     1  UNL1        0.1723
     36 C          20.0785   71.0780   -6.7050 C.3     1  UNL1        0.2706
     37 C          17.7312   70.7886   -6.4351 C.3     1  UNL1        0.1830
     38 H          19.1623   71.4267  -10.6260 H       1  UNL1        0.2105
     39 H          20.9547   71.5618   -9.8041 H       1  UNL1        0.2106
     40 H          16.0838   71.2618   -9.1992 H       1  UNL1        0.2106
     41 O          16.8181   70.1584   -4.3686 O.co2   1  UNL1       -0.5466
     42 O          16.1960   68.9428   -6.1947 O.co2   1  UNL1       -0.5466
     43 C          16.8336   69.8549   -5.6902 C.2     1  UNL1        0.0799
@<TRIPOS>UNITY_ATOM_ATTR
2 1
charge -1
26 1
charge -1
41 1
charge -1
@<TRIPOS>BOND
     1     1     4    1
     2     1    24    1
     3     1     2    1
     4     1     3    2
     5    25    28    1
     6    25    24    1
     7    25    26    1
     8    25    27    2
     9     6    11    1
    10     6    12    1
    11    29    36    1
    12    29    37    1
    13     7     9    1
    14     7    13    1
    15     8    10    1
    16     8    14    1
    17     4     5    1
    18    28    36    1
    19    30    33    1
    20    30    38    1
    21    31    34    1
    22    31    39    1
    23    32    35    1
    24    32    40    1
    25    41    43   ar
    26    15    19    2
    27    42    43   ar
    28    16    22    2
    29    17    12    1
    30    17    19   ar
    31    17    20   ar
    32    18    19   ar
    33    18    22   ar
    34    18    23    1
    35     9    10    1
    36     9    11    1
    37    10    12    1
    38    11     5    1
    39    33    34    1
    40    33    35    1
    41    34    36    1
    42    35    37    1
    43    37    43    1
    44    20    21   ar
    45    21    22   ar
@<TRIPOS>MOLECULE
*****
 43 45 0 0 0
SMALL
GASTEIGER

@<TRIPOS>ATOM
      1 P          24.1081   74.1347   -3.8493 P.3     1  UNL1        0.2189
      2 O          25.6813   74.5100   -3.9032 O.co2   1  UNL1       -0.4371
      3 O          23.8087   72.6651   -3.7982 O.2     1  UNL1       -0.5170
      4 O          23.4739   74.9378   -5.1025 O.3     1  UNL1       -0.3112
      5 C          22.1555   74.6219   -5.5107 C.3     1  UNL1        0.1811
      6 O          21.6063   72.6374   -6.7508 O.3     1  UNL1       -0.3308
      7 O          21.9301   74.3129   -9.2164 O.3     1  UNL1       -0.3794
      8 O          19.2219   74.2165   -8.9130 O.3     1  UNL1       -0.3779
      9 C          21.4025   74.6756   -7.9402 C.3     1  UNL1        0.1713
     10 C          20.0214   74.0831   -7.7565 C.3     1  UNL1        0.1895
     11 C          22.2072   73.9447   -6.8742 C.3     1  UNL1        0.1764
     12 C          20.3407   72.6342   -7.4302 C.3     1  UNL1        0.2383
     13 H          21.4318   74.7678   -9.9138 H       1  UNL1        0.2105
     14 H          19.0463   75.1566   -9.0780 H       1  UNL1        0.2106
     15 O          18.7141   70.4456   -8.1658 O.2     1  UNL1       -0.2464
     16 O          16.5895   70.4152   -4.0757 O.2     1  UNL1       -0.2670
     17 N          19.3542   72.0344   -6.5769 N.ar    1  UNL1       -0.2551
     18 N          17.6568   70.4332   -6.1284 N.ar    1  UNL1       -0.2743
     19 C          18.5899   70.9388   -7.0432 C.ar    1  UNL1        0.3323
     20 C          19.1530   72.5298   -5.2943 C.ar    1  UNL1        0.0869
     21 C          18.2600   72.0374   -4.4337 C.ar    1  UNL1        0.0795
     22 C          17.4201   70.8925   -4.8429 C.ar    1  UNL1        0.2626
     23 H          17.1114   69.6715   -6.4311 H       1  UNL1        0.1734
     24 O          23.5782   74.9745   -2.5738 O.3     1  UNL1       -0.2703
     25 P          24.0281   74.9434   -1.0213 P.3     1  UNL1        0.2208
     26 O          23.2288   76.1963   -0.3795 O.co2   1  UNL1       -0.4371
     27 O          25.5138   74.9839   -0.8097 O.2     1  UNL1       -0.5170
     28 O          23.3001   73.6399   -0.4102 O.3     1  UNL1       -0.2858
     29 O          21.4730   72.4797   -1.3719 O.3     1  UNL1       -0.3226
     30 O          20.9953   71.6216    2.6410 O.3     1  UNL1       -0.3794
     31 O          21.7239   74.3163    1.7794 O.3     1  UNL1       -0.3775
     32 O          22.0578   69.6071    0.8344 O.3     1  UNL1       -0.3792
     33 C          21.7239   71.9129    1.4484 C.3     1  UNL1        0.1718
     34 C          21.2954   73.2770    0.9071 C.3     1  UNL1        0.1968
     35 C          21.4178   70.8150    0.4272 C.3     1  UNL1        0.1723
     36 C          21.8805   73.5218   -0.4845 C.3     1  UNL1        0.2706
     37 C          21.9235   71.1903   -0.9628 C.3     1  UNL1        0.1830
     38 H          21.1743   72.3063    3.3047 H       1  UNL1        0.2105
     39 H          21.3566   74.1671    2.6643 H       1  UNL1        0.2106
     40 H          21.7448   69.3572    1.7179 H       1  UNL1        0.2106
     41 O          20.1561   69.7784   -1.5827 O.co2   1  UNL1       -0.5466
     42 O          21.8555   70.0368   -3.0808 O.co2   1  UNL1       -0.5466
     43 C          21.3417   70.2867   -2.0007 C.2     1  UNL1        0.0799
@<TRIPOS>UNITY_ATOM_ATTR
2 1
charge -1
26 1
charge -1
41 1
charge -1
@<TRIPOS>BOND
     1     1     4    1
     2     1    24    1
     3     1     2    1
     4     1     3    2
     5    25    28    1
     6    25    24    1
     7    25    26    1
     8    25    27    2
     9     6    11    1
    10     6    12    1
    11    29    36    1
    12    29    37    1
    13     7     9    1
    14     7    13    1
    15     8    10    1
    16     8    14    1
    17     4     5    1
    18    28    36    1
    19    30    33    1
    20    30    38    1
    21    31    34    1
    22    31    39    1
    23    32    35    1
    24    32    40    1
    25    41    43   ar
    26    15    19    2
    27    42    43   ar
    28    16    22    2
    29    17    12    1
    30    17    19   ar
    31    17    20   ar
    32    18    19   ar
    33    18    22   ar
    34    18    23    1
    35     9    10    1
    36     9    11    1
    37    10    12    1
    38    11     5    1
    39    33    34    1
    40    33    35    1
    41    34    36    1
    42    35    37    1
    43    37    43    1
    44    20    21   ar
    45    21    22   ar
@<TRIPOS>MOLECULE
*****
 43 45 0 0 0
SMALL
GASTEIGER

@<TRIPOS>ATOM
      1 P          19.2264   74.5744   -4.4353 P.3     1  UNL1        0.2189
      2 O          18.2067   75.4762   -3.5602 O.co2   1  UNL1       -0.4371
      3 O          19.3289   74.9577   -5.8825 O.2     1  UNL1       -0.5170
      4 O          18.7510   73.0557   -4.1426 O.3     1  UNL1       -0.3112
      5 C          17.8770   72.8187   -3.0543 C.3     1  UNL1        0.1811
      6 O          17.0732   70.9339   -4.3110 O.3     1  UNL1       -0.3308
      7 O          18.2620   69.2246   -2.1531 O.3     1  UNL1       -0.3794
      8 O          20.1256   69.0614   -4.1371 O.3     1  UNL1       -0.3779
      9 C          18.7423   70.4526   -2.7007 C.3     1  UNL1        0.1713
     10 C          19.3207   70.2205   -4.0805 C.3     1  UNL1        0.1895
     11 C          17.5387   71.3343   -3.0040 C.3     1  UNL1        0.1764
     12 C          18.0680   70.1046   -4.9322 C.3     1  UNL1        0.2383
     13 H          19.0132   68.6444   -1.9513 H       1  UNL1        0.2105
     14 H          20.9101   69.1850   -3.5791 H       1  UNL1        0.2106
     15 O          16.1112   70.0142   -6.9666 O.2     1  UNL1       -0.2464
     16 O          18.9821   71.8626  -10.0626 O.2     1  UNL1       -0.2670
     17 N          18.2773   70.5557   -6.2789 N.ar    1  UNL1       -0.2551
     18 N          17.5433   70.9339   -8.5069 N.ar    1  UNL1       -0.2743
     19 C          17.2285   70.4661   -7.2243 C.ar    1  UNL1        0.3323
     20 C          19.5089   71.0809   -6.6509 C.ar    1  UNL1        0.0869
     21 C          19.7940   71.5230   -7.8773 C.ar    1  UNL1        0.0795
     22 C          18.7533   71.4640   -8.9246 C.ar    1  UNL1        0.2626
     23 H          16.8295   70.8799   -9.1829 H       1  UNL1        0.1734
     24 O          20.6112   74.6873   -3.6091 O.3     1  UNL1       -0.2703
     25 P          21.8595   73.6674   -3.4853 P.3     1  UNL1        0.2208
     26 O          23.1432   74.6535   -3.4766 O.co2   1  UNL1       -0.4371
     27 O          21.8989   72.6103   -4.5506 O.2     1  UNL1       -0.5170
     28 O          21.7740   73.0969   -1.9788 O.3     1  UNL1       -0.2858
     29 O          23.3231   73.2480   -0.1936 O.3     1  UNL1       -0.3226
     30 O          21.5819   69.5688    0.5133 O.3     1  UNL1       -0.3794
     31 O          22.2920   70.3735   -2.2038 O.3     1  UNL1       -0.3775
     32 O          20.8565   71.8638    2.1435 O.3     1  UNL1       -0.3792
     33 C          21.6299   70.9232    0.0646 C.3     1  UNL1        0.1718
     34 C          22.6924   71.0637   -1.0257 C.3     1  UNL1        0.1968
     35 C          21.9783   71.8068    1.2644 C.3     1  UNL1        0.1723
     36 C          22.9339   72.5346   -1.3679 C.3     1  UNL1        0.2706
     37 C          22.3284   73.2264    0.8278 C.3     1  UNL1        0.1830
     38 H          21.3620   68.9885   -0.2325 H       1  UNL1        0.2105
     39 H          22.1368   69.4396   -1.9939 H       1  UNL1        0.2106
     40 H          20.6233   70.9665    2.4287 H       1  UNL1        0.2106
     41 O          23.3557   73.1354    2.9345 O.co2   1  UNL1       -0.5466
     42 O          23.1481   75.1894    1.9664 O.co2   1  UNL1       -0.5466
     43 C          22.9768   73.9798    1.9433 C.2     1  UNL1        0.0799
@<TRIPOS>UNITY_ATOM_ATTR
2 1
charge -1
26 1
charge -1
41 1
charge -1
@<TRIPOS>BOND
     1     1     4    1
     2     1    24    1
     3     1     2    1
     4     1     3    2
     5    25    28    1
     6    25    24    1
     7    25    26    1
     8    25    27    2
     9     6    11    1
    10     6    12    1
    11    29    36    1
    12    29    37    1
    13     7     9    1
    14     7    13    1
    15     8    10    1
    16     8    14    1
    17     4     5    1
    18    28    36    1
    19    30    33    1
    20    30    38    1
    21    31    34    1
    22    31    39    1
    23    32    35    1
    24    32    40    1
    25    41    43   ar
    26    15    19    2
    27    42    43   ar
    28    16    22    2
    29    17    12    1
    30    17    19   ar
    31    17    20   ar
    32    18    19   ar
    33    18    22   ar
    34    18    23    1
    35     9    10    1
    36     9    11    1
    37    10    12    1
    38    11     5    1
    39    33    34    1
    40    33    35    1
    41    34    36    1
    42    35    37    1
    43    37    43    1
    44    20    21   ar
    45    21    22   ar
@<TRIPOS>MOLECULE
*****
 43 45 0 0 0
SMALL
GASTEIGER

@<TRIPOS>ATOM
      1 P          23.1689   74.4356   -4.2505 P.3     1  UNL1        0.2189
      2 O          23.8365   72.9890   -3.9670 O.co2   1  UNL1       -0.4371
      3 O          24.0515   75.4098   -4.9743 O.2     1  UNL1       -0.5170
      4 O          22.6411   74.9116   -2.7970 O.3     1  UNL1       -0.3112
      5 C          23.5220   75.6426   -1.9638 C.3     1  UNL1        0.1811
      6 O          21.9594   74.9646   -0.2678 O.3     1  UNL1       -0.3308
      7 O          22.9931   77.2721    1.3442 O.3     1  UNL1       -0.3794
      8 O          24.2870   75.1433    2.4534 O.3     1  UNL1       -0.3779
      9 C          23.6970   76.4015    0.4581 C.3     1  UNL1        0.1713
     10 C          23.8915   75.0447    1.1012 C.3     1  UNL1        0.1895
     11 C          22.7748   76.0722   -0.7078 C.3     1  UNL1        0.1764
     12 C          22.5171   74.4184    0.9380 C.3     1  UNL1        0.2383
     13 H          23.5623   77.4965    2.0974 H       1  UNL1        0.2105
     14 H          25.1677   75.5478    2.5040 H       1  UNL1        0.2106
     15 O          22.4825   72.6332    3.1262 O.2     1  UNL1       -0.2464
     16 O          22.7515   68.9538    0.3633 O.2     1  UNL1       -0.2670
     17 N          22.5769   72.9890    0.8190 N.ar    1  UNL1       -0.2551
     18 N          22.6175   70.8024    1.7481 N.ar    1  UNL1       -0.2743
     19 C          22.5534   72.1824    1.9813 C.ar    1  UNL1        0.3323
     20 C          22.6561   72.4003   -0.4372 C.ar    1  UNL1        0.0869
     21 C          22.7165   71.0833   -0.6436 C.ar    1  UNL1        0.0795
     22 C          22.6979   70.1701    0.5179 C.ar    1  UNL1        0.2626
     23 H          22.6047   70.2204    2.5422 H       1  UNL1        0.1734
     24 O          21.8027   74.0587   -5.0278 O.3     1  UNL1       -0.2703
     25 P          21.5280   73.7060   -6.5814 P.3     1  UNL1        0.2208
     26 O          22.7246   72.6779   -6.9443 O.co2   1  UNL1       -0.4371
     27 O          21.4494   74.9056   -7.4807 O.2     1  UNL1       -0.5170
     28 O          20.1980   72.7932   -6.5649 O.3     1  UNL1       -0.2858
     29 O          19.3196   70.6252   -6.1945 O.3     1  UNL1       -0.3226
     30 O          18.5076   71.1870  -10.2061 O.3     1  UNL1       -0.3794
     31 O          21.0764   72.0115   -9.0855 O.3     1  UNL1       -0.3775
     32 O          16.3756   71.4025   -8.2416 O.3     1  UNL1       -0.3792
     33 C          18.7005   71.5818   -8.8478 C.3     1  UNL1        0.1718
     34 C          20.1163   71.2128   -8.4038 C.3     1  UNL1        0.1968
     35 C          17.6660   70.8489   -7.9908 C.3     1  UNL1        0.1723
     36 C          20.2854   71.4086   -6.8966 C.3     1  UNL1        0.2706
     37 C          17.9757   70.9880   -6.5031 C.3     1  UNL1        0.1830
     38 H          19.1542   71.6403  -10.7697 H       1  UNL1        0.2105
     39 H          20.9746   71.8924  -10.0425 H       1  UNL1        0.2106
     40 H          16.1663   71.3204   -9.1852 H       1  UNL1        0.2106
     41 O          16.2930   69.3540   -6.4923 O.co2   1  UNL1       -0.5466
     42 O          17.2890   69.8346   -4.4983 O.co2   1  UNL1       -0.5466
     43 C          17.1731   70.0160   -5.7010 C.2     1  UNL1        0.0799
@<TRIPOS>UNITY_ATOM_ATTR
2 1
charge -1
26 1
charge -1
41 1
charge -1
@<TRIPOS>BOND
     1     1     4    1
     2     1    24    1
     3     1     2    1
     4     1     3    2
     5    25    28    1
     6    25    24    1
     7    25    26    1
     8    25    27    2
     9     6    11    1
    10     6    12    1
    11    29    36    1
    12    29    37    1
    13     7     9    1
    14     7    13    1
    15     8    10    1
    16     8    14    1
    17     4     5    1
    18    28    36    1
    19    30    33    1
    20    30    38    1
    21    31    34    1
    22    31    39    1
    23    32    35    1
    24    32    40    1
    25    41    43   ar
    26    15    19    2
    27    42    43   ar
    28    16    22    2
    29    17    12    1
    30    17    19   ar
    31    17    20   ar
    32    18    19   ar
    33    18    22   ar
    34    18    23    1
    35     9    10    1
    36     9    11    1
    37    10    12    1
    38    11     5    1
    39    33    34    1
    40    33    35    1
    41    34    36    1
    42    35    37    1
    43    37    43    1
    44    20    21   ar
    45    21    22   ar
@<TRIPOS>MOLECULE
*****
 43 45 0 0 0
SMALL
GASTEIGER

@<TRIPOS>ATOM
      1 P          22.6168   74.0026   -5.4823 P.3     1  UNL1        0.2189
      2 O          21.1111   74.2235   -4.9317 O.co2   1  UNL1       -0.4371
      3 O          23.5183   75.1958   -5.3578 O.2     1  UNL1       -0.5170
      4 O          22.4026   73.4373   -6.9831 O.3     1  UNL1       -0.3112
      5 C          21.0950   73.4386   -7.5259 C.3     1  UNL1        0.1811
      6 O          19.1699   72.0912   -7.0198 O.3     1  UNL1       -0.3308
      7 O          20.4828   69.9371   -8.6407 O.3     1  UNL1       -0.3794
      8 O          18.6405   70.9502  -10.3772 O.3     1  UNL1       -0.3779
      9 C          20.4855   71.3502   -8.8448 C.3     1  UNL1        0.1713
     10 C          19.1414   71.8062   -9.3717 C.3     1  UNL1        0.1895
     11 C          20.5371   72.0220   -7.4794 C.3     1  UNL1        0.1764
     12 C          18.2888   71.7930   -8.1144 C.3     1  UNL1        0.2383
     13 H          20.4502   69.4861   -9.4993 H       1  UNL1        0.2105
     14 H          19.2175   70.9944  -11.1563 H       1  UNL1        0.2106
     15 O          15.9509   71.6923   -6.5331 O.2     1  UNL1       -0.2464
     16 O          14.3393   75.6136   -8.3413 O.2     1  UNL1       -0.2670
     17 N          17.2419   72.7746   -8.1518 N.ar    1  UNL1       -0.2551
     18 N          15.1500   73.6449   -7.4359 N.ar    1  UNL1       -0.2743
     19 C          16.1090   72.6304   -7.3166 C.ar    1  UNL1        0.3323
     20 C          17.3439   73.8651   -9.0070 C.ar    1  UNL1        0.0869
     21 C          16.4217   74.8241   -9.1096 C.ar    1  UNL1        0.0795
     22 C          15.2067   74.7482   -8.2721 C.ar    1  UNL1        0.2626
     23 H          14.3513   73.5651   -6.8658 H       1  UNL1        0.1734
     24 O          23.1125   72.6964   -4.6692 O.3     1  UNL1       -0.2703
     25 P          22.3535   71.7718   -3.5817 P.3     1  UNL1        0.2208
     26 O          23.4815   70.6874   -3.1668 O.co2   1  UNL1       -0.4371
     27 O          21.0690   71.1704   -4.0740 O.2     1  UNL1       -0.5170
     28 O          22.1967   72.7140   -2.2817 O.3     1  UNL1       -0.2858
     29 O          21.3245   71.6626   -0.3470 O.3     1  UNL1       -0.3226
     30 O          21.1556   75.6515    0.7154 O.3     1  UNL1       -0.3794
     31 O          20.3839   74.8004   -1.9707 O.3     1  UNL1       -0.3775
     32 O          23.2258   73.9341    1.8181 O.3     1  UNL1       -0.3792
     33 C          21.6820   74.4995    0.0568 C.3     1  UNL1        0.1718
     34 C          20.6237   73.9176   -0.8807 C.3     1  UNL1        0.1968
     35 C          22.0646   73.4758    1.1281 C.3     1  UNL1        0.1723
     36 C          21.0646   72.5593   -1.4277 C.3     1  UNL1        0.2706
     37 C          22.3689   72.1129    0.5130 C.3     1  UNL1        0.1830
     38 H          20.9054   76.3160    0.0542 H       1  UNL1        0.2105
     39 H          20.1040   75.6644   -1.6308 H       1  UNL1        0.2106
     40 H          23.0454   74.8010    2.2142 H       1  UNL1        0.2106
     41 O          21.7406   71.4500    2.6734 O.co2   1  UNL1       -0.5466
     42 O          22.9811   69.9767    1.4528 O.co2   1  UNL1       -0.5466
     43 C          22.4161   71.0542    1.5662 C.2     1  UNL1        0.0799
@<TRIPOS>UNITY_ATOM_ATTR
2 1
charge -1
26 1
charge -1
41 1
charge -1
@<TRIPOS>BOND
     1     1     4    1
     2     1    24    1
     3     1     2    1
     4     1     3    2
     5    25    28    1
     6    25    24    1
     7    25    26    1
     8    25    27    2
     9     6    11    1
    10     6    12    1
    11    29    36    1
    12    29    37    1
    13     7     9    1
    14     7    13    1
    15     8    10    1
    16     8    14    1
    17     4     5    1
    18    28    36    1
    19    30    33    1
    20    30    38    1
    21    31    34    1
    22    31    39    1
    23    32    35    1
    24    32    40    1
    25    41    43   ar
    26    15    19    2
    27    42    43   ar
    28    16    22    2
    29    17    12    1
    30    17    19   ar
    31    17    20   ar
    32    18    19   ar
    33    18    22   ar
    34    18    23    1
    35     9    10    1
    36     9    11    1
    37    10    12    1
    38    11     5    1
    39    33    34    1
    40    33    35    1
    41    34    36    1
    42    35    37    1
    43    37    43    1
    44    20    21   ar
    45    21    22   ar
@<TRIPOS>MOLECULE
*****
 43 45 0 0 0
SMALL
GASTEIGER

@<TRIPOS>ATOM
      1 P          18.4361   72.9497   -2.8558 P.3     1  UNL1        0.2189
      2 O          17.5408   74.0814   -3.5882 O.co2   1  UNL1       -0.4371
      3 O          18.2565   72.8642   -1.3684 O.2     1  UNL1       -0.5170
      4 O          19.9412   73.2550   -3.3653 O.3     1  UNL1       -0.3112
      5 C          20.8995   73.6925   -2.4195 C.3     1  UNL1        0.1811
      6 O          22.8659   72.9266   -1.2687 O.3     1  UNL1       -0.3308
      7 O          22.8879   70.6438   -3.2129 O.3     1  UNL1       -0.3794
      8 O          21.8038   69.5144   -0.9801 O.3     1  UNL1       -0.3779
      9 C          21.7761   71.3124   -2.6168 C.3     1  UNL1        0.1713
     10 C          21.6357   70.9043   -1.1656 C.3     1  UNL1        0.1895
     11 C          22.1240   72.7901   -2.5001 C.3     1  UNL1        0.1764
     12 C          22.7319   71.7198   -0.5012 C.3     1  UNL1        0.2383
     13 H          22.6891   69.6978   -3.2978 H       1  UNL1        0.2105
     14 H          21.0813   69.0397   -1.4211 H       1  UNL1        0.2106
     15 O          23.1160   70.0038    1.7089 O.2     1  UNL1       -0.2464
     16 O          21.4756   73.1401    4.6613 O.2     1  UNL1       -0.2670
     17 N          22.4138   72.0625    0.8561 N.ar    1  UNL1       -0.2551
     18 N          22.2976   71.5671    3.1771 N.ar    1  UNL1       -0.2743
     19 C          22.6452   71.1279    1.8929 C.ar    1  UNL1        0.3323
     20 C          21.8809   73.3119    1.1492 C.ar    1  UNL1        0.0869
     21 C          21.5547   73.7163    2.3784 C.ar    1  UNL1        0.0795
     22 C          21.7643   72.7995    3.5181 C.ar    1  UNL1        0.2626
     23 H          22.4478   70.9330    3.9151 H       1  UNL1        0.1734
     24 O          18.0466   71.6025   -3.6596 O.3     1  UNL1       -0.2703
     25 P          17.0030   71.3521   -4.8686 P.3     1  UNL1        0.2208
     26 O          15.6644   72.1100   -4.3647 O.co2   1  UNL1       -0.4371
     27 O          16.8006   69.9060   -5.2179 O.2     1  UNL1       -0.5170
     28 O          17.5547   72.2626   -6.0807 O.3     1  UNL1       -0.2858
     29 O          19.3909   71.3455   -7.2623 O.3     1  UNL1       -0.3226
     30 O          19.2678   75.1952   -8.7566 O.3     1  UNL1       -0.3794
     31 O          18.8808   74.7011   -5.9034 O.3     1  UNL1       -0.3775
     32 O          18.2897   72.9758  -10.3593 O.3     1  UNL1       -0.3792
     33 C          18.7277   73.9886   -8.2175 C.3     1  UNL1        0.1718
     34 C          19.3334   73.7283   -6.8381 C.3     1  UNL1        0.1968
     35 C          19.0741   72.8462   -9.1751 C.3     1  UNL1        0.1723
     36 C          18.9574   72.3360   -6.3293 C.3     1  UNL1        0.2706
     37 C          18.7869   71.4858   -8.5463 C.3     1  UNL1        0.1830
     38 H          19.0601   75.9353   -8.1647 H       1  UNL1        0.2105
     39 H          19.1159   75.5870   -6.2201 H       1  UNL1        0.2106
     40 H          18.4631   73.8376  -10.7693 H       1  UNL1        0.2106
     41 O          18.9887   70.4130  -10.6223 O.co2   1  UNL1       -0.5466
     42 O          20.2281   69.5830   -8.8978 O.co2   1  UNL1       -0.5466
     43 C          19.4237   70.3904   -9.3381 C.2     1  UNL1        0.0799
@<TRIPOS>UNITY_ATOM_ATTR
2 1
charge -1
26 1
charge -1
41 1
charge -1
@<TRIPOS>BOND
     1     1     4    1
     2     1    24    1
     3     1     2    1
     4     1     3    2
     5    25    28    1
     6    25    24    1
     7    25    26    1
     8    25    27    2
     9     6    11    1
    10     6    12    1
    11    29    36    1
    12    29    37    1
    13     7     9    1
    14     7    13    1
    15     8    10    1
    16     8    14    1
    17     4     5    1
    18    28    36    1
    19    30    33    1
    20    30    38    1
    21    31    34    1
    22    31    39    1
    23    32    35    1
    24    32    40    1
    25    41    43   ar
    26    15    19    2
    27    42    43   ar
    28    16    22    2
    29    17    12    1
    30    17    19   ar
    31    17    20   ar
    32    18    19   ar
    33    18    22   ar
    34    18    23    1
    35     9    10    1
    36     9    11    1
    37    10    12    1
    38    11     5    1
    39    33    34    1
    40    33    35    1
    41    34    36    1
    42    35    37    1
    43    37    43    1
    44    20    21   ar
    45    21    22   ar
@<TRIPOS>MOLECULE
*****
 43 45 0 0 0
SMALL
GASTEIGER

@<TRIPOS>ATOM
      1 P          18.3477   75.3472   -2.2157 P.3     1  UNL1        0.2189
      2 O          18.4433   74.1740   -1.1052 O.co2   1  UNL1       -0.4371
      3 O          17.2039   76.3011   -2.0328 O.2     1  UNL1       -0.5170
      4 O          18.3812   74.5523   -3.6246 O.3     1  UNL1       -0.3112
      5 C          19.1450   73.3634   -3.7120 C.3     1  UNL1        0.1811
      6 O          17.5645   71.8127   -4.6477 O.3     1  UNL1       -0.3308
      7 O          18.1111   70.0964   -2.2504 O.3     1  UNL1       -0.3794
      8 O          19.6079   68.9022   -4.1919 O.3     1  UNL1       -0.3779
      9 C          19.0060   70.9280   -2.9893 C.3     1  UNL1        0.1713
     10 C          19.3442   70.2840   -4.3172 C.3     1  UNL1        0.1895
     11 C          18.2417   72.1712   -3.4236 C.3     1  UNL1        0.1764
     12 C          18.0950   70.5693   -5.1333 C.3     1  UNL1        0.2383
     13 H          18.5770   69.2955   -1.9621 H       1  UNL1        0.2105
     14 H          20.4124   68.7731   -3.6646 H       1  UNL1        0.2106
     15 O          16.1964   70.1493   -7.1815 O.2     1  UNL1       -0.2464
     16 O          19.2767   71.0858  -10.4797 O.2     1  UNL1       -0.2670
     17 N          18.3739   70.6967   -6.5357 N.ar    1  UNL1       -0.2551
     18 N          17.7326   70.6151   -8.8223 N.ar    1  UNL1       -0.2743
     19 C          17.3492   70.4637   -7.4832 C.ar    1  UNL1        0.3323
     20 C          19.6491   71.0501   -6.9600 C.ar    1  UNL1        0.0869
     21 C          19.9995   71.1907   -8.2399 C.ar    1  UNL1        0.0795
     22 C          18.9880   70.9644   -9.2931 C.ar    1  UNL1        0.2626
     23 H          17.0367   70.4561   -9.5003 H       1  UNL1        0.1734
     24 O          19.8113   76.0302   -2.1489 O.3     1  UNL1       -0.2703
     25 P          21.0274   75.8339   -1.1020 P.3     1  UNL1        0.2208
     26 O          20.3128   76.0335    0.3367 O.co2   1  UNL1       -0.4371
     27 O          22.1990   76.7416   -1.3418 O.2     1  UNL1       -0.5170
     28 O          21.3752   74.2600   -1.1691 O.3     1  UNL1       -0.2858
     29 O          22.7017   72.8135    0.1564 O.3     1  UNL1       -0.3226
     30 O          23.4711   71.4065   -3.6510 O.3     1  UNL1       -0.3794
     31 O          23.3471   74.2785   -3.1305 O.3     1  UNL1       -0.3775
     32 O          21.7002   69.9305   -1.8801 O.3     1  UNL1       -0.3792
     33 C          22.6898   72.0008   -2.6144 C.3     1  UNL1        0.1718
     34 C          23.3769   73.2749   -2.1222 C.3     1  UNL1        0.1968
     35 C          22.5677   70.9875   -1.4742 C.3     1  UNL1        0.1723
     36 C          22.6948   73.8129   -0.8636 C.3     1  UNL1        0.2706
     37 C          21.9952   71.6320   -0.2151 C.3     1  UNL1        0.1830
     38 H          23.5623   72.0324   -4.3867 H       1  UNL1        0.2105
     39 H          23.7780   73.9437   -3.9321 H       1  UNL1        0.2106
     40 H          22.0531   69.5119   -2.6808 H       1  UNL1        0.2106
     41 O          21.7103   71.3333    2.0939 O.co2   1  UNL1       -0.5466
     42 O          22.6929   69.6309    0.9383 O.co2   1  UNL1       -0.5466
     43 C          22.1844   70.7415    0.9696 C.2     1  UNL1        0.0799
@<TRIPOS>UNITY_ATOM_ATTR
2 1
charge -1
26 1
charge -1
41 1
charge -1
@<TRIPOS>BOND
     1     1     4    1
     2     1    24    1
     3     1     2    1
     4     1     3    2
     5    25    28    1
     6    25    24    1
     7    25    26    1
     8    25    27    2
     9     6    11    1
    10     6    12    1
    11    29    36    1
    12    29    37    1
    13     7     9    1
    14     7    13    1
    15     8    10    1
    16     8    14    1
    17     4     5    1
    18    28    36    1
    19    30    33    1
    20    30    38    1
    21    31    34    1
    22    31    39    1
    23    32    35    1
    24    32    40    1
    25    41    43   ar
    26    15    19    2
    27    42    43   ar
    28    16    22    2
    29    17    12    1
    30    17    19   ar
    31    17    20   ar
    32    18    19   ar
    33    18    22   ar
    34    18    23    1
    35     9    10    1
    36     9    11    1
    37    10    12    1
    38    11     5    1
    39    33    34    1
    40    33    35    1
    41    34    36    1
    42    35    37    1
    43    37    43    1
    44    20    21   ar
    45    21    22   ar
@<TRIPOS>MOLECULE
*****
 43 45 0 0 0
SMALL
GASTEIGER

@<TRIPOS>ATOM
      1 P          18.3921   70.1860   -3.0628 P.3     1  UNL1        0.2189
      2 O          16.9963   70.8171   -2.5410 O.co2   1  UNL1       -0.4371
      3 O          19.0297   69.1995   -2.1290 O.2     1  UNL1       -0.5170
      4 O          19.2882   71.4805   -3.4362 O.3     1  UNL1       -0.3112
      5 C          19.9198   72.1910   -2.3870 C.3     1  UNL1        0.1811
      6 O          22.0095   73.1693   -1.7133 O.3     1  UNL1       -0.3308
      7 O          23.3273   70.9490   -3.2381 O.3     1  UNL1       -0.3794
      8 O          23.5186   70.0939   -0.6558 O.3     1  UNL1       -0.3779
      9 C          22.1261   70.9266   -2.4668 C.3     1  UNL1        0.1713
     10 C          22.4517   70.9574   -0.9885 C.3     1  UNL1        0.1895
     11 C          21.4161   72.2590   -2.6644 C.3     1  UNL1        0.1764
     12 C          22.7949   72.4213   -0.7716 C.3     1  UNL1        0.2383
     13 H          23.7985   70.1079   -3.1279 H       1  UNL1        0.2105
     14 H          23.2505   69.1741   -0.8110 H       1  UNL1        0.2106
     15 O          21.2636   70.9440    1.0856 O.2     1  UNL1       -0.2464
     16 O          21.6520   74.2289    4.2954 O.2     1  UNL1       -0.2670
     17 N          22.4807   72.8668    0.5565 N.ar    1  UNL1       -0.2551
     18 N          21.4576   72.5819    2.6821 N.ar    1  UNL1       -0.2743
     19 C          21.7040   72.0483    1.4103 C.ar    1  UNL1        0.3323
     20 C          22.9412   74.1000    1.0015 C.ar    1  UNL1        0.0869
     21 C          22.6983   74.5951    2.2166 C.ar    1  UNL1        0.0795
     22 C          21.8935   73.8033    3.1699 C.ar    1  UNL1        0.2626
     23 H          20.9173   72.0311    3.2937 H       1  UNL1        0.1734
     24 O          17.9998   69.5856   -4.5114 O.3     1  UNL1       -0.2703
     25 P          17.1495   70.2230   -5.7297 P.3     1  UNL1        0.2208
     26 O          16.3899   71.4730   -5.0364 O.co2   1  UNL1       -0.4371
     27 O          16.2371   69.2501   -6.4190 O.2     1  UNL1       -0.5170
     28 O          18.2548   70.9000   -6.6901 O.3     1  UNL1       -0.2858
     29 O          19.7294   72.7470   -6.5386 O.3     1  UNL1       -0.3226
     30 O          18.3477   73.0904  -10.4168 O.3     1  UNL1       -0.3794
     31 O          16.5142   72.4115   -8.2462 O.3     1  UNL1       -0.3775
     32 O          21.0210   72.0692   -9.9053 O.3     1  UNL1       -0.3792
     33 C          18.7332   72.4024   -9.2269 C.3     1  UNL1        0.1718
     34 C          17.8525   72.8590   -8.0636 C.3     1  UNL1        0.1968
     35 C          20.2008   72.7317   -8.9446 C.3     1  UNL1        0.1723
     36 C          18.3806   72.3202   -6.7333 C.3     1  UNL1        0.2706
     37 C          20.6162   72.2733   -7.5497 C.3     1  UNL1        0.1830
     38 H          17.4183   72.8962  -10.6162 H       1  UNL1        0.2105
     39 H          16.1728   72.7495   -9.0886 H       1  UNL1        0.2106
     40 H          20.7667   72.3521  -10.7976 H       1  UNL1        0.2106
     41 O          22.2556   72.5302   -5.8920 O.co2   1  UNL1       -0.5466
     42 O          22.6094   73.5926   -7.8782 O.co2   1  UNL1       -0.5466
     43 C          21.9246   72.8802   -7.1596 C.2     1  UNL1        0.0799
@<TRIPOS>UNITY_ATOM_ATTR
2 1
charge -1
26 1
charge -1
41 1
charge -1
@<TRIPOS>BOND
     1     1     4    1
     2     1    24    1
     3     1     2    1
     4     1     3    2
     5    25    28    1
     6    25    24    1
     7    25    26    1
     8    25    27    2
     9     6    11    1
    10     6    12    1
    11    29    36    1
    12    29    37    1
    13     7     9    1
    14     7    13    1
    15     8    10    1
    16     8    14    1
    17     4     5    1
    18    28    36    1
    19    30    33    1
    20    30    38    1
    21    31    34    1
    22    31    39    1
    23    32    35    1
    24    32    40    1
    25    41    43   ar
    26    15    19    2
    27    42    43   ar
    28    16    22    2
    29    17    12    1
    30    17    19   ar
    31    17    20   ar
    32    18    19   ar
    33    18    22   ar
    34    18    23    1
    35     9    10    1
    36     9    11    1
    37    10    12    1
    38    11     5    1
    39    33    34    1
    40    33    35    1
    41    34    36    1
    42    35    37    1
    43    37    43    1
    44    20    21   ar
    45    21    22   ar
@<TRIPOS>MOLECULE
*****
 43 45 0 0 0
SMALL
GASTEIGER

@<TRIPOS>ATOM
      1 P          22.5114   73.0655   -4.5811 P.3     1  UNL1        0.2189
      2 O          21.7869   74.4898   -4.3258 O.co2   1  UNL1       -0.4371
      3 O          23.9028   72.9546   -4.0300 O.2     1  UNL1       -0.5170
      4 O          22.3673   72.8367   -6.1764 O.3     1  UNL1       -0.3112
      5 C          21.1071   73.0627   -6.7807 C.3     1  UNL1        0.1811
      6 O          19.0662   71.7928   -6.7690 O.3     1  UNL1       -0.3308
      7 O          20.4142   69.9593   -8.7216 O.3     1  UNL1       -0.3794
      8 O          18.8218   71.4780  -10.3321 O.3     1  UNL1       -0.3779
      9 C          20.5187   71.3775   -8.5935 C.3     1  UNL1        0.1713
     10 C          19.2643   72.0447   -9.1165 C.3     1  UNL1        0.1895
     11 C          20.4674   71.7203   -7.1109 C.3     1  UNL1        0.1764
     12 C          18.2872   71.8179   -7.9756 C.3     1  UNL1        0.2383
     13 H          20.4446   69.7160   -9.6605 H       1  UNL1        0.2105
     14 H          19.4777   71.6497  -11.0265 H       1  UNL1        0.2106
     15 O          15.9714   71.6860   -6.3644 O.2     1  UNL1       -0.2464
     16 O          14.5978   75.8856   -7.6760 O.2     1  UNL1       -0.2670
     17 N          17.3075   72.8626   -7.8772 N.ar    1  UNL1       -0.2551
     18 N          15.2890   73.7773   -7.0200 N.ar    1  UNL1       -0.2743
     19 C          16.1800   72.6962   -7.0388 C.ar    1  UNL1        0.3323
     20 C          17.4693   74.0358   -8.6042 C.ar    1  UNL1        0.0869
     21 C          16.6115   75.0576   -8.5758 C.ar    1  UNL1        0.0795
     22 C          15.4066   74.9639   -7.7256 C.ar    1  UNL1        0.2626
     23 H          14.4952   73.6839   -6.4450 H       1  UNL1        0.1734
     24 O          21.4569   72.0063   -3.9654 O.3     1  UNL1       -0.2703
     25 P          21.6797   70.7150   -3.0186 P.3     1  UNL1        0.2208
     26 O          23.2627   70.4129   -3.1716 O.co2   1  UNL1       -0.4371
     27 O          20.7930   69.5492   -3.3484 O.2     1  UNL1       -0.5170
     28 O          21.5158   71.2766   -1.5152 O.3     1  UNL1       -0.2858
     29 O          23.2295   72.6810   -0.6787 O.3     1  UNL1       -0.3226
     30 O          21.1688   71.7229    2.7715 O.3     1  UNL1       -0.3794
     31 O          21.7100   69.6803    0.7542 O.3     1  UNL1       -0.3775
     32 O          20.8516   74.3481    1.5638 O.3     1  UNL1       -0.3792
     33 C          21.3232   71.9927    1.3781 C.3     1  UNL1        0.1718
     34 C          22.2900   70.9796    0.7647 C.3     1  UNL1        0.1968
     35 C          21.8749   73.4123    1.2296 C.3     1  UNL1        0.1723
     36 C          22.6584   71.3722   -0.6667 C.3     1  UNL1        0.2706
     37 C          22.3365   73.6840   -0.1992 C.3     1  UNL1        0.1830
     38 H          20.8193   70.8257    2.8905 H       1  UNL1        0.2105
     39 H          21.4735   69.4249    1.6593 H       1  UNL1        0.2106
     40 H          20.5488   74.1860    2.4709 H       1  UNL1        0.2106
     41 O          24.2150   74.7602   -1.1018 O.co2   1  UNL1       -0.5466
     42 O          22.9292   75.9569    0.3522 O.co2   1  UNL1       -0.5466
     43 C          23.1631   74.9270   -0.2624 C.2     1  UNL1        0.0799
@<TRIPOS>UNITY_ATOM_ATTR
2 1
charge -1
26 1
charge -1
41 1
charge -1
@<TRIPOS>BOND
     1     1     4    1
     2     1    24    1
     3     1     2    1
     4     1     3    2
     5    25    28    1
     6    25    24    1
     7    25    26    1
     8    25    27    2
     9     6    11    1
    10     6    12    1
    11    29    36    1
    12    29    37    1
    13     7     9    1
    14     7    13    1
    15     8    10    1
    16     8    14    1
    17     4     5    1
    18    28    36    1
    19    30    33    1
    20    30    38    1
    21    31    34    1
    22    31    39    1
    23    32    35    1
    24    32    40    1
    25    41    43   ar
    26    15    19    2
    27    42    43   ar
    28    16    22    2
    29    17    12    1
    30    17    19   ar
    31    17    20   ar
    32    18    19   ar
    33    18    22   ar
    34    18    23    1
    35     9    10    1
    36     9    11    1
    37    10    12    1
    38    11     5    1
    39    33    34    1
    40    33    35    1
    41    34    36    1
    42    35    37    1
    43    37    43    1
    44    20    21   ar
    45    21    22   ar
@<TRIPOS>MOLECULE
*****
 43 45 0 0 0
SMALL
GASTEIGER

@<TRIPOS>ATOM
      1 P          21.5082   75.3388   -5.2075 P.3     1  UNL1        0.2189
      2 O          23.0442   75.7329   -4.8844 O.co2   1  UNL1       -0.4371
      3 O          20.4956   76.3846   -4.8432 O.2     1  UNL1       -0.5170
      4 O          21.3185   73.8986   -4.4947 O.3     1  UNL1       -0.3112
      5 C          21.5205   73.8044   -3.0966 C.3     1  UNL1        0.1811
      6 O          23.0940   73.0318   -1.4519 O.3     1  UNL1       -0.3308
      7 O          23.5112   70.6586   -3.2367 O.3     1  UNL1       -0.3794
      8 O          21.8464   69.6734   -1.3147 O.3     1  UNL1       -0.3779
      9 C          22.3143   71.3905   -2.9715 C.3     1  UNL1        0.1713
     10 C          21.7915   71.0575   -1.5901 C.3     1  UNL1        0.1895
     11 C          22.6849   72.8602   -2.8261 C.3     1  UNL1        0.1764
     12 C          22.7168   71.8683   -0.6988 C.3     1  UNL1        0.2383
     13 H          23.2997   69.7165   -3.3335 H       1  UNL1        0.2105
     14 H          21.2401   69.2015   -1.9077 H       1  UNL1        0.2106
     15 O          22.4917   70.2656    1.6157 O.2     1  UNL1       -0.2464
     16 O          20.2484   73.5741    3.9104 O.2     1  UNL1       -0.2670
     17 N          22.0788   72.2860    0.5175 N.ar    1  UNL1       -0.2551
     18 N          21.3737   71.9146    2.7560 N.ar    1  UNL1       -0.2743
     19 C          22.0194   71.4039    1.6223 C.ar    1  UNL1        0.3323
     20 C          21.5224   73.5560    0.6081 C.ar    1  UNL1        0.0869
     21 C          20.9103   74.0287    1.6956 C.ar    1  UNL1        0.0795
     22 C          20.8045   73.1702    2.8936 C.ar    1  UNL1        0.2626
     23 H          21.3181   71.3180    3.5373 H       1  UNL1        0.1734
     24 O          21.5528   74.9633   -6.7791 O.3     1  UNL1       -0.2703
     25 P          21.4841   73.5339   -7.5313 P.3     1  UNL1        0.2208
     26 O          22.6386   72.6719   -6.7935 O.co2   1  UNL1       -0.4371
     27 O          21.6313   73.6154   -9.0231 O.2     1  UNL1       -0.5170
     28 O          20.1001   72.8738   -7.0302 O.3     1  UNL1       -0.2858
     29 O          19.4782   70.6724   -6.4168 O.3     1  UNL1       -0.3226
     30 O          16.0926   71.9840   -8.3880 O.3     1  UNL1       -0.3794
     31 O          18.7486   72.5879   -9.4442 O.3     1  UNL1       -0.3775
     32 O          16.1185   71.8162   -5.4859 O.3     1  UNL1       -0.3792
     33 C          17.2650   72.1140   -7.5839 C.3     1  UNL1        0.1718
     34 C          18.4882   71.6714   -8.3874 C.3     1  UNL1        0.1968
     35 C          17.0913   71.2287   -6.3478 C.3     1  UNL1        0.1723
     36 C          19.7254   71.5777   -7.4933 C.3     1  UNL1        0.2706
     37 C          18.4009   71.0835   -5.5781 C.3     1  UNL1        0.1830
     38 H          16.1802   72.5380   -9.1797 H       1  UNL1        0.2105
     39 H          17.9675   72.6525  -10.0154 H       1  UNL1        0.2106
     40 H          15.2802   71.9143   -5.9638 H       1  UNL1        0.2106
     41 O          19.5463   69.5294   -4.2461 O.co2   1  UNL1       -0.5466
     42 O          17.2695   69.5262   -4.1233 O.co2   1  UNL1       -0.5466
     43 C          18.3100   69.9745   -4.5810 C.2     1  UNL1        0.0799
@<TRIPOS>UNITY_ATOM_ATTR
2 1
charge -1
26 1
charge -1
41 1
charge -1
@<TRIPOS>BOND
     1     1     4    1
     2     1    24    1
     3     1     2    1
     4     1     3    2
     5    25    28    1
     6    25    24    1
     7    25    26    1
     8    25    27    2
     9     6    11    1
    10     6    12    1
    11    29    36    1
    12    29    37    1
    13     7     9    1
    14     7    13    1
    15     8    10    1
    16     8    14    1
    17     4     5    1
    18    28    36    1
    19    30    33    1
    20    30    38    1
    21    31    34    1
    22    31    39    1
    23    32    35    1
    24    32    40    1
    25    41    43   ar
    26    15    19    2
    27    42    43   ar
    28    16    22    2
    29    17    12    1
    30    17    19   ar
    31    17    20   ar
    32    18    19   ar
    33    18    22   ar
    34    18    23    1
    35     9    10    1
    36     9    11    1
    37    10    12    1
    38    11     5    1
    39    33    34    1
    40    33    35    1
    41    34    36    1
    42    35    37    1
    43    37    43    1
    44    20    21   ar
    45    21    22   ar
