@<TRIPOS>MOLECULE
UD2
 46 48 0 0 0
SMALL
GASTEIGER

@<TRIPOS>ATOM
      1 P          20.4700   71.0941   -2.7261 P.3     1  UNL1        0.2189
      2 O          20.5064   70.0872   -3.9816 O.3     1  UNL1       -0.4371
      3 O          21.0222   72.4062   -3.1290 O.2     1  UNL1       -0.5170
      4 O          18.9485   71.2809   -2.2322 O.3     1  UNL1       -0.3112
      5 C          18.1368   72.3914   -2.6185 C.3     1  UNL1        0.1811
      6 C          16.7963   71.0698   -5.6833 C.3     1  UNL1        0.2383
      7 C          17.0479   69.8227   -4.7982 C.3     1  UNL1        0.1895
      8 O          16.1055   68.7897   -5.0927 O.3     1  UNL1       -0.3779
      9 C          16.8240   70.3847   -3.3730 C.3     1  UNL1        0.1713
     10 C          17.0107   71.9055   -3.5343 C.3     1  UNL1        0.1764
     11 O          17.3566   72.1508   -4.9068 O.3     1  UNL1       -0.3308
     12 O          15.5015   70.0878   -2.9216 O.3     1  UNL1       -0.3794
     13 H          16.2223   67.9882   -4.5648 H       1  UNL1        0.2106
     14 H          15.3097   69.1425   -2.8584 H       1  UNL1        0.2105
     15 N          17.4916   70.9409   -6.9658 N.ar    1  UNL1       -0.2551
     16 C          16.8104   70.5470   -8.0566 C.ar    1  UNL1        0.3323
     17 N          17.4239   70.4198   -9.2480 N.ar    1  UNL1       -0.2743
     18 C          18.7400   70.6894   -9.3660 C.ar    1  UNL1        0.2626
     19 C          19.4691   71.1060   -8.2263 C.ar    1  UNL1        0.0795
     20 C          18.8275   71.2291   -7.0453 C.ar    1  UNL1        0.0869
     21 O          15.6233   70.3007   -7.9650 O.2     1  UNL1       -0.2464
     22 O          19.2964   70.5751  -10.4439 O.2     1  UNL1       -0.2670
     23 H          16.9182   70.1335  -10.0242 H       1  UNL1        0.1734
     24 O          21.3528   70.4860   -1.5243 O.3     1  UNL1       -0.2703
     25 P          22.0453   71.1182   -0.2153 P.3     1  UNL1        0.2208
     26 O          21.6032   70.2765    1.0847 O.3     1  UNL1       -0.4371
     27 O          23.5165   71.0641   -0.3603 O.2     1  UNL1       -0.5170
     28 O          21.5781   72.6500   -0.0478 O.3     1  UNL1       -0.2865
     29 C          21.3489   73.2593    1.2240 C.3     1  UNL1        0.2611
     30 C          21.2703   74.7786    1.0562 C.3     1  UNL1        0.1582
     31 C          22.6121   75.2954    0.5280 C.3     1  UNL1        0.1625
     32 C          23.7244   74.8747    1.4925 C.3     1  UNL1        0.1686
     33 C          23.7083   73.3512    1.6434 C.3     1  UNL1        0.1760
     34 O          22.5722   76.7214    0.4379 O.3     1  UNL1       -0.3801
     35 O          23.5074   75.4837    2.7666 O.3     1  UNL1       -0.3794
     36 O          22.4232   72.9337    2.1083 O.3     1  UNL1       -0.3263
     37 H          23.3908   77.1174    0.1088 H       1  UNL1        0.2105
     38 H          24.1759   75.2598    3.4292 H       1  UNL1        0.2105
     39 C          20.5037   75.2955   -1.1983 C.2     1  UNL1        0.2231
     40 C          19.4123   75.6374   -2.1784 C.3     1  UNL1        0.0946
     41 N          20.2081   75.1114    0.1035 N.am    1  UNL1       -0.2994
     42 O          21.6500   75.1856   -1.5807 O.2     1  UNL1       -0.2751
     43 H          19.2920   75.2001    0.4098 H       1  UNL1        0.1496
     44 C          24.7782   72.9276    2.6516 C.3     1  UNL1        0.1693
     45 O          24.9388   71.5082    2.6086 O.3     1  UNL1       -0.3794
     46 H          25.6031   71.1681    3.2236 H       1  UNL1        0.2105
@<TRIPOS>BOND
     1    29    30    1
     2    30    41    1
     3    30    31    1
     4    31    34    1
     5    31    32    1
     6    32    35    1
     7    32    33    1
     8    33    36    1
     9    33    44    1
    10    39    40    1
    11    39    42    2
    12    39    41   am
    13    41    43    1
    14    29    28    1
    15    34    37    1
    16    35    38    1
    17    29    36    1
    18    44    45    1
    19    45    46    1
    20    15     6    1
    21    15    16   ar
    22    16    21    2
    23    16    17   ar
    24    17    23    1
    25    17    18   ar
    26    18    19   ar
    27    19    20   ar
    28    15    20   ar
    29    18    22    2
    30     6     7    1
    31     6    11    1
    32     7     9    1
    33     7     8    1
    34     8    13    1
    35     9    10    1
    36     9    12    1
    37    10     5    1
    38    10    11    1
    39    12    14    1
    40     5     4    1
    41     4     1    1
    42     1     2    1
    43     1    24    1
    44     1     3    2
    45    24    25    1
    46    28    25    1
    47    25    26    1
    48    25    27    2
@<TRIPOS>MOLECULE
UD2
 46 48 0 0 0
SMALL
GASTEIGER

@<TRIPOS>ATOM
      1 P          20.2386   71.2577   -2.5272 P.3     1  UNL1        0.2189
      2 O          19.7060   70.3269   -1.3266 O.3     1  UNL1       -0.4371
      3 O          20.9868   70.4302   -3.4990 O.2     1  UNL1       -0.5170
      4 O          18.9860   71.9510   -3.2647 O.3     1  UNL1       -0.3112
      5 C          17.6737   71.9853   -2.7007 C.3     1  UNL1        0.1811
      6 C          16.7026   70.4918   -5.8253 C.3     1  UNL1        0.2383
      7 C          17.1618   69.2987   -4.9491 C.3     1  UNL1        0.1895
      8 O          16.4438   68.1107   -5.2881 O.3     1  UNL1       -0.3779
      9 C          16.7923   69.7799   -3.5246 C.3     1  UNL1        0.1713
     10 C          16.6891   71.3112   -3.6594 C.3     1  UNL1        0.1764
     11 O          17.0224   71.6446   -5.0164 O.3     1  UNL1       -0.3308
     12 O          15.5383   69.2273   -3.1210 O.3     1  UNL1       -0.3794
     13 H          16.6961   67.3362   -4.7675 H       1  UNL1        0.2106
     14 H          15.5291   68.2617   -3.0767 H       1  UNL1        0.2105
     15 N          17.4475   70.5229   -7.0859 N.ar    1  UNL1       -0.2551
     16 C          16.7818   70.4954   -8.2542 C.ar    1  UNL1        0.3323
     17 N          17.4407   70.5227   -9.4278 N.ar    1  UNL1       -0.2743
     18 C          18.7879   70.5803   -9.4487 C.ar    1  UNL1        0.2626
     19 C          19.5013   70.6109   -8.2263 C.ar    1  UNL1        0.0795
     20 C          18.8148   70.5867   -7.0645 C.ar    1  UNL1        0.0869
     21 O          15.5670   70.4436   -8.2505 O.2     1  UNL1       -0.2464
     22 O          19.3854   70.6055  -10.5102 O.2     1  UNL1       -0.2670
     23 H          16.9453   70.5010  -10.2610 H       1  UNL1        0.1734
     24 O          21.2088   72.3975   -1.9331 O.3     1  UNL1       -0.2703
     25 P          22.6941   72.3884   -1.3112 P.3     1  UNL1        0.2208
     26 O          23.4722   71.0660   -1.8005 O.3     1  UNL1       -0.4371
     27 O          23.4277   73.5891   -1.7678 O.2     1  UNL1       -0.5170
     28 O          22.6027   72.3938    0.2964 O.3     1  UNL1       -0.2865
     29 C          22.9627   73.5241    1.0928 C.3     1  UNL1        0.2611
     30 C          23.3341   73.0586    2.5027 C.3     1  UNL1        0.1582
     31 C          22.1124   72.4018    3.1527 C.3     1  UNL1        0.1625
     32 C          20.9518   73.4005    3.1581 C.3     1  UNL1        0.1686
     33 C          20.6721   73.8529    1.7224 C.3     1  UNL1        0.1760
     34 O          22.4287   72.0300    4.4962 O.3     1  UNL1       -0.3801
     35 O          21.2996   74.5327    3.9570 O.3     1  UNL1       -0.3794
     36 O          21.8568   74.4263    1.1660 O.3     1  UNL1       -0.3263
     37 H          21.6990   71.6065    4.9688 H       1  UNL1        0.2105
     38 H          20.6088   75.2084    4.0047 H       1  UNL1        0.2105
     39 C          25.6950   72.4786    2.6694 C.2     1  UNL1        0.2231
     40 C          26.8207   71.4811    2.5899 C.3     1  UNL1        0.0946
     41 N          24.4286   72.0877    2.4250 N.am    1  UNL1       -0.2994
     42 O          25.9279   73.6350    2.9535 O.2     1  UNL1       -0.2751
     43 H          24.2421   71.1635    2.1969 H       1  UNL1        0.1496
     44 C          19.5530   74.8960    1.7256 C.3     1  UNL1        0.1693
     45 O          18.4056   74.3669    1.0578 O.3     1  UNL1       -0.3794
     46 H          17.6553   74.9757    1.0218 H       1  UNL1        0.2105
@<TRIPOS>BOND
     1    29    30    1
     2    30    41    1
     3    30    31    1
     4    31    34    1
     5    31    32    1
     6    32    35    1
     7    32    33    1
     8    33    36    1
     9    33    44    1
    10    39    40    1
    11    39    42    2
    12    39    41   am
    13    41    43    1
    14    29    28    1
    15    34    37    1
    16    35    38    1
    17    29    36    1
    18    44    45    1
    19    45    46    1
    20    15     6    1
    21    15    16   ar
    22    16    21    2
    23    16    17   ar
    24    17    23    1
    25    17    18   ar
    26    18    19   ar
    27    19    20   ar
    28    15    20   ar
    29    18    22    2
    30     6     7    1
    31     6    11    1
    32     7     9    1
    33     7     8    1
    34     8    13    1
    35     9    10    1
    36     9    12    1
    37    10     5    1
    38    10    11    1
    39    12    14    1
    40     5     4    1
    41     4     1    1
    42     1     2    1
    43     1    24    1
    44     1     3    2
    45    24    25    1
    46    28    25    1
    47    25    26    1
    48    25    27    2
@<TRIPOS>MOLECULE
UD2
 46 48 0 0 0
SMALL
GASTEIGER

@<TRIPOS>ATOM
      1 P          20.8097   71.0323   -3.0040 P.3     1  UNL1        0.2189
      2 O          21.0513   70.5172   -1.4982 O.3     1  UNL1       -0.4371
      3 O          20.9186   69.8914   -3.9397 O.2     1  UNL1       -0.5170
      4 O          19.3409   71.6827   -3.1194 O.3     1  UNL1       -0.3112
      5 C          18.1988   71.1469   -2.4487 C.3     1  UNL1        0.1811
      6 C          16.8035   70.6029   -5.7189 C.3     1  UNL1        0.2383
      7 C          16.8803   69.1894   -5.0879 C.3     1  UNL1        0.1895
      8 O          15.8321   68.3530   -5.5812 O.3     1  UNL1       -0.3779
      9 C          16.6820   69.4938   -3.5828 C.3     1  UNL1        0.1713
     10 C          17.0510   70.9835   -3.4481 C.3     1  UNL1        0.1764
     11 O          17.4639   71.4410   -4.7457 O.3     1  UNL1       -0.3308
     12 O          15.3209   69.2792   -3.2055 O.3     1  UNL1       -0.3794
     13 H          15.8380   67.4578   -5.2162 H       1  UNL1        0.2106
     14 H          15.0174   68.3693   -3.3261 H       1  UNL1        0.2105
     15 N          17.5166   70.6363   -6.9977 N.ar    1  UNL1       -0.2551
     16 C          16.8306   70.5033   -8.1469 C.ar    1  UNL1        0.3323
     17 N          17.4600   70.5300   -9.3365 N.ar    1  UNL1       -0.2743
     18 C          18.7974   70.6937   -9.3933 C.ar    1  UNL1        0.2626
     19 C          19.5319   70.8359   -8.1915 C.ar    1  UNL1        0.0795
     20 C          18.8745   70.8095   -7.0131 C.ar    1  UNL1        0.0869
     21 O          15.6243   70.3553   -8.1109 O.2     1  UNL1       -0.2464
     22 O          19.3683   70.7184  -10.4694 O.2     1  UNL1       -0.2670
     23 H          16.9504   70.4315  -10.1555 H       1  UNL1        0.1734
     24 O          21.9173   72.1402   -3.3768 O.3     1  UNL1       -0.2703
     25 P          23.5147   72.2295   -3.1943 P.3     1  UNL1        0.2208
     26 O          24.1160   70.7479   -3.0014 O.3     1  UNL1       -0.4371
     27 O          24.1146   72.8523   -4.3945 O.2     1  UNL1       -0.5170
     28 O          23.8576   73.1212   -1.8982 O.3     1  UNL1       -0.2865
     29 C          22.8529   73.7063   -1.0678 C.3     1  UNL1        0.2611
     30 C          23.4013   74.9819   -0.4236 C.3     1  UNL1        0.1582
     31 C          24.5915   74.6210    0.4706 C.3     1  UNL1        0.1625
     32 C          24.1408   73.5925    1.5115 C.3     1  UNL1        0.1686
     33 C          23.5639   72.3702    0.7925 C.3     1  UNL1        0.1760
     34 O          25.0639   75.7960    1.1335 O.3     1  UNL1       -0.3801
     35 O          23.1395   74.1701    2.3512 O.3     1  UNL1       -0.3794
     36 O          22.4812   72.7795   -0.0455 O.3     1  UNL1       -0.3263
     37 H          25.8191   75.6410    1.7172 H       1  UNL1        0.2105
     38 H          22.8065   73.5726    3.0354 H       1  UNL1        0.2105
     39 C          23.1269   77.0260   -1.7213 C.2     1  UNL1        0.2231
     40 C          23.5759   77.9803   -2.7967 C.3     1  UNL1        0.0946
     41 N          23.8385   75.9095   -1.4700 N.am    1  UNL1       -0.2994
     42 O          22.1240   77.2622   -1.0806 O.2     1  UNL1       -0.2751
     43 H          24.6399   75.7198   -1.9827 H       1  UNL1        0.1496
     44 C          23.0565   71.3631    1.8263 C.3     1  UNL1        0.1693
     45 O          21.9496   70.6396    1.2843 O.3     1  UNL1       -0.3794
     46 H          21.5760   69.9818    1.8866 H       1  UNL1        0.2105
@<TRIPOS>BOND
     1    29    30    1
     2    30    41    1
     3    30    31    1
     4    31    34    1
     5    31    32    1
     6    32    35    1
     7    32    33    1
     8    33    36    1
     9    33    44    1
    10    39    40    1
    11    39    42    2
    12    39    41   am
    13    41    43    1
    14    29    28    1
    15    34    37    1
    16    35    38    1
    17    29    36    1
    18    44    45    1
    19    45    46    1
    20    15     6    1
    21    15    16   ar
    22    16    21    2
    23    16    17   ar
    24    17    23    1
    25    17    18   ar
    26    18    19   ar
    27    19    20   ar
    28    15    20   ar
    29    18    22    2
    30     6     7    1
    31     6    11    1
    32     7     9    1
    33     7     8    1
    34     8    13    1
    35     9    10    1
    36     9    12    1
    37    10     5    1
    38    10    11    1
    39    12    14    1
    40     5     4    1
    41     4     1    1
    42     1     2    1
    43     1    24    1
    44     1     3    2
    45    24    25    1
    46    28    25    1
    47    25    26    1
    48    25    27    2
@<TRIPOS>MOLECULE
UD2
 46 48 0 0 0
SMALL
GASTEIGER

@<TRIPOS>ATOM
      1 P          23.0027   71.7218   -2.8534 P.3     1  UNL1        0.2189
      2 O          24.3105   70.8097   -3.0755 O.3     1  UNL1       -0.4371
      3 O          23.4087   73.0545   -2.3554 O.2     1  UNL1       -0.5170
      4 O          22.2200   71.8867   -4.2513 O.3     1  UNL1       -0.3112
      5 C          22.7329   72.6516   -5.3436 C.3     1  UNL1        0.1811
      6 C          19.6119   71.7842   -6.9068 C.3     1  UNL1        0.2383
      7 C          19.3776   73.2035   -6.3298 C.3     1  UNL1        0.1895
      8 O          18.4448   73.9319   -7.1305 O.3     1  UNL1       -0.3779
      9 C          20.7910   73.8292   -6.4213 C.3     1  UNL1        0.1713
     10 C          21.7356   72.6150   -6.5042 C.3     1  UNL1        0.1764
     11 O          20.9232   71.4338   -6.4134 O.3     1  UNL1       -0.3308
     12 O          20.9053   74.6336   -7.5963 O.3     1  UNL1       -0.3794
     13 H          18.2648   74.8260   -6.8097 H       1  UNL1        0.2106
     14 H          20.2914   75.3798   -7.6243 H       1  UNL1        0.2105
     15 N          18.6036   70.8494   -6.4022 N.ar    1  UNL1       -0.2551
     16 C          17.6399   70.4003   -7.2258 C.ar    1  UNL1        0.3323
     17 N          16.7003   69.5408   -6.7890 N.ar    1  UNL1       -0.2743
     18 C          16.7135   69.1133   -5.5101 C.ar    1  UNL1        0.2626
     19 C          17.7229   69.5771   -4.6325 C.ar    1  UNL1        0.0795
     20 C          18.6546   70.4351   -5.0984 C.ar    1  UNL1        0.0869
     21 O          17.6158   70.7772   -8.3815 O.2     1  UNL1       -0.2464
     22 O          15.8640   68.3351   -5.1136 O.2     1  UNL1       -0.2670
     23 H          16.0118   69.2278   -7.3957 H       1  UNL1        0.1734
     24 O          22.0339   71.0182   -1.7765 O.3     1  UNL1       -0.2703
     25 P          21.3068   71.5210   -0.4306 P.3     1  UNL1        0.2208
     26 O          19.9344   72.2729   -0.8114 O.3     1  UNL1       -0.4371
     27 O          21.0080   70.3577    0.4331 O.2     1  UNL1       -0.5170
     28 O          22.2764   72.5384    0.3552 O.3     1  UNL1       -0.2865
     29 C          22.3058   72.6422    1.7798 C.3     1  UNL1        0.2611
     30 C          22.5290   74.1021    2.1816 C.3     1  UNL1        0.1582
     31 C          23.8901   74.5656    1.6533 C.3     1  UNL1        0.1625
     32 C          24.9801   73.6399    2.2003 C.3     1  UNL1        0.1686
     33 C          24.6623   72.1974    1.7977 C.3     1  UNL1        0.1760
     34 O          24.1392   75.9049    2.0865 O.3     1  UNL1       -0.3801
     35 O          25.0217   73.7406    3.6249 O.3     1  UNL1       -0.3794
     36 O          23.3708   71.8396    2.2936 O.3     1  UNL1       -0.3263
     37 H          24.9857   76.2637    1.7868 H       1  UNL1        0.2105
     38 H          25.6910   73.1788    4.0402 H       1  UNL1        0.2105
     39 C          21.6602   75.5387    0.4155 C.2     1  UNL1        0.2231
     40 C          20.5725   76.3954   -0.1775 C.3     1  UNL1        0.0946
     41 N          21.4706   74.9354    1.6055 N.am    1  UNL1       -0.2994
     42 O          22.7081   75.3914   -0.1782 O.2     1  UNL1       -0.2751
     43 H          20.6334   75.0538    2.0810 H       1  UNL1        0.1496
     44 C          25.7148   71.2589    2.3910 C.3     1  UNL1        0.1693
     45 O          25.1198   69.9895    2.6685 O.3     1  UNL1       -0.3794
     46 H          25.7305   69.3427    3.0477 H       1  UNL1        0.2105
@<TRIPOS>BOND
     1    29    30    1
     2    30    41    1
     3    30    31    1
     4    31    34    1
     5    31    32    1
     6    32    35    1
     7    32    33    1
     8    33    36    1
     9    33    44    1
    10    39    40    1
    11    39    42    2
    12    39    41   am
    13    41    43    1
    14    29    28    1
    15    34    37    1
    16    35    38    1
    17    29    36    1
    18    44    45    1
    19    45    46    1
    20    15     6    1
    21    15    16   ar
    22    16    21    2
    23    16    17   ar
    24    17    23    1
    25    17    18   ar
    26    18    19   ar
    27    19    20   ar
    28    15    20   ar
    29    18    22    2
    30     6     7    1
    31     6    11    1
    32     7     9    1
    33     7     8    1
    34     8    13    1
    35     9    10    1
    36     9    12    1
    37    10     5    1
    38    10    11    1
    39    12    14    1
    40     5     4    1
    41     4     1    1
    42     1     2    1
    43     1    24    1
    44     1     3    2
    45    24    25    1
    46    28    25    1
    47    25    26    1
    48    25    27    2
@<TRIPOS>MOLECULE
UD2
 46 48 0 0 0
SMALL
GASTEIGER

@<TRIPOS>ATOM
      1 P          20.8408   73.9332   -1.1803 P.3     1  UNL1        0.2189
      2 O          20.0127   75.3108   -1.0912 O.3     1  UNL1       -0.4371
      3 O          22.1275   74.1741   -1.8697 O.2     1  UNL1       -0.5170
      4 O          21.1233   73.3800    0.3056 O.3     1  UNL1       -0.3112
      5 C          22.2573   73.7754    1.0795 C.3     1  UNL1        0.1811
      6 C          25.3987   72.2082    1.8620 C.3     1  UNL1        0.2383
      7 C          24.3328   71.2925    2.5159 C.3     1  UNL1        0.1895
      8 O          24.7729   69.9333    2.5389 O.3     1  UNL1       -0.3779
      9 C          23.1255   71.4661    1.5620 C.3     1  UNL1        0.1713
     10 C          23.4075   72.7953    0.8359 C.3     1  UNL1        0.1764
     11 O          24.6267   73.3282    1.3771 O.3     1  UNL1       -0.3308
     12 O          23.0690   70.3872    0.6274 O.3     1  UNL1       -0.3794
     13 H          24.1403   69.3215    2.9392 H       1  UNL1        0.2106
     14 H          22.9519   69.5185    1.0349 H       1  UNL1        0.2105
     15 N          26.3798   72.6490    2.8561 N.ar    1  UNL1       -0.2551
     16 C          27.4885   71.9177    3.0679 C.ar    1  UNL1        0.3323
     17 N          28.4069   72.2989    3.9754 N.ar    1  UNL1       -0.2743
     18 C          28.2276   73.4290    4.6890 C.ar    1  UNL1        0.2626
     19 C          27.0656   74.2090    4.4755 C.ar    1  UNL1        0.0795
     20 C          26.1635   73.8052    3.5564 C.ar    1  UNL1        0.0869
     21 O          27.6633   70.8965    2.4316 O.2     1  UNL1       -0.2464
     22 O          29.0583   73.7753    5.5103 O.2     1  UNL1       -0.2670
     23 H          29.2001   71.7594    4.1165 H       1  UNL1        0.1734
     24 O          19.9858   72.8450   -2.0038 O.3     1  UNL1       -0.2703
     25 P          20.1734   71.2754   -2.3105 P.3     1  UNL1        0.2208
     26 O          21.7441   70.9301   -2.3973 O.3     1  UNL1       -0.4371
     27 O          19.5540   70.4830   -1.2257 O.2     1  UNL1       -0.5170
     28 O          19.4658   70.9140   -3.7110 O.3     1  UNL1       -0.2865
     29 C          18.6540   71.8404   -4.4348 C.3     1  UNL1        0.2611
     30 C          17.2883   71.2102   -4.7187 C.3     1  UNL1        0.1582
     31 C          17.4803   69.9722   -5.6003 C.3     1  UNL1        0.1625
     32 C          18.2092   70.3805   -6.8834 C.3     1  UNL1        0.1686
     33 C          19.5397   71.0428   -6.5159 C.3     1  UNL1        0.1760
     34 O          16.2042   69.4195   -5.9311 O.3     1  UNL1       -0.3801
     35 O          17.4027   71.3031   -7.6180 O.3     1  UNL1       -0.3794
     36 O          19.2924   72.1681   -5.6707 O.3     1  UNL1       -0.3263
     37 H          16.2503   68.6305   -6.4884 H       1  UNL1        0.2105
     38 H          17.8038   71.6056   -8.4447 H       1  UNL1        0.2105
     39 C          16.7949   69.5594   -2.9956 C.2     1  UNL1        0.2231
     40 C          16.1473   69.1563   -1.6968 C.3     1  UNL1        0.0946
     41 N          16.6579   70.8187   -3.4554 N.am    1  UNL1       -0.2994
     42 O          17.4403   68.7502   -3.6286 O.2     1  UNL1       -0.2751
     43 H          16.1412   71.4658   -2.9501 H       1  UNL1        0.1496
     44 C          20.2470   71.5074   -7.7904 C.3     1  UNL1        0.1693
     45 O          19.8325   70.6938   -8.8897 O.3     1  UNL1       -0.3794
     46 H          20.2421   70.9321   -9.7326 H       1  UNL1        0.2105
@<TRIPOS>BOND
     1    29    30    1
     2    30    41    1
     3    30    31    1
     4    31    34    1
     5    31    32    1
     6    32    35    1
     7    32    33    1
     8    33    36    1
     9    33    44    1
    10    39    40    1
    11    39    42    2
    12    39    41   am
    13    41    43    1
    14    29    28    1
    15    34    37    1
    16    35    38    1
    17    29    36    1
    18    44    45    1
    19    45    46    1
    20    15     6    1
    21    15    16   ar
    22    16    21    2
    23    16    17   ar
    24    17    23    1
    25    17    18   ar
    26    18    19   ar
    27    19    20   ar
    28    15    20   ar
    29    18    22    2
    30     6     7    1
    31     6    11    1
    32     7     9    1
    33     7     8    1
    34     8    13    1
    35     9    10    1
    36     9    12    1
    37    10     5    1
    38    10    11    1
    39    12    14    1
    40     5     4    1
    41     4     1    1
    42     1     2    1
    43     1    24    1
    44     1     3    2
    45    24    25    1
    46    28    25    1
    47    25    26    1
    48    25    27    2
@<TRIPOS>MOLECULE
UD2
 46 48 0 0 0
SMALL
GASTEIGER

@<TRIPOS>ATOM
      1 P          21.7240   71.5362    1.1202 P.3     1  UNL1        0.2189
      2 O          21.5192   69.9453    0.9842 O.3     1  UNL1       -0.4371
      3 O          21.1545   71.9994    2.4048 O.2     1  UNL1       -0.5170
      4 O          23.2966   71.8804    1.0751 O.3     1  UNL1       -0.3112
      5 C          23.7976   73.1948    0.8247 C.3     1  UNL1        0.1811
      6 C          26.0068   73.9127    3.5708 C.3     1  UNL1        0.2383
      7 C          26.2570   75.0599    2.5592 C.3     1  UNL1        0.1895
      8 O          26.6244   76.2644    3.2345 O.3     1  UNL1       -0.3779
      9 C          24.8713   75.2060    1.8838 C.3     1  UNL1        0.1713
     10 C          24.1778   73.8566    2.1516 C.3     1  UNL1        0.1764
     11 O          25.1130   73.0282    2.8606 O.3     1  UNL1       -0.3308
     12 O          24.1352   76.2745    2.4815 O.3     1  UNL1       -0.3794
     13 H          26.7920   77.0113    2.6440 H       1  UNL1        0.2106
     14 H          24.5563   77.1402    2.3944 H       1  UNL1        0.2105
     15 N          27.2604   73.2285    3.8952 N.ar    1  UNL1       -0.2551
     16 C          27.9656   73.6065    4.9762 C.ar    1  UNL1        0.3323
     17 N          29.1212   72.9955    5.2980 N.ar    1  UNL1       -0.2743
     18 C          29.5906   71.9867    4.5361 C.ar    1  UNL1        0.2626
     19 C          28.8579   71.5777    3.3958 C.ar    1  UNL1        0.0795
     20 C          27.7004   72.2052    3.0993 C.ar    1  UNL1        0.0869
     21 O          27.5543   74.5146    5.6723 O.2     1  UNL1       -0.2464
     22 O          30.6361   71.4326    4.8264 O.2     1  UNL1       -0.2670
     23 H          29.6178   73.2814    6.0801 H       1  UNL1        0.1734
     24 O          20.9774   72.2798   -0.0975 O.3     1  UNL1       -0.2703
     25 P          20.8199   71.9682   -1.6695 P.3     1  UNL1        0.2208
     26 O          21.0832   73.3152   -2.5121 O.3     1  UNL1       -0.4371
     27 O          21.8023   70.9371   -2.0692 O.2     1  UNL1       -0.5170
     28 O          19.3299   71.4333   -1.9637 O.3     1  UNL1       -0.2865
     29 C          19.0598   70.2892   -2.7757 C.3     1  UNL1        0.2611
     30 C          18.8405   70.7308   -4.2246 C.3     1  UNL1        0.1582
     31 C          17.6148   71.6473   -4.2900 C.3     1  UNL1        0.1625
     32 C          16.4037   70.9037   -3.7201 C.3     1  UNL1        0.1686
     33 C          16.7171   70.4553   -2.2902 C.3     1  UNL1        0.1760
     34 O          17.3588   72.0056   -5.6499 O.3     1  UNL1       -0.3801
     35 O          16.1215   69.7602   -4.5288 O.3     1  UNL1       -0.3794
     36 O          17.8850   69.6319   -2.2961 O.3     1  UNL1       -0.3263
     37 H          16.5949   72.5871   -5.7659 H       1  UNL1        0.2105
     38 H          15.3645   69.2400   -4.2250 H       1  UNL1        0.2105
     39 C          20.4940   71.2372   -5.9413 C.2     1  UNL1        0.2231
     40 C          21.7075   71.9840   -6.4296 C.3     1  UNL1        0.0946
     41 N          20.0210   71.4574   -4.6988 N.am    1  UNL1       -0.2994
     42 O          19.9416   70.4367   -6.6667 O.2     1  UNL1       -0.2751
     43 H          20.4630   72.0966   -4.1181 H       1  UNL1        0.1496
     44 C          15.5344   69.6597   -1.7347 C.3     1  UNL1        0.1693
     45 O          15.9972   68.4034   -1.2349 O.3     1  UNL1       -0.3794
     46 H          15.2992   67.8448   -0.8664 H       1  UNL1        0.2105
@<TRIPOS>BOND
     1    29    30    1
     2    30    41    1
     3    30    31    1
     4    31    34    1
     5    31    32    1
     6    32    35    1
     7    32    33    1
     8    33    36    1
     9    33    44    1
    10    39    40    1
    11    39    42    2
    12    39    41   am
    13    41    43    1
    14    29    28    1
    15    34    37    1
    16    35    38    1
    17    29    36    1
    18    44    45    1
    19    45    46    1
    20    15     6    1
    21    15    16   ar
    22    16    21    2
    23    16    17   ar
    24    17    23    1
    25    17    18   ar
    26    18    19   ar
    27    19    20   ar
    28    15    20   ar
    29    18    22    2
    30     6     7    1
    31     6    11    1
    32     7     9    1
    33     7     8    1
    34     8    13    1
    35     9    10    1
    36     9    12    1
    37    10     5    1
    38    10    11    1
    39    12    14    1
    40     5     4    1
    41     4     1    1
    42     1     2    1
    43     1    24    1
    44     1     3    2
    45    24    25    1
    46    28    25    1
    47    25    26    1
    48    25    27    2
@<TRIPOS>MOLECULE
UD2
 46 48 0 0 0
SMALL
GASTEIGER

@<TRIPOS>ATOM
      1 P          22.7661   71.5511   -3.2816 P.3     1  UNL1        0.2189
      2 O          24.1961   70.8467   -3.0574 O.3     1  UNL1       -0.4371
      3 O          21.6896   70.6304   -2.8545 O.2     1  UNL1       -0.5170
      4 O          22.6921   72.9039   -2.4109 O.3     1  UNL1       -0.3112
      5 C          22.1499   72.9492   -1.0898 C.3     1  UNL1        0.1811
      6 C          24.3598   71.8881    1.5422 C.3     1  UNL1        0.2383
      7 C          22.9683   71.9863    2.2176 C.3     1  UNL1        0.1895
      8 O          22.8474   71.0353    3.2772 O.3     1  UNL1       -0.3779
      9 C          22.0143   71.6358    1.0494 C.3     1  UNL1        0.1713
     10 C          22.8517   71.9074   -0.2149 C.3     1  UNL1        0.1764
     11 O          24.1265   72.4099    0.2160 O.3     1  UNL1       -0.3308
     12 O          21.6335   70.2604    1.1118 O.3     1  UNL1       -0.3794
     13 H          21.9941   71.0582    3.7312 H       1  UNL1        0.2106
     14 H          21.1541   70.0203    1.9162 H       1  UNL1        0.2105
     15 N          25.3388   72.7110    2.2560 N.ar    1  UNL1       -0.2551
     16 C          26.4520   72.1423    2.7521 C.ar    1  UNL1        0.3323
     17 N          27.3686   72.8743    3.4126 N.ar    1  UNL1       -0.2743
     18 C          27.1829   74.1987    3.5858 C.ar    1  UNL1        0.2626
     19 C          26.0161   74.8106    3.0679 C.ar    1  UNL1        0.0795
     20 C          25.1159   74.0533    2.4063 C.ar    1  UNL1        0.0869
     21 O          26.6327   70.9492    2.6032 O.2     1  UNL1       -0.2464
     22 O          28.0119   74.8625    4.1830 O.2     1  UNL1       -0.2670
     23 H          28.1651   72.4482    3.7649 H       1  UNL1        0.1734
     24 O          22.5813   71.9067   -4.8413 O.3     1  UNL1       -0.2703
     25 P          22.1536   73.2370   -5.6415 P.3     1  UNL1        0.2208
     26 O          22.2329   74.5061   -4.6530 O.3     1  UNL1       -0.4371
     27 O          23.0720   73.4433   -6.7827 O.2     1  UNL1       -0.5170
     28 O          20.6473   73.0743   -6.1867 O.3     1  UNL1       -0.2865
     29 C          19.7484   72.0743   -5.7038 C.3     1  UNL1        0.2611
     30 C          18.5348   71.9865   -6.6323 C.3     1  UNL1        0.1582
     31 C          17.7923   73.3262   -6.6161 C.3     1  UNL1        0.1625
     32 C          17.3977   73.6615   -5.1752 C.3     1  UNL1        0.1686
     33 C          18.6555   73.6849   -4.3027 C.3     1  UNL1        0.1760
     34 O          16.6165   73.2299   -7.4233 O.3     1  UNL1       -0.3801
     35 O          16.4937   72.6700   -4.6845 O.3     1  UNL1       -0.3794
     36 O          19.3150   72.4200   -4.3866 O.3     1  UNL1       -0.3263
     37 H          16.0968   74.0447   -7.4592 H       1  UNL1        0.2105
     38 H          16.2017   72.8190   -3.7743 H       1  UNL1        0.2105
     39 C          18.4846   70.6245   -8.6523 C.2     1  UNL1        0.2231
     40 C          18.9439   70.3202  -10.0541 C.3     1  UNL1        0.0946
     41 N          18.9822   71.6910   -7.9958 N.am    1  UNL1       -0.2994
     42 O          17.6661   69.9091   -8.1132 O.2     1  UNL1       -0.2751
     43 H          19.6374   72.2626   -8.4260 H       1  UNL1        0.1496
     44 C          18.2631   73.9605   -2.8499 C.3     1  UNL1        0.1693
     45 O          19.0630   75.0263   -2.3336 O.3     1  UNL1       -0.3794
     46 H          18.8682   75.2555   -1.4147 H       1  UNL1        0.2105
@<TRIPOS>BOND
     1    29    30    1
     2    30    41    1
     3    30    31    1
     4    31    34    1
     5    31    32    1
     6    32    35    1
     7    32    33    1
     8    33    36    1
     9    33    44    1
    10    39    40    1
    11    39    42    2
    12    39    41   am
    13    41    43    1
    14    29    28    1
    15    34    37    1
    16    35    38    1
    17    29    36    1
    18    44    45    1
    19    45    46    1
    20    15     6    1
    21    15    16   ar
    22    16    21    2
    23    16    17   ar
    24    17    23    1
    25    17    18   ar
    26    18    19   ar
    27    19    20   ar
    28    15    20   ar
    29    18    22    2
    30     6     7    1
    31     6    11    1
    32     7     9    1
    33     7     8    1
    34     8    13    1
    35     9    10    1
    36     9    12    1
    37    10     5    1
    38    10    11    1
    39    12    14    1
    40     5     4    1
    41     4     1    1
    42     1     2    1
    43     1    24    1
    44     1     3    2
    45    24    25    1
    46    28    25    1
    47    25    26    1
    48    25    27    2
@<TRIPOS>MOLECULE
UD2
 46 48 0 0 0
SMALL
GASTEIGER

@<TRIPOS>ATOM
      1 P          23.4016   72.0726   -3.4060 P.3     1  UNL1        0.2189
      2 O          24.2173   72.8575   -4.5505 O.3     1  UNL1       -0.4371
      3 O          24.1717   70.8842   -2.9775 O.2     1  UNL1       -0.5170
      4 O          23.1738   73.0479   -2.1448 O.3     1  UNL1       -0.3112
      5 C          22.2454   72.7602   -1.0976 C.3     1  UNL1        0.1811
      6 C          24.3517   71.8007    1.6554 C.3     1  UNL1        0.2383
      7 C          22.9605   72.0416    2.2947 C.3     1  UNL1        0.1895
      8 O          22.7675   71.1957    3.4300 O.3     1  UNL1       -0.3779
      9 C          22.0015   71.6491    1.1441 C.3     1  UNL1        0.1713
     10 C          22.8701   71.7581   -0.1237 C.3     1  UNL1        0.1764
     11 O          24.1681   72.2180    0.2851 O.3     1  UNL1       -0.3308
     12 O          21.5354   70.3100    1.3180 O.3     1  UNL1       -0.3794
     13 H          21.9116   71.3099    3.8649 H       1  UNL1        0.2106
     14 H          21.0320   70.1705    2.1314 H       1  UNL1        0.2105
     15 N          25.3707   72.6217    2.3131 N.ar    1  UNL1       -0.2551
     16 C          26.5302   72.0611    2.7005 C.ar    1  UNL1        0.3323
     17 N          27.4843   72.7917    3.3073 N.ar    1  UNL1       -0.2743
     18 C          27.2901   74.1066    3.5352 C.ar    1  UNL1        0.2626
     19 C          26.0747   74.7100    3.1317 C.ar    1  UNL1        0.0795
     20 C          25.1373   73.9544    2.5217 C.ar    1  UNL1        0.0869
     21 O          26.7191   70.8767    2.5012 O.2     1  UNL1       -0.2464
     22 O          28.1530   74.7691    4.0839 O.2     1  UNL1       -0.2670
     23 H          28.3140   72.3715    3.5813 H       1  UNL1        0.1734
     24 O          21.9741   71.6065   -3.9877 O.3     1  UNL1       -0.2703
     25 P          20.9554   72.2196   -5.0736 P.3     1  UNL1        0.2208
     26 O          20.9343   73.8246   -4.9427 O.3     1  UNL1       -0.4371
     27 O          21.3978   71.8420   -6.4338 O.2     1  UNL1       -0.5170
     28 O          19.4767   71.6396   -4.8095 O.3     1  UNL1       -0.2865
     29 C          19.1164   70.2808   -5.0646 C.3     1  UNL1        0.2611
     30 C          18.0449   70.2324   -6.1565 C.3     1  UNL1        0.1582
     31 C          16.7914   70.9611   -5.6625 C.3     1  UNL1        0.1625
     32 C          16.3194   70.3148   -4.3571 C.3     1  UNL1        0.1686
     33 C          17.4577   70.3602   -3.3342 C.3     1  UNL1        0.1760
     34 O          15.7601   70.8575   -6.6468 O.3     1  UNL1       -0.3801
     35 O          15.9510   68.9564   -4.6026 O.3     1  UNL1       -0.3794
     36 O          18.6025   69.6921   -3.8681 O.3     1  UNL1       -0.3263
     37 H          14.9355   71.2984   -6.3999 H       1  UNL1        0.2105
     38 H          15.6419   68.4839   -3.8170 H       1  UNL1        0.2105
     39 C          18.5427   70.2315   -8.5419 C.2     1  UNL1        0.2231
     40 C          19.0599   70.9059   -9.7853 C.3     1  UNL1        0.0946
     41 N          18.5485   70.8891   -7.3656 N.am    1  UNL1       -0.2994
     42 O          18.1205   69.0954   -8.5987 O.2     1  UNL1       -0.2751
     43 H          18.8868   71.7970   -7.3195 H       1  UNL1        0.1496
     44 C          17.0142   69.6630   -2.0467 C.3     1  UNL1        0.1693
     45 O          17.3514   68.2759   -2.1148 O.3     1  UNL1       -0.3794
     46 H          17.0988   67.7702   -1.3303 H       1  UNL1        0.2105
@<TRIPOS>BOND
     1    29    30    1
     2    30    41    1
     3    30    31    1
     4    31    34    1
     5    31    32    1
     6    32    35    1
     7    32    33    1
     8    33    36    1
     9    33    44    1
    10    39    40    1
    11    39    42    2
    12    39    41   am
    13    41    43    1
    14    29    28    1
    15    34    37    1
    16    35    38    1
    17    29    36    1
    18    44    45    1
    19    45    46    1
    20    15     6    1
    21    15    16   ar
    22    16    21    2
    23    16    17   ar
    24    17    23    1
    25    17    18   ar
    26    18    19   ar
    27    19    20   ar
    28    15    20   ar
    29    18    22    2
    30     6     7    1
    31     6    11    1
    32     7     9    1
    33     7     8    1
    34     8    13    1
    35     9    10    1
    36     9    12    1
    37    10     5    1
    38    10    11    1
    39    12    14    1
    40     5     4    1
    41     4     1    1
    42     1     2    1
    43     1    24    1
    44     1     3    2
    45    24    25    1
    46    28    25    1
    47    25    26    1
    48    25    27    2
@<TRIPOS>MOLECULE
UD2
 46 48 0 0 0
SMALL
GASTEIGER

@<TRIPOS>ATOM
      1 P          23.1841   71.7078   -2.4373 P.3     1  UNL1        0.2189
      2 O          24.3903   70.7817   -2.9654 O.3     1  UNL1       -0.4371
      3 O          23.7205   73.0152   -1.9992 O.2     1  UNL1       -0.5170
      4 O          22.1217   71.9346   -3.6262 O.3     1  UNL1       -0.3112
      5 C          22.5047   72.3209   -4.9474 C.3     1  UNL1        0.1811
      6 C          19.2719   71.0734   -5.9116 C.3     1  UNL1        0.2383
      7 C          19.1725   72.6074   -6.1094 C.3     1  UNL1        0.1895
      8 O          18.2743   72.9274   -7.1735 O.3     1  UNL1       -0.3779
      9 C          20.6276   72.9821   -6.4832 C.3     1  UNL1        0.1713
     10 C          21.4682   71.8065   -5.9495 C.3     1  UNL1        0.1764
     11 O          20.5670   70.8976   -5.2973 O.3     1  UNL1       -0.3308
     12 O          20.7656   73.0932   -7.9008 O.3     1  UNL1       -0.3794
     13 H          18.1779   73.8756   -7.3356 H       1  UNL1        0.2106
     14 H          20.2131   73.7798   -8.2979 H       1  UNL1        0.2105
     15 N          18.2098   70.5981   -5.0222 N.ar    1  UNL1       -0.2551
     16 C          17.1821   69.8936   -5.5286 C.ar    1  UNL1        0.3323
     17 N          16.1921   69.4445   -4.7346 N.ar    1  UNL1       -0.2743
     18 C          16.2180   69.6951   -3.4098 C.ar    1  UNL1        0.2626
     19 C          17.2943   70.4347   -2.8632 C.ar    1  UNL1        0.0795
     20 C          18.2754   70.8690   -3.6819 C.ar    1  UNL1        0.0869
     21 O          17.1459   69.6600   -6.7212 O.2     1  UNL1       -0.2464
     22 O          15.3228   69.2889   -2.6900 O.2     1  UNL1       -0.2670
     23 H          15.4579   68.9390   -5.1162 H       1  UNL1        0.1734
     24 O          22.4545   70.9839   -1.1975 O.3     1  UNL1       -0.2703
     25 P          22.6558   71.0293    0.3995 P.3     1  UNL1        0.2208
     26 O          21.4166   70.2925    1.1172 O.3     1  UNL1       -0.4371
     27 O          23.9142   70.3392    0.7581 O.2     1  UNL1       -0.5170
     28 O          22.7256   72.5619    0.8882 O.3     1  UNL1       -0.2865
     29 C          22.5384   72.9543    2.2491 C.3     1  UNL1        0.2611
     30 C          21.5425   74.1148    2.3142 C.3     1  UNL1        0.1582
     31 C          22.1209   75.3156    1.5593 C.3     1  UNL1        0.1625
     32 C          23.4783   75.6809    2.1662 C.3     1  UNL1        0.1686
     33 C          24.3999   74.4598    2.1067 C.3     1  UNL1        0.1760
     34 O          21.2303   76.4274    1.6772 O.3     1  UNL1       -0.3801
     35 O          23.3014   76.0806    3.5264 O.3     1  UNL1       -0.3794
     36 O          23.7894   73.3701    2.8009 O.3     1  UNL1       -0.3263
     37 H          21.5340   77.2242    1.2211 H       1  UNL1        0.2105
     38 H          24.1227   76.3261    3.9750 H       1  UNL1        0.2105
     39 C          20.0743   73.9196    0.3793 C.2     1  UNL1        0.2231
     40 C          18.7748   73.5032   -0.2583 C.3     1  UNL1        0.0946
     41 N          20.2781   73.7097    1.6948 N.am    1  UNL1       -0.2994
     42 O          20.9386   74.4443   -0.2914 O.2     1  UNL1       -0.2751
     43 H          19.5870   73.2912    2.2316 H       1  UNL1        0.1496
     44 C          25.7384   74.7988    2.7653 C.3     1  UNL1        0.1693
     45 O          26.0711   76.1622    2.4956 O.3     1  UNL1       -0.3794
     46 H          26.9098   76.4471    2.8835 H       1  UNL1        0.2105
@<TRIPOS>BOND
     1    29    30    1
     2    30    41    1
     3    30    31    1
     4    31    34    1
     5    31    32    1
     6    32    35    1
     7    32    33    1
     8    33    36    1
     9    33    44    1
    10    39    40    1
    11    39    42    2
    12    39    41   am
    13    41    43    1
    14    29    28    1
    15    34    37    1
    16    35    38    1
    17    29    36    1
    18    44    45    1
    19    45    46    1
    20    15     6    1
    21    15    16   ar
    22    16    21    2
    23    16    17   ar
    24    17    23    1
    25    17    18   ar
    26    18    19   ar
    27    19    20   ar
    28    15    20   ar
    29    18    22    2
    30     6     7    1
    31     6    11    1
    32     7     9    1
    33     7     8    1
    34     8    13    1
    35     9    10    1
    36     9    12    1
    37    10     5    1
    38    10    11    1
    39    12    14    1
    40     5     4    1
    41     4     1    1
    42     1     2    1
    43     1    24    1
    44     1     3    2
    45    24    25    1
    46    28    25    1
    47    25    26    1
    48    25    27    2
@<TRIPOS>MOLECULE
UD2
 46 48 0 0 0
SMALL
GASTEIGER

@<TRIPOS>ATOM
      1 P          16.3425   70.6316   -2.3657 P.3     1  UNL1        0.2189
      2 O          16.2869   71.9280   -1.4130 O.3     1  UNL1       -0.4371
      3 O          17.6827   70.0110   -2.2777 O.2     1  UNL1       -0.5170
      4 O          15.2274   69.5701   -1.8928 O.3     1  UNL1       -0.3112
      5 C          14.4994   69.7003   -0.6703 C.3     1  UNL1        0.1811
      6 C          12.1285   67.4286    0.7975 C.3     1  UNL1        0.2383
      7 C          11.4547   68.8200    0.9076 C.3     1  UNL1        0.1895
      8 O          10.0322   68.7049    0.8372 O.3     1  UNL1       -0.3779
      9 C          12.0121   69.5509   -0.3384 C.3     1  UNL1        0.1713
     10 C          13.2880   68.7651   -0.6964 C.3     1  UNL1        0.1764
     11 O          13.4459   67.7331    0.2903 O.3     1  UNL1       -0.3308
     12 O          11.0716   69.4945   -1.4122 O.3     1  UNL1       -0.3794
     13 H           9.5653   69.5489    0.9021 H       1  UNL1        0.2106
     14 H          10.2268   69.9230   -1.2191 H       1  UNL1        0.2105
     15 N          12.2164   66.7925    2.1138 N.ar    1  UNL1       -0.2551
     16 C          13.4191   66.6128    2.6882 C.ar    1  UNL1        0.3323
     17 N          13.5296   66.0308    3.8970 N.ar    1  UNL1       -0.2743
     18 C          12.4272   65.6183    4.5550 C.ar    1  UNL1        0.2626
     19 C          11.1546   65.8020    3.9626 C.ar    1  UNL1        0.0795
     20 C          11.0731   66.3922    2.7516 C.ar    1  UNL1        0.0869
     21 O          14.4217   66.9801    2.1065 O.2     1  UNL1       -0.2464
     22 O          12.5258   65.0918    5.6493 O.2     1  UNL1       -0.2670
     23 H          14.4046   65.9079    4.2962 H       1  UNL1        0.1734
     24 O          16.0530   71.0709   -3.8877 O.3     1  UNL1       -0.2703
     25 P          16.4423   72.3585   -4.7729 P.3     1  UNL1        0.2208
     26 O          15.1820   72.7867   -5.6795 O.3     1  UNL1       -0.4371
     27 O          16.8098   73.4788   -3.8795 O.2     1  UNL1       -0.5170
     28 O          17.6905   71.9982   -5.7241 O.3     1  UNL1       -0.2865
     29 C          18.3104   70.7111   -5.7409 C.3     1  UNL1        0.2611
     30 C          19.7870   70.8498   -5.3625 C.3     1  UNL1        0.1582
     31 C          20.4932   71.7198   -6.4069 C.3     1  UNL1        0.1625
     32 C          20.3050   71.0916   -7.7905 C.3     1  UNL1        0.1686
     33 C          18.8081   70.9436   -8.0753 C.3     1  UNL1        0.1760
     34 O          21.8877   71.7942   -6.1019 O.3     1  UNL1       -0.3801
     35 O          20.9267   69.8055   -7.8197 O.3     1  UNL1       -0.3794
     36 O          18.2061   70.1497   -7.0510 O.3     1  UNL1       -0.3263
     37 H          22.3977   72.3315   -6.7235 H       1  UNL1        0.2105
     38 H          20.8459   69.3480   -8.6684 H       1  UNL1        0.2105
     39 C          20.8107   71.0356   -3.1591 C.2     1  UNL1        0.2231
     40 C          20.9249   71.6834   -1.8041 C.3     1  UNL1        0.0946
     41 N          19.8973   71.4802   -4.0446 N.am    1  UNL1       -0.2994
     42 O          21.5412   70.1129   -3.4540 O.2     1  UNL1       -0.2751
     43 H          19.3123   72.2173   -3.8089 H       1  UNL1        0.1496
     44 C          18.6120   70.2618   -9.4308 C.3     1  UNL1        0.1693
     45 O          19.3978   70.9308  -10.4194 O.3     1  UNL1       -0.3794
     46 H          19.3223   70.5513  -11.3056 H       1  UNL1        0.2105
@<TRIPOS>BOND
     1    29    30    1
     2    30    41    1
     3    30    31    1
     4    31    34    1
     5    31    32    1
     6    32    35    1
     7    32    33    1
     8    33    36    1
     9    33    44    1
    10    39    40    1
    11    39    42    2
    12    39    41   am
    13    41    43    1
    14    29    28    1
    15    34    37    1
    16    35    38    1
    17    29    36    1
    18    44    45    1
    19    45    46    1
    20    15     6    1
    21    15    16   ar
    22    16    21    2
    23    16    17   ar
    24    17    23    1
    25    17    18   ar
    26    18    19   ar
    27    19    20   ar
    28    15    20   ar
    29    18    22    2
    30     6     7    1
    31     6    11    1
    32     7     9    1
    33     7     8    1
    34     8    13    1
    35     9    10    1
    36     9    12    1
    37    10     5    1
    38    10    11    1
    39    12    14    1
    40     5     4    1
    41     4     1    1
    42     1     2    1
    43     1    24    1
    44     1     3    2
    45    24    25    1
    46    28    25    1
    47    25    26    1
    48    25    27    2
@<TRIPOS>MOLECULE
UD2
 46 48 0 0 0
SMALL
GASTEIGER

@<TRIPOS>ATOM
      1 P          22.1711   72.9881   -6.4653 P.3     1  UNL1        0.2189
      2 O          23.0529   73.3432   -7.7644 O.3     1  UNL1       -0.4371
      3 O          21.4683   74.2033   -5.9981 O.2     1  UNL1       -0.5170
      4 O          21.0908   71.8552   -6.8435 O.3     1  UNL1       -0.3112
      5 C          20.7229   71.5509   -8.1902 C.3     1  UNL1        0.1811
      6 C          17.6694   70.1145   -6.9452 C.3     1  UNL1        0.2383
      7 C          17.2131   71.1086   -8.0433 C.3     1  UNL1        0.1895
      8 O          16.0124   70.6573   -8.6728 O.3     1  UNL1       -0.3779
      9 C          18.4037   71.0696   -9.0324 C.3     1  UNL1        0.1713
     10 C          19.5770   70.5360   -8.1885 C.3     1  UNL1        0.1764
     11 O          19.0911   70.3496   -6.8496 O.3     1  UNL1       -0.3308
     12 O          18.1228   70.1828  -10.1166 O.3     1  UNL1       -0.3794
     13 H          15.6866   71.2462   -9.3669 H       1  UNL1        0.2106
     14 H          17.3562   70.4390  -10.6468 H       1  UNL1        0.2105
     15 N          17.0098   70.4137   -5.6722 N.ar    1  UNL1       -0.2551
     16 C          16.4935   69.4123   -4.9377 C.ar    1  UNL1        0.3323
     17 N          15.8817   69.6582   -3.7641 N.ar    1  UNL1       -0.2743
     18 C          15.7788   70.9216   -3.3039 C.ar    1  UNL1        0.2626
     19 C          16.3188   71.9852   -4.0663 C.ar    1  UNL1        0.0795
     20 C          16.9305   71.7093   -5.2373 C.ar    1  UNL1        0.0869
     21 O          16.5791   68.2682   -5.3403 O.2     1  UNL1       -0.2464
     22 O          15.2257   71.1454   -2.2416 O.2     1  UNL1       -0.2670
     23 H          15.5138   68.9247   -3.2476 H       1  UNL1        0.1734
     24 O          23.1339   72.4414   -5.2959 O.3     1  UNL1       -0.2703
     25 P          22.8926   71.9885   -3.7696 P.3     1  UNL1        0.2208
     26 O          21.6213   71.0023   -3.6975 O.3     1  UNL1       -0.4371
     27 O          24.0924   71.2830   -3.2685 O.2     1  UNL1       -0.5170
     28 O          22.6157   73.2889   -2.8613 O.3     1  UNL1       -0.2865
     29 C          23.6601   74.0480   -2.2496 C.3     1  UNL1        0.2611
     30 C          23.5310   73.9608   -0.7270 C.3     1  UNL1        0.1582
     31 C          22.1958   74.5787   -0.3003 C.3     1  UNL1        0.1625
     32 C          22.1284   76.0220   -0.8068 C.3     1  UNL1        0.1686
     33 C          22.3117   76.0297   -2.3268 C.3     1  UNL1        0.1760
     34 O          22.0992   74.5680    1.1259 O.3     1  UNL1       -0.3801
     35 O          23.1660   76.7914   -0.1963 O.3     1  UNL1       -0.3794
     36 O          23.5578   75.4137   -2.6579 O.3     1  UNL1       -0.3263
     37 H          21.2764   74.9448    1.4667 H       1  UNL1        0.2105
     38 H          23.1837   77.7184   -0.4726 H       1  UNL1        0.2105
     39 C          24.2380   72.2055    0.8082 C.2     1  UNL1        0.2231
     40 C          24.2842   70.7620    1.2359 C.3     1  UNL1        0.0946
     41 N          23.5756   72.5565   -0.3117 N.am    1  UNL1       -0.2994
     42 O          24.7975   73.0532    1.4719 O.2     1  UNL1       -0.2751
     43 H          23.1290   71.8789   -0.8432 H       1  UNL1        0.1496
     44 C          22.3053   77.4731   -2.8338 C.3     1  UNL1        0.1693
     45 O          23.6369   77.9915   -2.8141 O.3     1  UNL1       -0.3794
     46 H          23.7085   78.9049   -3.1234 H       1  UNL1        0.2105
@<TRIPOS>BOND
     1    29    30    1
     2    30    41    1
     3    30    31    1
     4    31    34    1
     5    31    32    1
     6    32    35    1
     7    32    33    1
     8    33    36    1
     9    33    44    1
    10    39    40    1
    11    39    42    2
    12    39    41   am
    13    41    43    1
    14    29    28    1
    15    34    37    1
    16    35    38    1
    17    29    36    1
    18    44    45    1
    19    45    46    1
    20    15     6    1
    21    15    16   ar
    22    16    21    2
    23    16    17   ar
    24    17    23    1
    25    17    18   ar
    26    18    19   ar
    27    19    20   ar
    28    15    20   ar
    29    18    22    2
    30     6     7    1
    31     6    11    1
    32     7     9    1
    33     7     8    1
    34     8    13    1
    35     9    10    1
    36     9    12    1
    37    10     5    1
    38    10    11    1
    39    12    14    1
    40     5     4    1
    41     4     1    1
    42     1     2    1
    43     1    24    1
    44     1     3    2
    45    24    25    1
    46    28    25    1
    47    25    26    1
    48    25    27    2
@<TRIPOS>MOLECULE
UD2
 46 48 0 0 0
SMALL
GASTEIGER

@<TRIPOS>ATOM
      1 P          22.9883   74.5586   -1.3485 P.3     1  UNL1        0.2189
      2 O          22.1381   75.4679   -2.3692 O.3     1  UNL1       -0.4371
      3 O          24.3366   75.1419   -1.1729 O.2     1  UNL1       -0.5170
      4 O          22.2373   74.5046    0.0751 O.3     1  UNL1       -0.3112
      5 C          21.0582   73.7304    0.3028 C.3     1  UNL1        0.1811
      6 C          23.1820   71.8814    2.5405 C.3     1  UNL1        0.2383
      7 C          22.4727   72.9204    3.4458 C.3     1  UNL1        0.1895
      8 O          22.2963   72.4086    4.7682 O.3     1  UNL1       -0.3779
      9 C          21.1085   73.0942    2.7343 C.3     1  UNL1        0.1713
     10 C          21.3694   72.6079    1.2959 C.3     1  UNL1        0.1764
     11 O          22.7581   72.2507    1.2103 O.3     1  UNL1       -0.3308
     12 O          20.1116   72.2868    3.3627 O.3     1  UNL1       -0.3794
     13 H          21.8573   73.0224    5.3725 H       1  UNL1        0.2106
     14 H          19.9491   72.5110    4.2889 H       1  UNL1        0.2105
     15 N          24.6367   71.9934    2.6686 N.ar    1  UNL1       -0.2551
     16 C          25.4103   70.9165    2.4437 C.ar    1  UNL1        0.3323
     17 N          26.7499   70.9906    2.5543 N.ar    1  UNL1       -0.2743
     18 C          27.3396   72.1551    2.8932 C.ar    1  UNL1        0.2626
     19 C          26.5374   73.2968    3.1318 C.ar    1  UNL1        0.0795
     20 C          25.1972   73.1949    3.0095 C.ar    1  UNL1        0.0869
     21 O          24.8923   69.8601    2.1372 O.2     1  UNL1       -0.2464
     22 O          28.5520   72.2235    2.9932 O.2     1  UNL1       -0.2670
     23 H          27.2928   70.2043    2.3898 H       1  UNL1        0.1734
     24 O          23.1214   73.0672   -1.9412 O.3     1  UNL1       -0.2703
     25 P          23.5299   72.4679   -3.3789 P.3     1  UNL1        0.2208
     26 O          24.6759   73.3882   -4.0374 O.3     1  UNL1       -0.4371
     27 O          24.0402   71.0895   -3.2122 O.2     1  UNL1       -0.5170
     28 O          22.2378   72.4499   -4.3395 O.3     1  UNL1       -0.2865
     29 C          21.6212   71.2432   -4.7924 C.3     1  UNL1        0.2611
     30 C          20.9518   71.4882   -6.1468 C.3     1  UNL1        0.1582
     31 C          19.8499   72.5390   -5.9793 C.3     1  UNL1        0.1625
     32 C          18.8559   72.0564   -4.9194 C.3     1  UNL1        0.1686
     33 C          19.6064   71.7894   -3.6119 C.3     1  UNL1        0.1760
     34 O          19.1705   72.7205   -7.2238 O.3     1  UNL1       -0.3801
     35 O          18.2292   70.8523   -5.3654 O.3     1  UNL1       -0.3794
     36 O          20.6367   70.8268   -3.8439 O.3     1  UNL1       -0.3263
     37 H          18.4587   73.3743   -7.1911 H       1  UNL1        0.2105
     38 H          17.5858   70.4885   -4.7412 H       1  UNL1        0.2105
     39 C          22.1612   73.2959   -7.2455 C.2     1  UNL1        0.2231
     40 C          23.1861   73.7947   -8.2301 C.3     1  UNL1        0.0946
     41 N          21.9488   71.9726   -7.1049 N.am    1  UNL1       -0.2994
     42 O          21.5261   74.0857   -6.5784 O.2     1  UNL1       -0.2751
     43 H          22.4557   71.3409   -7.6388 H       1  UNL1        0.1496
     44 C          18.6302   71.2498   -2.5649 C.3     1  UNL1        0.1693
     45 O          19.3091   70.3275   -1.7101 O.3     1  UNL1       -0.3794
     46 H          18.7499   69.9447   -1.0204 H       1  UNL1        0.2105
@<TRIPOS>BOND
     1    29    30    1
     2    30    41    1
     3    30    31    1
     4    31    34    1
     5    31    32    1
     6    32    35    1
     7    32    33    1
     8    33    36    1
     9    33    44    1
    10    39    40    1
    11    39    42    2
    12    39    41   am
    13    41    43    1
    14    29    28    1
    15    34    37    1
    16    35    38    1
    17    29    36    1
    18    44    45    1
    19    45    46    1
    20    15     6    1
    21    15    16   ar
    22    16    21    2
    23    16    17   ar
    24    17    23    1
    25    17    18   ar
    26    18    19   ar
    27    19    20   ar
    28    15    20   ar
    29    18    22    2
    30     6     7    1
    31     6    11    1
    32     7     9    1
    33     7     8    1
    34     8    13    1
    35     9    10    1
    36     9    12    1
    37    10     5    1
    38    10    11    1
    39    12    14    1
    40     5     4    1
    41     4     1    1
    42     1     2    1
    43     1    24    1
    44     1     3    2
    45    24    25    1
    46    28    25    1
    47    25    26    1
    48    25    27    2
@<TRIPOS>MOLECULE
UD2
 46 48 0 0 0
SMALL
GASTEIGER

@<TRIPOS>ATOM
      1 P          23.4323   72.1052   -3.3774 P.3     1  UNL1        0.2189
      2 O          24.3765   72.9724   -4.3509 O.3     1  UNL1       -0.4371
      3 O          24.1009   70.8261   -3.0517 O.2     1  UNL1       -0.5170
      4 O          23.1598   72.9290   -2.0207 O.3     1  UNL1       -0.3112
      5 C          21.8565   73.0896   -1.4575 C.3     1  UNL1        0.1811
      6 C          23.1904   72.0455    1.7154 C.3     1  UNL1        0.2383
      7 C          22.4572   73.3766    2.0199 C.3     1  UNL1        0.1895
      8 O          21.9395   73.3807    3.3517 O.3     1  UNL1       -0.3779
      9 C          21.3092   73.3606    0.9810 C.3     1  UNL1        0.1713
     10 C          21.7957   72.3797   -0.1027 C.3     1  UNL1        0.1764
     11 O          23.1090   71.9390    0.2775 O.3     1  UNL1       -0.3308
     12 O          20.1016   72.8869    1.5793 O.3     1  UNL1       -0.3794
     13 H          21.4725   74.1929    3.5899 H       1  UNL1        0.2106
     14 H          19.7813   73.4353    2.3081 H       1  UNL1        0.2105
     15 N          24.5874   72.1150    2.1497 N.ar    1  UNL1       -0.2551
     16 C          25.3219   70.9903    2.2143 C.ar    1  UNL1        0.3323
     17 N          26.6081   71.0246    2.6102 N.ar    1  UNL1       -0.2743
     18 C          27.1831   72.1965    2.9485 C.ar    1  UNL1        0.2626
     19 C          26.4219   73.3884    2.8843 C.ar    1  UNL1        0.0795
     20 C          25.1358   73.3251    2.4798 C.ar    1  UNL1        0.0869
     21 O          24.8166   69.9265    1.9120 O.2     1  UNL1       -0.2464
     22 O          28.3472   72.2290    3.3066 O.2     1  UNL1       -0.2670
     23 H          27.1231   70.2041    2.6522 H       1  UNL1        0.1734
     24 O          22.0316   71.8067   -4.1138 O.3     1  UNL1       -0.2703
     25 P          21.3347   72.3587   -5.4564 P.3     1  UNL1        0.2208
     26 O          21.1542   73.9554   -5.3493 O.3     1  UNL1       -0.4371
     27 O          22.1856   72.0361   -6.6227 O.2     1  UNL1       -0.5170
     28 O          19.8923   71.6660   -5.6359 O.3     1  UNL1       -0.2865
     29 C          18.8388   72.2494   -6.4047 C.3     1  UNL1        0.2611
     30 C          17.4874   71.7946   -5.8482 C.3     1  UNL1        0.1582
     31 C          17.3749   70.2730   -5.9844 C.3     1  UNL1        0.1625
     32 C          17.5562   69.8881   -7.4553 C.3     1  UNL1        0.1686
     33 C          18.9053   70.4165   -7.9499 C.3     1  UNL1        0.1760
     34 O          16.0865   69.8476   -5.5348 O.3     1  UNL1       -0.3801
     35 O          16.5038   70.4622   -8.2325 O.3     1  UNL1       -0.3794
     36 O          18.9565   71.8327   -7.7667 O.3     1  UNL1       -0.3263
     37 H          15.9459   68.8925   -5.5922 H       1  UNL1        0.2105
     38 H          16.5559   70.2595   -9.1770 H       1  UNL1        0.2105
     39 C          17.7820   71.3022   -3.4800 C.2     1  UNL1        0.2231
     40 C          17.6818   71.6857   -2.0269 C.3     1  UNL1        0.0946
     41 N          17.3894   72.1683   -4.4350 N.am    1  UNL1       -0.2994
     42 O          18.2163   70.2130   -3.7915 O.2     1  UNL1       -0.2751
     43 H          17.0412   73.0388   -4.1864 H       1  UNL1        0.1496
     44 C          19.0680   70.0878   -9.4352 C.3     1  UNL1        0.1693
     45 O          18.5207   71.1484  -10.2212 O.3     1  UNL1       -0.3794
     46 H          18.5892   71.0073  -11.1754 H       1  UNL1        0.2105
@<TRIPOS>BOND
     1    29    30    1
     2    30    41    1
     3    30    31    1
     4    31    34    1
     5    31    32    1
     6    32    35    1
     7    32    33    1
     8    33    36    1
     9    33    44    1
    10    39    40    1
    11    39    42    2
    12    39    41   am
    13    41    43    1
    14    29    28    1
    15    34    37    1
    16    35    38    1
    17    29    36    1
    18    44    45    1
    19    45    46    1
    20    15     6    1
    21    15    16   ar
    22    16    21    2
    23    16    17   ar
    24    17    23    1
    25    17    18   ar
    26    18    19   ar
    27    19    20   ar
    28    15    20   ar
    29    18    22    2
    30     6     7    1
    31     6    11    1
    32     7     9    1
    33     7     8    1
    34     8    13    1
    35     9    10    1
    36     9    12    1
    37    10     5    1
    38    10    11    1
    39    12    14    1
    40     5     4    1
    41     4     1    1
    42     1     2    1
    43     1    24    1
    44     1     3    2
    45    24    25    1
    46    28    25    1
    47    25    26    1
    48    25    27    2
@<TRIPOS>MOLECULE
UD2
 46 48 0 0 0
SMALL
GASTEIGER

@<TRIPOS>ATOM
      1 P          22.7141   72.5799   -3.8060 P.3     1  UNL1        0.2189
      2 O          21.9081   73.9719   -3.7427 O.3     1  UNL1       -0.4371
      3 O          23.8757   72.7225   -4.7111 O.2     1  UNL1       -0.5170
      4 O          23.2281   72.1900   -2.3303 O.3     1  UNL1       -0.3112
      5 C          22.7171   72.7992   -1.1432 C.3     1  UNL1        0.1811
      6 C          24.2733   71.8760    1.9652 C.3     1  UNL1        0.2383
      7 C          22.9612   72.5875    2.3825 C.3     1  UNL1        0.1895
      8 O          22.4611   72.0557    3.6109 O.3     1  UNL1       -0.3779
      9 C          22.0158   72.2427    1.2058 C.3     1  UNL1        0.1713
     10 C          22.9688   71.8766    0.0520 C.3     1  UNL1        0.1764
     11 O          24.3107   72.0545    0.5326 O.3     1  UNL1       -0.3308
     12 O          21.1861   71.1295    1.5422 O.3     1  UNL1       -0.3794
     13 H          21.6414   72.4692    3.9140 H       1  UNL1        0.2106
     14 H          20.6069   71.2846    2.3005 H       1  UNL1        0.2105
     15 N          25.4301   72.5159    2.5956 N.ar    1  UNL1       -0.2551
     16 C          26.5780   71.8290    2.7349 C.ar    1  UNL1        0.3323
     17 N          27.6568   72.3920    3.3105 N.ar    1  UNL1       -0.2743
     18 C          27.6018   73.6632    3.7575 C.ar    1  UNL1        0.2626
     19 C          26.4002   74.3983    3.6164 C.ar    1  UNL1        0.0795
     20 C          25.3355   73.8102    3.0316 C.ar    1  UNL1        0.0869
     21 O          26.6420   70.6821    2.3363 O.2     1  UNL1       -0.2464
     22 O          28.5777   74.1740    4.2784 O.2     1  UNL1       -0.2670
     23 H          28.4762   71.8822    3.4042 H       1  UNL1        0.1734
     24 O          21.7419   71.4211   -4.3584 O.3     1  UNL1       -0.2703
     25 P          20.2198   70.9968   -4.0484 P.3     1  UNL1        0.2208
     26 O          20.0987   69.3909   -4.0558 O.3     1  UNL1       -0.4371
     27 O          19.8238   71.5146   -2.7204 O.2     1  UNL1       -0.5170
     28 O          19.2504   71.6137   -5.1763 O.3     1  UNL1       -0.2865
     29 C          18.0696   70.9525   -5.6344 C.3     1  UNL1        0.2611
     30 C          17.6041   71.5882   -6.9466 C.3     1  UNL1        0.1582
     31 C          17.2469   73.0563   -6.6943 C.3     1  UNL1        0.1625
     32 C          16.1765   73.1296   -5.6020 C.3     1  UNL1        0.1686
     33 C          16.6972   72.4344   -4.3412 C.3     1  UNL1        0.1760
     34 O          16.7416   73.6381   -7.8981 O.3     1  UNL1       -0.3801
     35 O          14.9887   72.4758   -6.0526 O.3     1  UNL1       -0.3794
     36 O          17.0399   71.0823   -4.6519 O.3     1  UNL1       -0.3263
     37 H          16.4955   74.5693   -7.8113 H       1  UNL1        0.2105
     38 H          14.2665   72.4832   -5.4089 H       1  UNL1        0.2105
     39 C          18.5308   70.7436   -9.0360 C.2     1  UNL1        0.2231
     40 C          19.6369   70.6623  -10.0551 C.3     1  UNL1        0.0946
     41 N          18.6806   71.5095   -7.9373 N.am    1  UNL1       -0.2994
     42 O          17.5040   70.1192   -9.2038 O.2     1  UNL1       -0.2751
     43 H          19.5017   72.0080   -7.8023 H       1  UNL1        0.1496
     44 C          15.6107   72.4509   -3.2644 C.3     1  UNL1        0.1693
     45 O          14.3235   72.4273   -3.8849 O.3     1  UNL1       -0.3794
     46 H          13.5851   72.4361   -3.2607 H       1  UNL1        0.2105
@<TRIPOS>BOND
     1    29    30    1
     2    30    41    1
     3    30    31    1
     4    31    34    1
     5    31    32    1
     6    32    35    1
     7    32    33    1
     8    33    36    1
     9    33    44    1
    10    39    40    1
    11    39    42    2
    12    39    41   am
    13    41    43    1
    14    29    28    1
    15    34    37    1
    16    35    38    1
    17    29    36    1
    18    44    45    1
    19    45    46    1
    20    15     6    1
    21    15    16   ar
    22    16    21    2
    23    16    17   ar
    24    17    23    1
    25    17    18   ar
    26    18    19   ar
    27    19    20   ar
    28    15    20   ar
    29    18    22    2
    30     6     7    1
    31     6    11    1
    32     7     9    1
    33     7     8    1
    34     8    13    1
    35     9    10    1
    36     9    12    1
    37    10     5    1
    38    10    11    1
    39    12    14    1
    40     5     4    1
    41     4     1    1
    42     1     2    1
    43     1    24    1
    44     1     3    2
    45    24    25    1
    46    28    25    1
    47    25    26    1
    48    25    27    2
@<TRIPOS>MOLECULE
UD2
 46 48 0 0 0
SMALL
GASTEIGER

@<TRIPOS>ATOM
      1 P          23.4055   72.3117   -3.3679 P.3     1  UNL1        0.2189
      2 O          24.0902   71.0982   -2.5618 O.3     1  UNL1       -0.4371
      3 O          24.4540   73.1187   -4.0300 O.2     1  UNL1       -0.5170
      4 O          22.4024   71.7189   -4.4797 O.3     1  UNL1       -0.3112
      5 C          22.3786   72.1823   -5.8310 C.3     1  UNL1        0.1811
      6 C          19.2390   70.5040   -6.3439 C.3     1  UNL1        0.2383
      7 C          19.0210   71.9245   -6.9244 C.3     1  UNL1        0.1895
      8 O          18.0887   71.8955   -8.0069 O.3     1  UNL1       -0.3779
      9 C          20.4389   72.2918   -7.4264 C.3     1  UNL1        0.1713
     10 C          21.3725   71.3556   -6.6357 C.3     1  UNL1        0.1764
     11 O          20.5508   70.5840   -5.7453 O.3     1  UNL1       -0.3308
     12 O          20.5516   72.0437   -8.8287 O.3     1  UNL1       -0.3794
     13 H          17.9186   72.7608   -8.4031 H       1  UNL1        0.2106
     14 H          19.9438   72.5642   -9.3711 H       1  UNL1        0.2105
     15 N          18.2265   70.2001   -5.3302 N.ar    1  UNL1       -0.2551
     16 C          17.0499   69.6657   -5.7028 C.ar    1  UNL1        0.3323
     17 N          16.1011   69.3765   -4.7927 N.ar    1  UNL1       -0.2743
     18 C          16.3195   69.6187   -3.4842 C.ar    1  UNL1        0.2626
     19 C          17.5539   70.1801   -3.0778 C.ar    1  UNL1        0.0795
     20 C          18.4888   70.4561   -4.0113 C.ar    1  UNL1        0.0869
     21 O          16.8393   69.4418   -6.8792 O.2     1  UNL1       -0.2464
     22 O          15.4618   69.3571   -2.6594 O.2     1  UNL1       -0.2670
     23 H          15.2579   68.9927   -5.0786 H       1  UNL1        0.1734
     24 O          22.5808   73.2399   -2.3425 O.3     1  UNL1       -0.2703
     25 P          22.9923   74.4084   -1.3137 P.3     1  UNL1        0.2208
     26 O          24.4666   74.1179   -0.7342 O.3     1  UNL1       -0.4371
     27 O          22.9871   75.7098   -2.0172 O.2     1  UNL1       -0.5170
     28 O          21.9363   74.4502   -0.0989 O.3     1  UNL1       -0.2865
     29 C          22.2970   74.8177    1.2338 C.3     1  UNL1        0.2611
     30 C          22.1385   73.6082    2.1582 C.3     1  UNL1        0.1582
     31 C          20.6681   73.1791    2.1759 C.3     1  UNL1        0.1625
     32 C          19.8068   74.3650    2.6187 C.3     1  UNL1        0.1686
     33 C          20.0552   75.5456    1.6762 C.3     1  UNL1        0.1760
     34 O          20.4980   72.0963    3.0933 O.3     1  UNL1       -0.3801
     35 O          20.1559   74.7369    3.9533 O.3     1  UNL1       -0.3794
     36 O          21.4459   75.8741    1.6831 O.3     1  UNL1       -0.3263
     37 H          19.5888   71.7726    3.1549 H       1  UNL1        0.2105
     38 H          19.6486   75.4845    4.2994 H       1  UNL1        0.2105
     39 C          24.1406   72.2229    2.2610 C.2     1  UNL1        0.2231
     40 C          24.9907   71.0874    1.7546 C.3     1  UNL1        0.0946
     41 N          22.9650   72.5036    1.6649 N.am    1  UNL1       -0.2994
     42 O          24.5139   72.8857    3.2063 O.2     1  UNL1       -0.2751
     43 H          22.6666   71.9746    0.9085 H       1  UNL1        0.1496
     44 C          19.2431   76.7536    2.1473 C.3     1  UNL1        0.1693
     45 O          20.0078   77.5025    3.0942 O.3     1  UNL1       -0.3794
     46 H          19.5539   78.2847    3.4365 H       1  UNL1        0.2105
@<TRIPOS>BOND
     1    29    30    1
     2    30    41    1
     3    30    31    1
     4    31    34    1
     5    31    32    1
     6    32    35    1
     7    32    33    1
     8    33    36    1
     9    33    44    1
    10    39    40    1
    11    39    42    2
    12    39    41   am
    13    41    43    1
    14    29    28    1
    15    34    37    1
    16    35    38    1
    17    29    36    1
    18    44    45    1
    19    45    46    1
    20    15     6    1
    21    15    16   ar
    22    16    21    2
    23    16    17   ar
    24    17    23    1
    25    17    18   ar
    26    18    19   ar
    27    19    20   ar
    28    15    20   ar
    29    18    22    2
    30     6     7    1
    31     6    11    1
    32     7     9    1
    33     7     8    1
    34     8    13    1
    35     9    10    1
    36     9    12    1
    37    10     5    1
    38    10    11    1
    39    12    14    1
    40     5     4    1
    41     4     1    1
    42     1     2    1
    43     1    24    1
    44     1     3    2
    45    24    25    1
    46    28    25    1
    47    25    26    1
    48    25    27    2
@<TRIPOS>MOLECULE
UD2
 46 48 0 0 0
SMALL
GASTEIGER

@<TRIPOS>ATOM
      1 P          23.0083   73.2043   -4.5269 P.3     1  UNL1        0.2189
      2 O          23.2600   74.2717   -5.7053 O.3     1  UNL1       -0.4371
      3 O          24.3078   72.6968   -4.0343 O.2     1  UNL1       -0.5170
      4 O          22.2171   73.9163   -3.3182 O.3     1  UNL1       -0.3112
      5 C          20.7929   74.0241   -3.2785 C.3     1  UNL1        0.1811
      6 C          21.1751   72.7036    0.0452 C.3     1  UNL1        0.2383
      7 C          21.0442   74.2347    0.2468 C.3     1  UNL1        0.1895
      8 O          20.4240   74.5331    1.4990 O.3     1  UNL1       -0.3779
      9 C          20.1287   74.6412   -0.9339 C.3     1  UNL1        0.1713
     10 C          20.2781   73.4854   -1.9414 C.3     1  UNL1        0.1764
     11 O          21.2264   72.5575   -1.3907 O.3     1  UNL1       -0.3308
     12 O          18.7729   74.7534   -0.4981 O.3     1  UNL1       -0.3794
     13 H          20.3203   75.4787    1.6714 H       1  UNL1        0.2106
     14 H          18.6315   75.4270    0.1807 H       1  UNL1        0.2105
     15 N          22.4081   72.2060    0.6592 N.ar    1  UNL1       -0.2551
     16 C          22.4742   70.9313    1.0829 C.ar    1  UNL1        0.3323
     17 N          23.5946   70.4473    1.6510 N.ar    1  UNL1       -0.2743
     18 C          24.6754   71.2394    1.8026 C.ar    1  UNL1        0.2626
     19 C          24.6201   72.5829    1.3601 C.ar    1  UNL1        0.0795
     20 C          23.4854   73.0404    0.7903 C.ar    1  UNL1        0.0869
     21 O          21.5074   70.2056    0.9524 O.2     1  UNL1       -0.2464
     22 O          25.6902   70.8024    2.3163 O.2     1  UNL1       -0.2670
     23 H          23.6249   69.5261    1.9521 H       1  UNL1        0.1734
     24 O          22.1318   71.9773   -5.0920 O.3     1  UNL1       -0.2703
     25 P          21.0876   71.8157   -6.3071 P.3     1  UNL1        0.2208
     26 O          21.0591   73.1729   -7.1736 O.3     1  UNL1       -0.4371
     27 O          21.5048   70.6889   -7.1700 O.2     1  UNL1       -0.5170
     28 O          19.6181   71.5246   -5.7166 O.3     1  UNL1       -0.2865
     29 C          18.4294   72.0878   -6.2743 C.3     1  UNL1        0.2611
     30 C          17.2073   71.5361   -5.5362 C.3     1  UNL1        0.1582
     31 C          17.1419   70.0190   -5.7375 C.3     1  UNL1        0.1625
     32 C          17.1001   69.7152   -7.2376 C.3     1  UNL1        0.1686
     33 C          18.3267   70.3372   -7.9102 C.3     1  UNL1        0.1760
     34 O          15.9633   69.5051   -5.1130 O.3     1  UNL1       -0.3801
     35 O          15.9115   70.2696   -7.8042 O.3     1  UNL1       -0.3794
     36 O          18.3439   71.7437   -7.6587 O.3     1  UNL1       -0.3263
     37 H          15.8577   68.5479   -5.2006 H       1  UNL1        0.2105
     38 H          15.8192   70.1154   -8.7549 H       1  UNL1        0.2105
     39 C          16.2361   72.2232   -3.4096 C.2     1  UNL1        0.2231
     40 C          16.3536   72.5314   -1.9400 C.3     1  UNL1        0.0946
     41 N          17.3225   71.8359   -4.1067 N.am    1  UNL1       -0.2994
     42 O          15.1629   72.3236   -3.9667 O.2     1  UNL1       -0.2751
     43 H          18.1809   71.7565   -3.6619 H       1  UNL1        0.1496
     44 C          18.2617   70.0892   -9.4184 C.3     1  UNL1        0.1693
     45 O          18.2692   71.3406  -10.1085 O.3     1  UNL1       -0.3794
     46 H          18.2297   71.2598  -11.0712 H       1  UNL1        0.2105
@<TRIPOS>BOND
     1    29    30    1
     2    30    41    1
     3    30    31    1
     4    31    34    1
     5    31    32    1
     6    32    35    1
     7    32    33    1
     8    33    36    1
     9    33    44    1
    10    39    40    1
    11    39    42    2
    12    39    41   am
    13    41    43    1
    14    29    28    1
    15    34    37    1
    16    35    38    1
    17    29    36    1
    18    44    45    1
    19    45    46    1
    20    15     6    1
    21    15    16   ar
    22    16    21    2
    23    16    17   ar
    24    17    23    1
    25    17    18   ar
    26    18    19   ar
    27    19    20   ar
    28    15    20   ar
    29    18    22    2
    30     6     7    1
    31     6    11    1
    32     7     9    1
    33     7     8    1
    34     8    13    1
    35     9    10    1
    36     9    12    1
    37    10     5    1
    38    10    11    1
    39    12    14    1
    40     5     4    1
    41     4     1    1
    42     1     2    1
    43     1    24    1
    44     1     3    2
    45    24    25    1
    46    28    25    1
    47    25    26    1
    48    25    27    2
@<TRIPOS>MOLECULE
UD2
 46 48 0 0 0
SMALL
GASTEIGER

@<TRIPOS>ATOM
      1 P          14.8042   71.1322   -1.6002 P.3     1  UNL1        0.2189
      2 O          13.8400   71.9133   -2.6256 O.3     1  UNL1       -0.4371
      3 O          14.7132   71.7580   -0.2626 O.2     1  UNL1       -0.5170
      4 O          14.3483   69.5906   -1.5036 O.3     1  UNL1       -0.3112
      5 C          14.6047   68.7746   -0.3591 C.3     1  UNL1        0.1811
      6 C          11.3237   67.4265    0.2365 C.3     1  UNL1        0.2383
      7 C          12.2839   66.4504    0.9627 C.3     1  UNL1        0.1895
      8 O          11.6533   65.8714    2.1068 O.3     1  UNL1       -0.3779
      9 C          13.4419   67.3873    1.3852 C.3     1  UNL1        0.1713
     10 C          13.3114   68.5970    0.4402 C.3     1  UNL1        0.1764
     11 O          12.2185   68.3270   -0.4520 O.3     1  UNL1       -0.3308
     12 O          13.2830   67.7949    2.7452 O.3     1  UNL1       -0.3794
     13 H          12.2139   65.2528    2.5943 H       1  UNL1        0.2106
     14 H          13.2977   67.0656    3.3795 H       1  UNL1        0.2105
     15 N          10.4807   66.7051   -0.7195 N.ar    1  UNL1       -0.2551
     16 C           9.2491   67.1657   -1.0019 C.ar    1  UNL1        0.3323
     17 N           8.4527   66.5229   -1.8764 N.ar    1  UNL1       -0.2743
     18 C           8.8827   65.4003   -2.4876 C.ar    1  UNL1        0.2626
     19 C          10.1774   64.9048   -2.2005 C.ar    1  UNL1        0.0795
     20 C          10.9560   65.5719   -1.3228 C.ar    1  UNL1        0.0869
     21 O           8.8484   68.1769   -0.4584 O.2     1  UNL1       -0.2464
     22 O           8.1630   64.8178   -3.2796 O.2     1  UNL1       -0.2670
     23 H           7.5670   66.8679   -2.0677 H       1  UNL1        0.1734
     24 O          16.3239   71.2097   -2.1272 O.3     1  UNL1       -0.2703
     25 P          17.2491   70.2383   -3.0178 P.3     1  UNL1        0.2208
     26 O          18.3349   69.5167   -2.0721 O.3     1  UNL1       -0.4371
     27 O          16.4047   69.2133   -3.6694 O.2     1  UNL1       -0.5170
     28 O          18.0082   71.1039   -4.1435 O.3     1  UNL1       -0.2865
     29 C          18.7494   70.5122   -5.2121 C.3     1  UNL1        0.2611
     30 C          19.7545   71.5278   -5.7607 C.3     1  UNL1        0.1582
     31 C          18.9940   72.7288   -6.3313 C.3     1  UNL1        0.1625
     32 C          18.0191   72.2387   -7.4054 C.3     1  UNL1        0.1686
     33 C          17.0806   71.1955   -6.7932 C.3     1  UNL1        0.1760
     34 O          19.9213   73.6488   -6.9119 O.3     1  UNL1       -0.3801
     35 O          18.7510   71.6501   -8.4820 O.3     1  UNL1       -0.3794
     36 O          17.8526   70.1208   -6.2537 O.3     1  UNL1       -0.3263
     37 H          19.5078   74.4356   -7.2928 H       1  UNL1        0.2105
     38 H          18.1953   71.3161   -9.2001 H       1  UNL1        0.2105
     39 C          21.9509   72.1603   -4.9161 C.2     1  UNL1        0.2231
     40 C          22.8588   72.6207   -3.8060 C.3     1  UNL1        0.0946
     41 N          20.6370   71.9754   -4.6803 N.am    1  UNL1       -0.2994
     42 O          22.4023   71.9556   -6.0236 O.2     1  UNL1       -0.2751
     43 H          20.2759   72.1381   -3.7947 H       1  UNL1        0.1496
     44 C          16.1421   70.6570   -7.8747 C.3     1  UNL1        0.1693
     45 O          15.5706   71.7493   -8.5976 O.3     1  UNL1       -0.3794
     46 H          14.9634   71.4815   -9.3009 H       1  UNL1        0.2105
@<TRIPOS>BOND
     1    29    30    1
     2    30    41    1
     3    30    31    1
     4    31    34    1
     5    31    32    1
     6    32    35    1
     7    32    33    1
     8    33    36    1
     9    33    44    1
    10    39    40    1
    11    39    42    2
    12    39    41   am
    13    41    43    1
    14    29    28    1
    15    34    37    1
    16    35    38    1
    17    29    36    1
    18    44    45    1
    19    45    46    1
    20    15     6    1
    21    15    16   ar
    22    16    21    2
    23    16    17   ar
    24    17    23    1
    25    17    18   ar
    26    18    19   ar
    27    19    20   ar
    28    15    20   ar
    29    18    22    2
    30     6     7    1
    31     6    11    1
    32     7     9    1
    33     7     8    1
    34     8    13    1
    35     9    10    1
    36     9    12    1
    37    10     5    1
    38    10    11    1
    39    12    14    1
    40     5     4    1
    41     4     1    1
    42     1     2    1
    43     1    24    1
    44     1     3    2
    45    24    25    1
    46    28    25    1
    47    25    26    1
    48    25    27    2
@<TRIPOS>MOLECULE
UD2
 46 48 0 0 0
SMALL
GASTEIGER

@<TRIPOS>ATOM
      1 P          21.7374   72.6520   -6.2618 P.3     1  UNL1        0.2189
      2 O          22.8336   73.6210   -6.9330 O.3     1  UNL1       -0.4371
      3 O          20.5364   73.4383   -5.9035 O.2     1  UNL1       -0.5170
      4 O          21.3303   71.4968   -7.3075 O.3     1  UNL1       -0.3112
      5 C          20.3309   71.6756   -8.3128 C.3     1  UNL1        0.1811
      6 C          17.4737   70.0614   -6.8404 C.3     1  UNL1        0.2383
      7 C          16.8851   70.9339   -7.9781 C.3     1  UNL1        0.1895
      8 O          15.7069   70.3358   -8.5221 O.3     1  UNL1       -0.3779
      9 C          18.0342   70.9337   -9.0159 C.3     1  UNL1        0.1713
     10 C          19.2839   70.5652   -8.1938 C.3     1  UNL1        0.1764
     11 O          18.8705   70.4280   -6.8250 O.3     1  UNL1       -0.3308
     12 O          17.7932   69.9537  -10.0269 O.3     1  UNL1       -0.3794
     13 H          15.3012   70.8448   -9.2369 H       1  UNL1        0.2106
     14 H          16.9859   70.1040  -10.5370 H       1  UNL1        0.2105
     15 N          16.8404   70.3867   -5.5606 N.ar    1  UNL1       -0.2551
     16 C          16.0123   69.4987   -4.9821 C.ar    1  UNL1        0.3323
     17 N          15.4163   69.7712   -3.8062 N.ar    1  UNL1       -0.2743
     18 C          15.6444   70.9468   -3.1860 C.ar    1  UNL1        0.2626
     19 C          16.5147   71.8903   -3.7831 C.ar    1  UNL1        0.0795
     20 C          17.1019   71.5889   -4.9603 C.ar    1  UNL1        0.0869
     21 O          15.7975   68.4347   -5.5299 O.2     1  UNL1       -0.2464
     22 O          15.1060   71.1945   -2.1215 O.2     1  UNL1       -0.2670
     23 H          14.8211   69.1203   -3.4035 H       1  UNL1        0.1734
     24 O          22.3550   71.9803   -4.9349 O.3     1  UNL1       -0.2703
     25 P          23.2780   72.5240   -3.7326 P.3     1  UNL1        0.2208
     26 O          23.4865   71.3542   -2.6455 O.3     1  UNL1       -0.4371
     27 O          24.5930   72.9387   -4.2685 O.2     1  UNL1       -0.5170
     28 O          22.5609   73.7850   -3.0337 O.3     1  UNL1       -0.2865
     29 C          21.1421   73.9475   -2.9892 C.3     1  UNL1        0.2611
     30 C          20.7769   74.9535   -1.8949 C.3     1  UNL1        0.1582
     31 C          21.2248   74.4031   -0.5374 C.3     1  UNL1        0.1625
     32 C          20.5713   73.0370   -0.3116 C.3     1  UNL1        0.1686
     33 C          20.9446   72.1047   -1.4672 C.3     1  UNL1        0.1760
     34 O          20.8222   75.3022    0.4984 O.3     1  UNL1       -0.3801
     35 O          19.1517   73.1894   -0.2597 O.3     1  UNL1       -0.3794
     36 O          20.5277   72.6895   -2.7026 O.3     1  UNL1       -0.3263
     37 H          21.0746   75.0161    1.3870 H       1  UNL1        0.2105
     38 H          18.6714   72.3614   -0.1192 H       1  UNL1        0.2105
     39 C          20.7844   77.3873   -2.0127 C.2     1  UNL1        0.2231
     40 C          21.4798   78.6965   -2.2794 C.3     1  UNL1        0.0946
     41 N          21.4539   76.2265   -2.1548 N.am    1  UNL1       -0.2994
     42 O          19.6206   77.3773   -1.6697 O.2     1  UNL1       -0.2751
     43 H          22.3841   76.2340   -2.4300 H       1  UNL1        0.1496
     44 C          20.2471   70.7561   -1.2798 C.3     1  UNL1        0.1693
     45 O          19.0791   70.7048   -2.1017 O.3     1  UNL1       -0.3794
     46 H          18.5856   69.8760   -2.0335 H       1  UNL1        0.2105
@<TRIPOS>BOND
     1    29    30    1
     2    30    41    1
     3    30    31    1
     4    31    34    1
     5    31    32    1
     6    32    35    1
     7    32    33    1
     8    33    36    1
     9    33    44    1
    10    39    40    1
    11    39    42    2
    12    39    41   am
    13    41    43    1
    14    29    28    1
    15    34    37    1
    16    35    38    1
    17    29    36    1
    18    44    45    1
    19    45    46    1
    20    15     6    1
    21    15    16   ar
    22    16    21    2
    23    16    17   ar
    24    17    23    1
    25    17    18   ar
    26    18    19   ar
    27    19    20   ar
    28    15    20   ar
    29    18    22    2
    30     6     7    1
    31     6    11    1
    32     7     9    1
    33     7     8    1
    34     8    13    1
    35     9    10    1
    36     9    12    1
    37    10     5    1
    38    10    11    1
    39    12    14    1
    40     5     4    1
    41     4     1    1
    42     1     2    1
    43     1    24    1
    44     1     3    2
    45    24    25    1
    46    28    25    1
    47    25    26    1
    48    25    27    2
@<TRIPOS>MOLECULE
UD2
 46 48 0 0 0
SMALL
GASTEIGER

@<TRIPOS>ATOM
      1 P          21.7084   72.7261   -6.2146 P.3     1  UNL1        0.2189
      2 O          23.3104   72.6154   -6.3268 O.3     1  UNL1       -0.4371
      3 O          21.2369   73.8851   -7.0041 O.2     1  UNL1       -0.5170
      4 O          21.0362   71.3785   -6.7854 O.3     1  UNL1       -0.3112
      5 C          20.5610   71.2552   -8.1272 C.3     1  UNL1        0.1811
      6 C          17.3920   70.0532   -6.9236 C.3     1  UNL1        0.2383
      7 C          17.0259   71.1054   -8.0010 C.3     1  UNL1        0.1895
      8 O          15.7948   70.7700   -8.6441 O.3     1  UNL1       -0.3779
      9 C          18.2140   70.9882   -8.9871 C.3     1  UNL1        0.1713
     10 C          19.3343   70.3401   -8.1514 C.3     1  UNL1        0.1764
     11 O          18.8279   70.1663   -6.8184 O.3     1  UNL1       -0.3308
     12 O          17.8652   70.1516  -10.0912 O.3     1  UNL1       -0.3794
     13 H          15.5228   71.3990   -9.3261 H       1  UNL1        0.2106
     14 H          17.1253   70.4825  -10.6181 H       1  UNL1        0.2105
     15 N          16.7535   70.3790   -5.6464 N.ar    1  UNL1       -0.2551
     16 C          16.3499   69.3884   -4.8313 C.ar    1  UNL1        0.3323
     17 N          15.7601   69.6587   -3.6517 N.ar    1  UNL1       -0.2743
     18 C          15.5658   70.9366   -3.2671 C.ar    1  UNL1        0.2626
     19 C          15.9867   71.9893   -4.1149 C.ar    1  UNL1        0.0795
     20 C          16.5791   71.6892   -5.2899 C.ar    1  UNL1        0.0869
     21 O          16.5188   68.2315   -5.1651 O.2     1  UNL1       -0.2464
     22 O          15.0325   71.1826   -2.1996 O.2     1  UNL1       -0.2670
     23 H          15.4740   68.9324   -3.0765 H       1  UNL1        0.1734
     24 O          21.2905   72.9215   -4.6717 O.3     1  UNL1       -0.2703
     25 P          21.4475   74.1264   -3.6150 P.3     1  UNL1        0.2208
     26 O          22.7012   75.0466   -4.0336 O.3     1  UNL1       -0.4371
     27 O          20.2150   74.9444   -3.6123 O.2     1  UNL1       -0.5170
     28 O          21.6935   73.5208   -2.1435 O.3     1  UNL1       -0.2865
     29 C          22.8501   72.7556   -1.7998 C.3     1  UNL1        0.2611
     30 C          22.4171   71.4085   -1.2165 C.3     1  UNL1        0.1582
     31 C          21.6210   71.6509    0.0695 C.3     1  UNL1        0.1625
     32 C          22.4821   72.4565    1.0461 C.3     1  UNL1        0.1686
     33 C          22.9127   73.7637    0.3753 C.3     1  UNL1        0.1760
     34 O          21.2754   70.3961    0.6606 O.3     1  UNL1       -0.3801
     35 O          23.6394   71.6974    1.4008 O.3     1  UNL1       -0.3794
     36 O          23.6210   73.4679   -0.8299 O.3     1  UNL1       -0.3263
     37 H          20.7681   70.4743    1.4802 H       1  UNL1        0.2105
     38 H          24.2323   72.1482    2.0182 H       1  UNL1        0.2105
     39 C          20.2352   70.8128   -2.1230 C.2     1  UNL1        0.2231
     40 C          19.3705   70.0874   -3.1204 C.3     1  UNL1        0.0946
     41 N          21.5767   70.7024   -2.1869 N.am    1  UNL1       -0.2994
     42 O          19.7240   71.4970   -1.2612 O.2     1  UNL1       -0.2751
     43 H          21.9858   70.1547   -2.8752 H       1  UNL1        0.1496
     44 C          23.8228   74.5473    1.3230 C.3     1  UNL1        0.1693
     45 O          23.5811   75.9472    1.1677 O.3     1  UNL1       -0.3794
     46 H          24.1248   76.5066    1.7392 H       1  UNL1        0.2105
@<TRIPOS>BOND
     1    29    30    1
     2    30    41    1
     3    30    31    1
     4    31    34    1
     5    31    32    1
     6    32    35    1
     7    32    33    1
     8    33    36    1
     9    33    44    1
    10    39    40    1
    11    39    42    2
    12    39    41   am
    13    41    43    1
    14    29    28    1
    15    34    37    1
    16    35    38    1
    17    29    36    1
    18    44    45    1
    19    45    46    1
    20    15     6    1
    21    15    16   ar
    22    16    21    2
    23    16    17   ar
    24    17    23    1
    25    17    18   ar
    26    18    19   ar
    27    19    20   ar
    28    15    20   ar
    29    18    22    2
    30     6     7    1
    31     6    11    1
    32     7     9    1
    33     7     8    1
    34     8    13    1
    35     9    10    1
    36     9    12    1
    37    10     5    1
    38    10    11    1
    39    12    14    1
    40     5     4    1
    41     4     1    1
    42     1     2    1
    43     1    24    1
    44     1     3    2
    45    24    25    1
    46    28    25    1
    47    25    26    1
    48    25    27    2
@<TRIPOS>MOLECULE
UD2
 46 48 0 0 0
SMALL
GASTEIGER

@<TRIPOS>ATOM
      1 P          22.7178   71.0192    0.3998 P.3     1  UNL1        0.2189
      2 O          23.7327   70.1421    1.2898 O.3     1  UNL1       -0.4371
      3 O          21.3542   70.4552    0.5057 O.2     1  UNL1       -0.5170
      4 O          22.7131   72.5390    0.9328 O.3     1  UNL1       -0.3112
      5 C          23.4566   72.9638    2.0765 C.3     1  UNL1        0.1811
      6 C          22.3349   73.5260    5.4473 C.3     1  UNL1        0.2383
      7 C          21.2260   74.1454    4.5592 C.3     1  UNL1        0.1895
      8 O          19.9509   74.0542    5.1975 O.3     1  UNL1       -0.3779
      9 C          21.2785   73.2469    3.2993 C.3     1  UNL1        0.1713
     10 C          22.6811   72.6113    3.3483 C.3     1  UNL1        0.1764
     11 O          23.3551   73.1500    4.4967 O.3     1  UNL1       -0.3308
     12 O          20.2692   72.2380    3.3637 O.3     1  UNL1       -0.3794
     13 H          19.2246   74.4290    4.6812 H       1  UNL1        0.2106
     14 H          19.3673   72.5843    3.3952 H       1  UNL1        0.2105
     15 N          22.8513   74.5170    6.3940 N.ar    1  UNL1       -0.2551
     16 C          23.7769   75.4053    5.9901 C.ar    1  UNL1        0.3323
     17 N          24.2692   76.3271    6.8387 N.ar    1  UNL1       -0.2743
     18 C          23.8365   76.3743    8.1151 C.ar    1  UNL1        0.2626
     19 C          22.8617   75.4460    8.5534 C.ar    1  UNL1        0.0795
     20 C          22.3825   74.5355    7.6800 C.ar    1  UNL1        0.0869
     21 O          24.1760   75.3746    4.8420 O.2     1  UNL1       -0.2464
     22 O          24.2810   77.2084    8.8841 O.2     1  UNL1       -0.2670
     23 H          24.9370   76.9594    6.5315 H       1  UNL1        0.1734
     24 O          23.1922   70.9923   -1.1389 O.3     1  UNL1       -0.2703
     25 P          22.7693   71.8203   -2.4536 P.3     1  UNL1        0.2208
     26 O          22.6975   73.3896   -2.0989 O.3     1  UNL1       -0.4371
     27 O          23.7723   71.6013   -3.5186 O.2     1  UNL1       -0.5170
     28 O          21.3267   71.3183   -2.9630 O.3     1  UNL1       -0.2865
     29 C          21.1227   70.6960   -4.2328 C.3     1  UNL1        0.2611
     30 C          20.4357   71.6818   -5.1808 C.3     1  UNL1        0.1582
     31 C          19.0596   72.0462   -4.6150 C.3     1  UNL1        0.1625
     32 C          18.2444   70.7650   -4.4195 C.3     1  UNL1        0.1686
     33 C          19.0161   69.8142   -3.5005 C.3     1  UNL1        0.1760
     34 O          18.3807   72.9093   -5.5302 O.3     1  UNL1       -0.3801
     35 O          18.0298   70.1375   -5.6850 O.3     1  UNL1       -0.3794
     36 O          20.2980   69.5403   -4.0695 O.3     1  UNL1       -0.3263
     37 H          17.5009   73.1812   -5.2348 H       1  UNL1        0.2105
     38 H          17.5192   69.3173   -5.6366 H       1  UNL1        0.2105
     39 C          21.7972   73.2212   -6.4901 C.2     1  UNL1        0.2231
     40 C          22.6357   74.4661   -6.6162 C.3     1  UNL1        0.0946
     41 N          21.2513   72.8928   -5.3026 N.am    1  UNL1       -0.2994
     42 O          21.6129   72.5132   -7.4581 O.2     1  UNL1       -0.2751
     43 H          21.3993   73.4581   -4.5282 H       1  UNL1        0.1496
     44 C          18.2357   68.5073   -3.3480 C.3     1  UNL1        0.1693
     45 O          17.2471   68.6583   -2.3271 O.3     1  UNL1       -0.3794
     46 H          16.7131   67.8665   -2.1757 H       1  UNL1        0.2105
@<TRIPOS>BOND
     1    29    30    1
     2    30    41    1
     3    30    31    1
     4    31    34    1
     5    31    32    1
     6    32    35    1
     7    32    33    1
     8    33    36    1
     9    33    44    1
    10    39    40    1
    11    39    42    2
    12    39    41   am
    13    41    43    1
    14    29    28    1
    15    34    37    1
    16    35    38    1
    17    29    36    1
    18    44    45    1
    19    45    46    1
    20    15     6    1
    21    15    16   ar
    22    16    21    2
    23    16    17   ar
    24    17    23    1
    25    17    18   ar
    26    18    19   ar
    27    19    20   ar
    28    15    20   ar
    29    18    22    2
    30     6     7    1
    31     6    11    1
    32     7     9    1
    33     7     8    1
    34     8    13    1
    35     9    10    1
    36     9    12    1
    37    10     5    1
    38    10    11    1
    39    12    14    1
    40     5     4    1
    41     4     1    1
    42     1     2    1
    43     1    24    1
    44     1     3    2
    45    24    25    1
    46    28    25    1
    47    25    26    1
    48    25    27    2
