@<TRIPOS>MOLECULE
UD1
 46 48 0 0 0
SMALL
GASTEIGER

@<TRIPOS>ATOM
      1 P          20.9901   71.1984   -2.9191 P.3     1  UNL1        0.2189
      2 O          20.9759   70.0823   -3.8901 O.2     1  UNL1       -0.5170
      3 O          21.5222   70.6649   -1.4961 O.3     1  UNL1       -0.4371
      4 O          19.4983   71.7802   -2.7492 O.3     1  UNL1       -0.3112
      5 C          18.6502   70.6674   -2.4619 C.3     1  UNL1        0.1811
      6 C          17.0052   70.4926   -5.6542 C.3     1  UNL1        0.2383
      7 C          16.9491   69.0436   -5.1087 C.3     1  UNL1        0.1895
      8 O          15.7819   68.3665   -5.5759 O.3     1  UNL1       -0.3779
      9 C          16.8788   69.2748   -3.5768 C.3     1  UNL1        0.1713
     10 C          17.4331   70.7001   -3.3875 C.3     1  UNL1        0.1764
     11 O          17.8180   71.1872   -4.6844 O.3     1  UNL1       -0.3308
     12 O          15.5272   69.1919   -3.1197 O.3     1  UNL1       -0.3794
     13 H          15.8073   67.4745   -5.2028 H       1  UNL1        0.2106
     14 H          15.2192   68.2979   -3.3198 H       1  UNL1        0.2105
     15 N          17.6350   70.5266   -6.9746 N.ar    1  UNL1       -0.2551
     16 C          16.8710   70.4637   -8.0790 C.ar    1  UNL1        0.3323
     17 N          17.4229   70.4968   -9.3064 N.ar    1  UNL1       -0.2743
     18 C          18.7609   70.5850   -9.4477 C.ar    1  UNL1        0.2626
     19 C          19.5774   70.6459   -8.2934 C.ar    1  UNL1        0.0795
     20 C          18.9973   70.6162   -7.0744 C.ar    1  UNL1        0.0869
     21 O          15.6627   70.3840   -7.9680 O.2     1  UNL1       -0.2464
     22 O          19.2612   70.6102  -10.5569 O.2     1  UNL1       -0.2670
     23 H          16.8563   70.4553  -10.0922 H       1  UNL1        0.1734
     24 O          21.9625   72.3632   -3.4543 O.3     1  UNL1       -0.2703
     25 P          23.3310   72.2483   -2.6156 P.3     1  UNL1        0.2208
     26 O          24.1895   73.4167   -2.9102 O.2     1  UNL1       -0.5170
     27 O          24.1034   70.8977   -3.0300 O.3     1  UNL1       -0.4371
     28 O          22.9959   72.2118   -1.0418 O.3     1  UNL1       -0.2865
     29 C          23.4104   73.4673   -0.5006 C.3     1  UNL1        0.2611
     30 C          23.5974   73.3286    1.0113 C.3     1  UNL1        0.1582
     31 C          22.2742   72.8784    1.6407 C.3     1  UNL1        0.1625
     32 C          21.1700   73.8480    1.2065 C.3     1  UNL1        0.1686
     33 C          21.1642   73.9452   -0.3205 C.3     1  UNL1        0.1760
     34 O          22.3930   72.8893    3.0645 O.3     1  UNL1       -0.3801
     35 O          19.9042   73.3653    1.6608 O.3     1  UNL1       -0.3794
     36 O          22.4176   74.4531   -0.7760 O.3     1  UNL1       -0.3263
     37 H          21.5407   72.6000    3.4182 H       1  UNL1        0.2105
     38 H          19.2392   74.0035    1.3660 H       1  UNL1        0.2105
     39 C          25.4907   72.5170    2.3116 C.2     1  UNL1        0.2231
     40 C          26.5596   71.4925    2.5950 C.3     1  UNL1        0.0946
     41 N          24.6356   72.3334    1.2873 N.am    1  UNL1       -0.2994
     42 O          25.4009   73.5073    3.0055 O.2     1  UNL1       -0.2751
     43 H          24.7074   71.5411    0.7317 H       1  UNL1        0.1496
     44 C          20.0433   74.8866   -0.7662 C.3     1  UNL1        0.1693
     45 O          18.8618   74.1283   -1.0330 O.3     1  UNL1       -0.3794
     46 H          18.1822   74.7575   -1.3103 H       1  UNL1        0.2105
@<TRIPOS>BOND
     1    29    30    1
     2    29    28    1
     3    29    36    1
     4    30    31    1
     5    30    41    1
     6    31    32    1
     7    31    34    1
     8    32    33    1
     9    32    35    1
    10    33    44    1
    11    33    36    1
    12    44    45    1
    13    39    40    1
    14    39    41   am
    15    39    42    2
    16    41    43    1
    17    28    25    1
    18    34    37    1
    19    35    38    1
    20    45    46    1
    21    15    16   ar
    22    15    20   ar
    23    15     6    1
    24    16    17   ar
    25    16    21    2
    26    17    18   ar
    27    17    23    1
    28    18    19   ar
    29    18    22    2
    30    19    20   ar
    31     6     7    1
    32     6    11    1
    33     7     8    1
    34     7     9    1
    35     8    13    1
    36     9    10    1
    37     9    12    1
    38    10    11    1
    39    10     5    1
    40    12    14    1
    41     5     4    1
    42     4     1    1
    43     1     2    2
    44     1     3    1
    45     1    24    1
    46    24    25    1
    47    25    26    2
    48    25    27    1
@<TRIPOS>MOLECULE
UD1
 46 48 0 0 0
SMALL
GASTEIGER

@<TRIPOS>ATOM
      1 P          20.9883   71.4231   -2.7217 P.3     1  UNL1        0.2189
      2 O          20.3221   72.3806   -1.8116 O.2     1  UNL1       -0.5170
      3 O          21.5726   72.2128   -3.9974 O.3     1  UNL1       -0.4371
      4 O          19.9219   70.3223   -3.2155 O.3     1  UNL1       -0.3112
      5 C          18.7470   70.4992   -2.4226 C.3     1  UNL1        0.1811
      6 C          17.0713   70.4756   -5.6036 C.3     1  UNL1        0.2383
      7 C          16.9566   69.0172   -5.0935 C.3     1  UNL1        0.1895
      8 O          15.7575   68.4030   -5.5669 O.3     1  UNL1       -0.3779
      9 C          16.9083   69.2129   -3.5558 C.3     1  UNL1        0.1713
     10 C          17.5254   70.6077   -3.3363 C.3     1  UNL1        0.1764
     11 O          17.9211   71.1099   -4.6241 O.3     1  UNL1       -0.3308
     12 O          15.5579   69.1770   -3.0890 O.3     1  UNL1       -0.3794
     13 H          15.7470   67.5017   -5.2162 H       1  UNL1        0.2106
     14 H          15.2098   68.3025   -3.3083 H       1  UNL1        0.2105
     15 N          17.6918   70.5153   -6.9283 N.ar    1  UNL1       -0.2551
     16 C          16.9202   70.4545   -8.0275 C.ar    1  UNL1        0.3323
     17 N          17.4634   70.4929   -9.2586 N.ar    1  UNL1       -0.2743
     18 C          18.8002   70.5843   -9.4090 C.ar    1  UNL1        0.2626
     19 C          19.6247   70.6430   -8.2602 C.ar    1  UNL1        0.0795
     20 C          19.0532   70.6080   -7.0373 C.ar    1  UNL1        0.0869
     21 O          15.7129   70.3720   -7.9083 O.2     1  UNL1       -0.2464
     22 O          19.2928   70.6142  -10.5216 O.2     1  UNL1       -0.2670
     23 H          16.8914   70.4528  -10.0406 H       1  UNL1        0.1734
     24 O          22.1924   70.6924   -1.9439 O.3     1  UNL1       -0.2703
     25 P          22.1415   71.2068   -0.4201 P.3     1  UNL1        0.2208
     26 O          23.3155   70.6873    0.3152 O.2     1  UNL1       -0.5170
     27 O          20.7926   70.6770    0.2812 O.3     1  UNL1       -0.4371
     28 O          22.1616   72.8160   -0.3947 O.3     1  UNL1       -0.2865
     29 C          23.4960   73.2088   -0.0688 C.3     1  UNL1        0.2611
     30 C          23.4533   74.4498    0.8244 C.3     1  UNL1        0.1582
     31 C          22.7234   75.5758    0.0835 C.3     1  UNL1        0.1625
     32 C          23.3905   75.7774   -1.2812 C.3     1  UNL1        0.1686
     33 C          23.4352   74.4366   -2.0170 C.3     1  UNL1        0.1760
     34 O          22.8072   76.7825    0.8441 O.3     1  UNL1       -0.3801
     35 O          22.6370   76.7195   -2.0470 O.3     1  UNL1       -0.3794
     36 O          24.2101   73.5012   -1.2680 O.3     1  UNL1       -0.3263
     37 H          22.3360   77.4621    0.3426 H       1  UNL1        0.2105
     38 H          23.0904   76.8158   -2.8965 H       1  UNL1        0.2105
     39 C          23.4309   73.8305    3.1803 C.2     1  UNL1        0.2231
     40 C          22.6970   73.5074    4.4567 C.3     1  UNL1        0.0946
     41 N          22.7408   74.1364    2.0648 N.am    1  UNL1       -0.2994
     42 O          24.6431   73.8144    3.1572 O.2     1  UNL1       -0.2751
     43 H          21.7707   74.1491    2.0830 H       1  UNL1        0.1496
     44 C          24.0705   74.6333   -3.3950 C.3     1  UNL1        0.1693
     45 O          24.4860   73.3681   -3.9134 O.3     1  UNL1       -0.3794
     46 H          24.8800   73.5366   -4.7800 H       1  UNL1        0.2105
@<TRIPOS>BOND
     1    29    30    1
     2    29    28    1
     3    29    36    1
     4    30    31    1
     5    30    41    1
     6    31    32    1
     7    31    34    1
     8    32    33    1
     9    32    35    1
    10    33    44    1
    11    33    36    1
    12    44    45    1
    13    39    40    1
    14    39    41   am
    15    39    42    2
    16    41    43    1
    17    28    25    1
    18    34    37    1
    19    35    38    1
    20    45    46    1
    21    15    16   ar
    22    15    20   ar
    23    15     6    1
    24    16    17   ar
    25    16    21    2
    26    17    18   ar
    27    17    23    1
    28    18    19   ar
    29    18    22    2
    30    19    20   ar
    31     6     7    1
    32     6    11    1
    33     7     8    1
    34     7     9    1
    35     8    13    1
    36     9    10    1
    37     9    12    1
    38    10    11    1
    39    10     5    1
    40    12    14    1
    41     5     4    1
    42     4     1    1
    43     1     2    2
    44     1     3    1
    45     1    24    1
    46    24    25    1
    47    25    26    2
    48    25    27    1
@<TRIPOS>MOLECULE
UD1
 46 48 0 0 0
SMALL
GASTEIGER

@<TRIPOS>ATOM
      1 P          20.8437   71.5129   -1.9337 P.3     1  UNL1        0.2189
      2 O          21.0304   72.9783   -2.0155 O.2     1  UNL1       -0.5170
      3 O          22.2628   70.7791   -2.1346 O.3     1  UNL1       -0.4371
      4 O          19.8264   71.0369   -3.0875 O.3     1  UNL1       -0.3112
      5 C          18.6835   70.4869   -2.4304 C.3     1  UNL1        0.1811
      6 C          17.0217   70.4602   -5.6187 C.3     1  UNL1        0.2383
      7 C          16.9079   69.0015   -5.1094 C.3     1  UNL1        0.1895
      8 O          15.7122   68.3848   -5.5881 O.3     1  UNL1       -0.3779
      9 C          16.8525   69.1968   -3.5719 C.3     1  UNL1        0.1713
     10 C          17.4656   70.5929   -3.3495 C.3     1  UNL1        0.1764
     11 O          17.8658   71.0962   -4.6355 O.3     1  UNL1       -0.3308
     12 O          15.5002   69.1579   -3.1110 O.3     1  UNL1       -0.3794
     13 H          15.7022   67.4834   -5.2376 H       1  UNL1        0.2106
     14 H          15.1549   68.2826   -3.3319 H       1  UNL1        0.2105
     15 N          17.6478   70.5015   -6.9407 N.ar    1  UNL1       -0.2551
     16 C          16.8793   70.4685   -8.0432 C.ar    1  UNL1        0.3323
     17 N          17.4278   70.5091   -9.2719 N.ar    1  UNL1       -0.2743
     18 C          18.7667   70.5746   -9.4165 C.ar    1  UNL1        0.2626
     19 C          19.5879   70.6039   -8.2643 C.ar    1  UNL1        0.0795
     20 C          19.0112   70.5674   -7.0439 C.ar    1  UNL1        0.0869
     21 O          15.6701   70.4095   -7.9292 O.2     1  UNL1       -0.2464
     22 O          19.2639   70.6065  -10.5270 O.2     1  UNL1       -0.2670
     23 H          16.8580   70.4892  -10.0563 H       1  UNL1        0.1734
     24 O          20.2389   71.1286   -0.4931 O.3     1  UNL1       -0.2703
     25 P          21.4199   71.3415    0.5788 P.3     1  UNL1        0.2208
     26 O          22.5302   72.0883   -0.0525 O.2     1  UNL1       -0.5170
     27 O          21.9551   69.9082    1.0805 O.3     1  UNL1       -0.4371
     28 O          20.8604   72.1742    1.8374 O.3     1  UNL1       -0.2865
     29 C          21.6002   73.3954    1.8883 C.3     1  UNL1        0.2611
     30 C          22.5937   73.3360    3.0500 C.3     1  UNL1        0.1582
     31 C          21.8240   73.1147    4.3569 C.3     1  UNL1        0.1625
     32 C          20.7431   74.1941    4.4780 C.3     1  UNL1        0.1686
     33 C          19.8872   74.1867    3.2096 C.3     1  UNL1        0.1760
     34 O          22.7231   73.2065    5.4636 O.3     1  UNL1       -0.3801
     35 O          19.9199   73.9209    5.6134 O.3     1  UNL1       -0.3794
     36 O          20.7016   74.4864    2.0767 O.3     1  UNL1       -0.3263
     37 H          22.1983   73.0611    6.2628 H       1  UNL1        0.2105
     38 H          19.2542   74.6223    5.6515 H       1  UNL1        0.2105
     39 C          24.8241   72.4835    2.5677 C.2     1  UNL1        0.2231
     40 C          25.7868   71.3442    2.3494 C.3     1  UNL1        0.0946
     41 N          23.5293   72.2296    2.8383 N.am    1  UNL1       -0.2994
     42 O          25.2151   73.6291    2.4990 O.2     1  UNL1       -0.2751
     43 H          23.2161   71.3128    2.8931 H       1  UNL1        0.1496
     44 C          18.7841   75.2397    3.3341 C.3     1  UNL1        0.1693
     45 O          18.3011   75.5803    2.0331 O.3     1  UNL1       -0.3794
     46 H          17.6097   76.2447    2.1563 H       1  UNL1        0.2105
@<TRIPOS>BOND
     1    29    30    1
     2    29    28    1
     3    29    36    1
     4    30    31    1
     5    30    41    1
     6    31    32    1
     7    31    34    1
     8    32    33    1
     9    32    35    1
    10    33    44    1
    11    33    36    1
    12    44    45    1
    13    39    40    1
    14    39    41   am
    15    39    42    2
    16    41    43    1
    17    28    25    1
    18    34    37    1
    19    35    38    1
    20    45    46    1
    21    15    16   ar
    22    15    20   ar
    23    15     6    1
    24    16    17   ar
    25    16    21    2
    26    17    18   ar
    27    17    23    1
    28    18    19   ar
    29    18    22    2
    30    19    20   ar
    31     6     7    1
    32     6    11    1
    33     7     8    1
    34     7     9    1
    35     8    13    1
    36     9    10    1
    37     9    12    1
    38    10    11    1
    39    10     5    1
    40    12    14    1
    41     5     4    1
    42     4     1    1
    43     1     2    2
    44     1     3    1
    45     1    24    1
    46    24    25    1
    47    25    26    2
    48    25    27    1
@<TRIPOS>MOLECULE
UD1
 46 48 0 0 0
SMALL
GASTEIGER

@<TRIPOS>ATOM
      1 P          20.4629   71.0295   -1.8725 P.3     1  UNL1        0.2189
      2 O          20.4017   72.5038   -1.9801 O.2     1  UNL1       -0.5170
      3 O          21.6466   70.4715   -2.8105 O.3     1  UNL1       -0.4371
      4 O          19.0599   70.3986   -2.3483 O.3     1  UNL1       -0.3112
      5 C          18.1495   71.4876   -2.5085 C.3     1  UNL1        0.1811
      6 C          16.8526   70.5101   -5.7163 C.3     1  UNL1        0.2383
      7 C          17.1330   69.1724   -4.9869 C.3     1  UNL1        0.1895
      8 O          16.2200   68.1588   -5.4093 O.3     1  UNL1       -0.3779
      9 C          16.8894   69.5531   -3.5033 C.3     1  UNL1        0.1713
     10 C          17.0392   71.0865   -3.4809 C.3     1  UNL1        0.1764
     11 O          17.3818   71.5043   -4.8134 O.3     1  UNL1       -0.3308
     12 O          15.5749   69.1664   -3.0969 O.3     1  UNL1       -0.3794
     13 H          16.4475   67.3556   -4.9208 H       1  UNL1        0.2106
     14 H          15.5252   68.2056   -3.1898 H       1  UNL1        0.2105
     15 N          17.5502   70.5569   -7.0018 N.ar    1  UNL1       -0.2551
     16 C          16.8437   70.5204   -8.1450 C.ar    1  UNL1        0.3323
     17 N          17.4587   70.5660   -9.3416 N.ar    1  UNL1       -0.2743
     18 C          18.8031   70.6401   -9.4123 C.ar    1  UNL1        0.2626
     19 C          19.5595   70.6732   -8.2166 C.ar    1  UNL1        0.0795
     20 C          18.9168   70.6316   -7.0298 C.ar    1  UNL1        0.0869
     21 O          15.6305   70.4537   -8.0977 O.2     1  UNL1       -0.2464
     22 O          19.3605   70.6765  -10.4937 O.2     1  UNL1       -0.2670
     23 H          16.9331   70.5435  -10.1561 H       1  UNL1        0.1734
     24 O          20.7469   70.6143   -0.3441 O.3     1  UNL1       -0.2703
     25 P          22.1455   71.2939    0.0700 P.3     1  UNL1        0.2208
     26 O          22.9424   71.5632   -1.1471 O.2     1  UNL1       -0.5170
     27 O          22.9621   70.2974    1.0356 O.3     1  UNL1       -0.4371
     28 O          21.8633   72.6769    0.8434 O.3     1  UNL1       -0.2865
     29 C          20.7092   72.4676    1.6592 C.3     1  UNL1        0.2611
     30 C          19.8853   73.7555    1.7085 C.3     1  UNL1        0.1582
     31 C          20.7528   74.8839    2.2776 C.3     1  UNL1        0.1625
     32 C          21.3307   74.4277    3.6215 C.3     1  UNL1        0.1686
     33 C          22.0483   73.0903    3.4271 C.3     1  UNL1        0.1760
     34 O          19.9534   76.0527    2.4684 O.3     1  UNL1       -0.3801
     35 O          22.2580   75.4042    4.0992 O.3     1  UNL1       -0.3794
     36 O          21.1190   72.1056    2.9761 O.3     1  UNL1       -0.3263
     37 H          20.5376   76.7353    2.8263 H       1  UNL1        0.2105
     38 H          22.5975   75.0775    4.9445 H       1  UNL1        0.2105
     39 C          18.1995   74.5754    0.1529 C.2     1  UNL1        0.2231
     40 C          17.7478   74.9380   -1.2388 C.3     1  UNL1        0.0946
     41 N          19.4463   74.1084    0.3568 N.am    1  UNL1       -0.2994
     42 O          17.4400   74.7035    1.0894 O.2     1  UNL1       -0.2751
     43 H          20.0542   74.0056   -0.3925 H       1  UNL1        0.1496
     44 C          22.6572   72.6416    4.7571 C.3     1  UNL1        0.1693
     45 O          21.8457   73.1113    5.8355 O.3     1  UNL1       -0.3794
     46 H          22.2636   72.8080    6.6529 H       1  UNL1        0.2105
@<TRIPOS>BOND
     1    29    30    1
     2    29    28    1
     3    29    36    1
     4    30    31    1
     5    30    41    1
     6    31    32    1
     7    31    34    1
     8    32    33    1
     9    32    35    1
    10    33    44    1
    11    33    36    1
    12    44    45    1
    13    39    40    1
    14    39    41   am
    15    39    42    2
    16    41    43    1
    17    28    25    1
    18    34    37    1
    19    35    38    1
    20    45    46    1
    21    15    16   ar
    22    15    20   ar
    23    15     6    1
    24    16    17   ar
    25    16    21    2
    26    17    18   ar
    27    17    23    1
    28    18    19   ar
    29    18    22    2
    30    19    20   ar
    31     6     7    1
    32     6    11    1
    33     7     8    1
    34     7     9    1
    35     8    13    1
    36     9    10    1
    37     9    12    1
    38    10    11    1
    39    10     5    1
    40    12    14    1
    41     5     4    1
    42     4     1    1
    43     1     2    2
    44     1     3    1
    45     1    24    1
    46    24    25    1
    47    25    26    2
    48    25    27    1
@<TRIPOS>MOLECULE
UD1
 46 48 0 0 0
SMALL
GASTEIGER

@<TRIPOS>ATOM
      1 P          20.7172   71.9131   -2.0777 P.3     1  UNL1        0.2189
      2 O          21.6355   73.0038   -2.4724 O.2     1  UNL1       -0.5170
      3 O          21.3622   70.4949   -2.4844 O.3     1  UNL1       -0.4371
      4 O          19.3085   72.0978   -2.8354 O.3     1  UNL1       -0.3112
      5 C          18.4832   70.9980   -2.4486 C.3     1  UNL1        0.1811
      6 C          16.9345   70.5690   -5.6650 C.3     1  UNL1        0.2383
      7 C          16.9844   69.1416   -5.0647 C.3     1  UNL1        0.1895
      8 O          15.8880   68.3532   -5.5291 O.3     1  UNL1       -0.3779
      9 C          16.8589   69.4230   -3.5447 C.3     1  UNL1        0.1713
     10 C          17.2898   70.8954   -3.3998 C.3     1  UNL1        0.1764
     11 O          17.6644   71.3640   -4.7064 O.3     1  UNL1       -0.3308
     12 O          15.5081   69.2455   -3.1128 O.3     1  UNL1       -0.3794
     13 H          15.9776   67.4809   -5.1210 H       1  UNL1        0.2106
     14 H          15.2792   68.3223   -3.2841 H       1  UNL1        0.2105
     15 N          17.5907   70.6058   -6.9724 N.ar    1  UNL1       -0.2551
     16 C          16.8553   70.4794   -8.0908 C.ar    1  UNL1        0.3323
     17 N          17.4317   70.5135   -9.3068 N.ar    1  UNL1       -0.2743
     18 C          18.7663   70.6669   -9.4222 C.ar    1  UNL1        0.2626
     19 C          19.5531   70.7952   -8.2528 C.ar    1  UNL1        0.0795
     20 C          18.9485   70.7629   -7.0459 C.ar    1  UNL1        0.0869
     21 O          15.6505   70.3404   -8.0031 O.2     1  UNL1       -0.2464
     22 O          19.2890   70.6931  -10.5210 O.2     1  UNL1       -0.2670
     23 H          16.8854   70.4255  -10.1031 H       1  UNL1        0.1734
     24 O          20.4809   71.9598   -0.4868 O.3     1  UNL1       -0.2703
     25 P          21.8110   71.3676    0.1984 P.3     1  UNL1        0.2208
     26 O          22.8442   71.1494   -0.8378 O.2     1  UNL1       -0.5170
     27 O          21.4681   69.9680    0.9164 O.3     1  UNL1       -0.4371
     28 O          22.3616   72.4104    1.2938 O.3     1  UNL1       -0.2865
     29 C          22.4488   71.7032    2.5321 C.3     1  UNL1        0.2611
     30 C          22.0073   72.6235    3.6715 C.3     1  UNL1        0.1582
     31 C          22.9082   73.8635    3.6919 C.3     1  UNL1        0.1625
     32 C          24.3696   73.4066    3.7519 C.3     1  UNL1        0.1686
     33 C          24.6337   72.4294    2.6044 C.3     1  UNL1        0.1760
     34 O          22.6038   74.6576    4.8400 O.3     1  UNL1       -0.3801
     35 O          25.2303   74.5399    3.6239 O.3     1  UNL1       -0.3794
     36 O          23.7949   71.2834    2.7444 O.3     1  UNL1       -0.3263
     37 H          23.1918   75.4249    4.8128 H       1  UNL1        0.2105
     38 H          26.1383   74.2077    3.6660 H       1  UNL1        0.2105
     39 C          20.3405   74.1742    2.8046 C.2     1  UNL1        0.2231
     40 C          18.9087   74.5934    2.5889 C.3     1  UNL1        0.0946
     41 N          20.6166   73.0310    3.4612 N.am    1  UNL1       -0.2994
     42 O          21.2443   74.8665    2.3876 O.2     1  UNL1       -0.2751
     43 H          19.8934   72.4769    3.7953 H       1  UNL1        0.1496
     44 C          26.0996   71.9919    2.6359 C.3     1  UNL1        0.1693
     45 O          26.2400   70.7457    1.9508 O.3     1  UNL1       -0.3794
     46 H          27.1757   70.5065    1.9941 H       1  UNL1        0.2105
@<TRIPOS>BOND
     1    29    30    1
     2    29    28    1
     3    29    36    1
     4    30    31    1
     5    30    41    1
     6    31    32    1
     7    31    34    1
     8    32    33    1
     9    32    35    1
    10    33    44    1
    11    33    36    1
    12    44    45    1
    13    39    40    1
    14    39    41   am
    15    39    42    2
    16    41    43    1
    17    28    25    1
    18    34    37    1
    19    35    38    1
    20    45    46    1
    21    15    16   ar
    22    15    20   ar
    23    15     6    1
    24    16    17   ar
    25    16    21    2
    26    17    18   ar
    27    17    23    1
    28    18    19   ar
    29    18    22    2
    30    19    20   ar
    31     6     7    1
    32     6    11    1
    33     7     8    1
    34     7     9    1
    35     8    13    1
    36     9    10    1
    37     9    12    1
    38    10    11    1
    39    10     5    1
    40    12    14    1
    41     5     4    1
    42     4     1    1
    43     1     2    2
    44     1     3    1
    45     1    24    1
    46    24    25    1
    47    25    26    2
    48    25    27    1
@<TRIPOS>MOLECULE
UD1
 46 48 0 0 0
SMALL
GASTEIGER

@<TRIPOS>ATOM
      1 P          22.7812   71.9745   -3.1489 P.3     1  UNL1        0.2189
      2 O          24.0857   71.5917   -3.7324 O.2     1  UNL1       -0.5170
      3 O          21.8794   70.6571   -2.9397 O.3     1  UNL1       -0.4371
      4 O          22.0251   72.9885   -4.1454 O.3     1  UNL1       -0.3112
      5 C          22.7342   72.9563   -5.3850 C.3     1  UNL1        0.1811
      6 C          19.6354   72.0003   -6.9376 C.3     1  UNL1        0.2383
      7 C          19.3629   73.4140   -6.3654 C.3     1  UNL1        0.1895
      8 O          18.4084   74.1136   -7.1646 O.3     1  UNL1       -0.3779
      9 C          20.7603   74.0796   -6.4629 C.3     1  UNL1        0.1713
     10 C          21.7367   72.8902   -6.5426 C.3     1  UNL1        0.1764
     11 O          20.9563   71.6865   -6.4473 O.3     1  UNL1       -0.3308
     12 O          20.8487   74.8875   -7.6386 O.3     1  UNL1       -0.3794
     13 H          18.2836   74.9815   -6.7563 H       1  UNL1        0.2106
     14 H          20.1751   75.5755   -7.5559 H       1  UNL1        0.2105
     15 N          18.6553   71.0379   -6.4328 N.ar    1  UNL1       -0.2551
     16 C          17.6193   70.6732   -7.2080 C.ar    1  UNL1        0.3323
     17 N          16.7049   69.7870   -6.7712 N.ar    1  UNL1       -0.2743
     18 C          16.8101   69.2548   -5.5369 C.ar    1  UNL1        0.2626
     19 C          17.8926   69.6344   -4.7080 C.ar    1  UNL1        0.0795
     20 C          18.7983   70.5212   -5.1733 C.ar    1  UNL1        0.0869
     21 O          17.5108   71.1445   -8.3237 O.2     1  UNL1       -0.2464
     22 O          15.9813   68.4571   -5.1391 O.2     1  UNL1       -0.2670
     23 H          15.9666   69.5317   -7.3456 H       1  UNL1        0.1734
     24 O          23.0187   72.6945   -1.7297 O.3     1  UNL1       -0.2703
     25 P          21.8142   72.2335   -0.7673 P.3     1  UNL1        0.2208
     26 O          21.8117   70.7585   -0.6524 O.2     1  UNL1       -0.5170
     27 O          20.4123   72.7251   -1.3879 O.3     1  UNL1       -0.4371
     28 O          22.0117   72.8849    0.6912 O.3     1  UNL1       -0.2865
     29 C          21.6891   71.8713    1.6450 C.3     1  UNL1        0.2611
     30 C          21.1116   72.5254    2.9014 C.3     1  UNL1        0.1582
     31 C          22.1432   73.5019    3.4774 C.3     1  UNL1        0.1625
     32 C          23.4654   72.7545    3.6805 C.3     1  UNL1        0.1686
     33 C          23.8670   72.0856    2.3643 C.3     1  UNL1        0.1760
     34 O          21.6773   74.0066    4.7303 O.3     1  UNL1       -0.3801
     35 O          24.4804   73.6784    4.0778 O.3     1  UNL1       -0.3794
     36 O          22.8682   71.1421    1.9786 O.3     1  UNL1       -0.3263
     37 H          22.3548   74.6152    5.0557 H       1  UNL1        0.2105
     38 H          25.2940   73.1674    4.1936 H       1  UNL1        0.2105
     39 C          19.9475   74.5557    2.2252 C.2     1  UNL1        0.2231
     40 C          18.6871   75.3030    1.8713 C.3     1  UNL1        0.0946
     41 N          19.8875   73.2517    2.5570 N.am    1  UNL1       -0.2994
     42 O          21.0161   75.1287    2.2119 O.2     1  UNL1       -0.2751
     43 H          19.0325   72.7930    2.5680 H       1  UNL1        0.1496
     44 C          25.2033   71.3632    2.5476 C.3     1  UNL1        0.1693
     45 O          24.9759   69.9551    2.6357 O.3     1  UNL1       -0.3794
     46 H          25.8408   69.5387    2.7507 H       1  UNL1        0.2105
@<TRIPOS>BOND
     1    29    30    1
     2    29    28    1
     3    29    36    1
     4    30    31    1
     5    30    41    1
     6    31    32    1
     7    31    34    1
     8    32    33    1
     9    32    35    1
    10    33    44    1
    11    33    36    1
    12    44    45    1
    13    39    40    1
    14    39    41   am
    15    39    42    2
    16    41    43    1
    17    28    25    1
    18    34    37    1
    19    35    38    1
    20    45    46    1
    21    15    16   ar
    22    15    20   ar
    23    15     6    1
    24    16    17   ar
    25    16    21    2
    26    17    18   ar
    27    17    23    1
    28    18    19   ar
    29    18    22    2
    30    19    20   ar
    31     6     7    1
    32     6    11    1
    33     7     8    1
    34     7     9    1
    35     8    13    1
    36     9    10    1
    37     9    12    1
    38    10    11    1
    39    10     5    1
    40    12    14    1
    41     5     4    1
    42     4     1    1
    43     1     2    2
    44     1     3    1
    45     1    24    1
    46    24    25    1
    47    25    26    2
    48    25    27    1
@<TRIPOS>MOLECULE
UD1
 46 48 0 0 0
SMALL
GASTEIGER

@<TRIPOS>ATOM
      1 P          21.2414   71.8101   -1.3271 P.3     1  UNL1        0.2189
      2 O          21.8799   71.8632   -2.6607 O.2     1  UNL1       -0.5170
      3 O          21.9629   70.6836   -0.4310 O.3     1  UNL1       -0.4371
      4 O          19.6821   71.4447   -1.4936 O.3     1  UNL1       -0.3112
      5 C          19.5919   70.4863   -2.5489 C.3     1  UNL1        0.1811
      6 C          17.5084   70.5469   -5.4785 C.3     1  UNL1        0.2383
      7 C          17.3644   69.1053   -4.9295 C.3     1  UNL1        0.1895
      8 O          16.0740   68.5713   -5.2277 O.3     1  UNL1       -0.3779
      9 C          17.5354   69.3196   -3.4031 C.3     1  UNL1        0.1713
     10 C          18.2692   70.6702   -3.2945 C.3     1  UNL1        0.1764
     11 O          18.5223   71.1305   -4.6329 O.3     1  UNL1       -0.3308
     12 O          16.2602   69.3826   -2.7607 O.3     1  UNL1       -0.3794
     13 H          16.0496   67.6766   -4.8612 H       1  UNL1        0.2106
     14 H          15.8276   68.5322   -2.9148 H       1  UNL1        0.2105
     15 N          17.9475   70.5298   -6.8743 N.ar    1  UNL1       -0.2551
     16 C          17.0341   70.4836   -7.8596 C.ar    1  UNL1        0.3323
     17 N          17.4091   70.4708   -9.1524 N.ar    1  UNL1       -0.2743
     18 C          18.7166   70.4949   -9.4809 C.ar    1  UNL1        0.2626
     19 C          19.6889   70.5375   -8.4535 C.ar    1  UNL1        0.0795
     20 C          19.2849   70.5549   -7.1652 C.ar    1  UNL1        0.0869
     21 O          15.8510   70.4614   -7.5793 O.2     1  UNL1       -0.2464
     22 O          19.0569   70.4785  -10.6494 O.2     1  UNL1       -0.2670
     23 H          16.7366   70.4421   -9.8503 H       1  UNL1        0.1734
     24 O          21.3830   73.2420   -0.6070 O.3     1  UNL1       -0.2703
     25 P          20.5073   73.1729    0.7412 P.3     1  UNL1        0.2208
     26 O          20.4881   71.7823    1.2460 O.2     1  UNL1       -0.5170
     27 O          19.0018   73.6506    0.4293 O.3     1  UNL1       -0.4371
     28 O          21.1555   74.1385    1.8538 O.3     1  UNL1       -0.2865
     29 C          22.3581   74.6681    1.2930 C.3     1  UNL1        0.2611
     30 C          23.5334   74.3378    2.2148 C.3     1  UNL1        0.1582
     31 C          23.2700   74.9416    3.5988 C.3     1  UNL1        0.1625
     32 C          22.9712   76.4354    3.4331 C.3     1  UNL1        0.1686
     33 C          21.8361   76.6073    2.4215 C.3     1  UNL1        0.1760
     34 O          24.4237   74.7694    4.4239 O.3     1  UNL1       -0.3801
     35 O          22.5793   76.9869    4.6916 O.3     1  UNL1       -0.3794
     36 O          22.2345   76.0821    1.1558 O.3     1  UNL1       -0.3263
     37 H          24.2144   75.1622    5.2824 H       1  UNL1        0.2105
     38 H          22.4003   77.9261    4.5418 H       1  UNL1        0.2105
     39 C          24.8949   72.3254    2.3906 C.2     1  UNL1        0.2231
     40 C          25.0359   70.8294    2.5104 C.3     1  UNL1        0.0946
     41 N          23.6709   72.8846    2.3317 N.am    1  UNL1       -0.2994
     42 O          25.8835   73.0260    2.3465 O.2     1  UNL1       -0.2751
     43 H          22.8796   72.3241    2.3667 H       1  UNL1        0.1496
     44 C          21.5079   78.0944    2.2730 C.3     1  UNL1        0.1693
     45 O          20.4047   78.4259    3.1187 O.3     1  UNL1       -0.3794
     46 H          20.2308   79.3688    2.9950 H       1  UNL1        0.2105
@<TRIPOS>BOND
     1    29    30    1
     2    29    28    1
     3    29    36    1
     4    30    31    1
     5    30    41    1
     6    31    32    1
     7    31    34    1
     8    32    33    1
     9    32    35    1
    10    33    44    1
    11    33    36    1
    12    44    45    1
    13    39    40    1
    14    39    41   am
    15    39    42    2
    16    41    43    1
    17    28    25    1
    18    34    37    1
    19    35    38    1
    20    45    46    1
    21    15    16   ar
    22    15    20   ar
    23    15     6    1
    24    16    17   ar
    25    16    21    2
    26    17    18   ar
    27    17    23    1
    28    18    19   ar
    29    18    22    2
    30    19    20   ar
    31     6     7    1
    32     6    11    1
    33     7     8    1
    34     7     9    1
    35     8    13    1
    36     9    10    1
    37     9    12    1
    38    10    11    1
    39    10     5    1
    40    12    14    1
    41     5     4    1
    42     4     1    1
    43     1     2    2
    44     1     3    1
    45     1    24    1
    46    24    25    1
    47    25    26    2
    48    25    27    1
@<TRIPOS>MOLECULE
UD1
 46 48 0 0 0
SMALL
GASTEIGER

@<TRIPOS>ATOM
      1 P          22.7225   73.3532   -4.3385 P.3     1  UNL1        0.2189
      2 O          23.4564   72.6034   -5.3815 O.2     1  UNL1       -0.5170
      3 O          23.3496   74.8295   -4.1973 O.3     1  UNL1       -0.4371
      4 O          22.8507   72.5799   -2.9320 O.3     1  UNL1       -0.3112
      5 C          22.1898   73.3856   -1.9550 C.3     1  UNL1        0.1811
      6 C          23.1911   72.1352    1.2639 C.3     1  UNL1        0.2383
      7 C          22.3926   73.4248    1.5796 C.3     1  UNL1        0.1895
      8 O          21.7320   73.3209    2.8413 O.3     1  UNL1       -0.3779
      9 C          21.3652   73.4641    0.4186 C.3     1  UNL1        0.1713
     10 C          21.9976   72.5769   -0.6711 C.3     1  UNL1        0.1764
     11 O          23.2729   72.1331   -0.1772 O.3     1  UNL1       -0.3308
     12 O          20.1100   72.9283    0.8429 O.3     1  UNL1       -0.3794
     13 H          21.2560   74.1518    2.9776 H       1  UNL1        0.2106
     14 H          19.7956   73.4906    1.5634 H       1  UNL1        0.2105
     15 N          24.5277   72.1936    1.8567 N.ar    1  UNL1       -0.2551
     16 C          25.2105   71.0562    2.0740 C.ar    1  UNL1        0.3323
     17 N          26.4434   71.0802    2.6142 N.ar    1  UNL1       -0.2743
     18 C          27.0125   72.2536    2.9565 C.ar    1  UNL1        0.2626
     19 C          26.3023   73.4583    2.7387 C.ar    1  UNL1        0.0795
     20 C          25.0695   73.4057    2.1904 C.ar    1  UNL1        0.0869
     21 O          24.7107   69.9900    1.7706 O.2     1  UNL1       -0.2464
     22 O          28.1251   72.2762    3.4494 O.2     1  UNL1       -0.2670
     23 H          26.9234   70.2504    2.7596 H       1  UNL1        0.1734
     24 O          21.1709   73.4652   -4.7496 O.3     1  UNL1       -0.2703
     25 P          20.7549   72.0468   -5.3854 P.3     1  UNL1        0.2208
     26 O          21.1269   70.9602   -4.4528 O.2     1  UNL1       -0.5170
     27 O          21.5237   71.8388   -6.7846 O.3     1  UNL1       -0.4371
     28 O          19.1656   72.0161   -5.6383 O.3     1  UNL1       -0.2865
     29 C          18.6925   70.7595   -5.1501 C.3     1  UNL1        0.2611
     30 C          17.7283   70.1520   -6.1705 C.3     1  UNL1        0.1582
     31 C          16.5608   71.1196   -6.3950 C.3     1  UNL1        0.1625
     32 C          15.9410   71.4633   -5.0364 C.3     1  UNL1        0.1686
     33 C          17.0397   71.9749   -4.1024 C.3     1  UNL1        0.1760
     34 O          15.5800   70.5013   -7.2298 O.3     1  UNL1       -0.3801
     35 O          14.9471   72.4756   -5.2068 O.3     1  UNL1       -0.3794
     36 O          18.0202   70.9564   -3.9081 O.3     1  UNL1       -0.3263
     37 H          14.8660   71.1434   -7.3448 H       1  UNL1        0.2105
     38 H          14.5841   72.6618   -4.3293 H       1  UNL1        0.2105
     39 C          18.3493   70.8419   -8.4228 C.2     1  UNL1        0.2231
     40 C          19.0721   70.6116   -9.7253 C.3     1  UNL1        0.0946
     41 N          18.4307   69.9289   -7.4359 N.am    1  UNL1       -0.2994
     42 O          17.6935   71.8493   -8.2632 O.2     1  UNL1       -0.2751
     43 H          18.9552   69.1225   -7.5634 H       1  UNL1        0.1496
     44 C          16.4254   72.3517   -2.7526 C.3     1  UNL1        0.1693
     45 O          15.2931   71.5189   -2.4950 O.3     1  UNL1       -0.3794
     46 H          14.9366   71.7886   -1.6378 H       1  UNL1        0.2105
@<TRIPOS>BOND
     1    29    30    1
     2    29    28    1
     3    29    36    1
     4    30    31    1
     5    30    41    1
     6    31    32    1
     7    31    34    1
     8    32    33    1
     9    32    35    1
    10    33    44    1
    11    33    36    1
    12    44    45    1
    13    39    40    1
    14    39    41   am
    15    39    42    2
    16    41    43    1
    17    28    25    1
    18    34    37    1
    19    35    38    1
    20    45    46    1
    21    15    16   ar
    22    15    20   ar
    23    15     6    1
    24    16    17   ar
    25    16    21    2
    26    17    18   ar
    27    17    23    1
    28    18    19   ar
    29    18    22    2
    30    19    20   ar
    31     6     7    1
    32     6    11    1
    33     7     8    1
    34     7     9    1
    35     8    13    1
    36     9    10    1
    37     9    12    1
    38    10    11    1
    39    10     5    1
    40    12    14    1
    41     5     4    1
    42     4     1    1
    43     1     2    2
    44     1     3    1
    45     1    24    1
    46    24    25    1
    47    25    26    2
    48    25    27    1
@<TRIPOS>MOLECULE
UD1
 46 48 0 0 0
SMALL
GASTEIGER

@<TRIPOS>ATOM
      1 P          20.6237   71.2182   -3.0536 P.3     1  UNL1        0.2189
      2 O          20.2389   72.6123   -2.7419 O.2     1  UNL1       -0.5170
      3 O          21.2124   71.1458   -4.5505 O.3     1  UNL1       -0.4371
      4 O          19.3296   70.2668   -2.9404 O.3     1  UNL1       -0.3112
      5 C          18.2423   71.0947   -2.5246 C.3     1  UNL1        0.1811
      6 C          16.8050   70.5592   -5.7764 C.3     1  UNL1        0.2383
      7 C          16.8601   69.1481   -5.1392 C.3     1  UNL1        0.1895
      8 O          15.7928   68.3290   -5.6181 O.3     1  UNL1       -0.3779
      9 C          16.6813   69.4644   -3.6316 C.3     1  UNL1        0.1713
     10 C          17.0820   70.9474   -3.5101 C.3     1  UNL1        0.1764
     11 O          17.4901   71.3904   -4.8156 O.3     1  UNL1       -0.3308
     12 O          15.3205   69.2734   -3.2382 O.3     1  UNL1       -0.3794
     13 H          15.8842   67.4687   -5.1857 H       1  UNL1        0.2106
     14 H          15.1131   68.3423   -3.3934 H       1  UNL1        0.2105
     15 N          17.5020   70.5757   -7.0631 N.ar    1  UNL1       -0.2551
     16 C          16.7935   70.5437   -8.2051 C.ar    1  UNL1        0.3323
     17 N          17.4079   70.5618   -9.4028 N.ar    1  UNL1       -0.2743
     18 C          18.7536   70.6032   -9.4755 C.ar    1  UNL1        0.2626
     19 C          19.5120   70.6312   -8.2809 C.ar    1  UNL1        0.0795
     20 C          18.8699   70.6175   -7.0931 C.ar    1  UNL1        0.0869
     21 O          15.5790   70.5064   -8.1559 O.2     1  UNL1       -0.2464
     22 O          19.3104   70.6148  -10.5577 O.2     1  UNL1       -0.2670
     23 H          16.8809   70.5431  -10.2165 H       1  UNL1        0.1734
     24 O          21.7451   70.7250   -2.0105 O.3     1  UNL1       -0.2703
     25 P          23.0291   71.6704   -2.2266 P.3     1  UNL1        0.2208
     26 O          22.6387   72.8596   -3.0155 O.2     1  UNL1       -0.5170
     27 O          24.1703   70.8544   -3.0165 O.3     1  UNL1       -0.4371
     28 O          23.5990   72.1389   -0.7962 O.3     1  UNL1       -0.2865
     29 C          22.7972   73.2426   -0.3718 C.3     1  UNL1        0.2611
     30 C          23.7047   74.4294   -0.0435 C.3     1  UNL1        0.1582
     31 C          24.6875   74.0191    1.0589 C.3     1  UNL1        0.1625
     32 C          23.8908   73.4604    2.2427 C.3     1  UNL1        0.1686
     33 C          22.9713   72.3444    1.7423 C.3     1  UNL1        0.1760
     34 O          25.4393   75.1592    1.4788 O.3     1  UNL1       -0.3801
     35 O          24.7915   72.9371    3.2206 O.3     1  UNL1       -0.3794
     36 O          22.0521   72.8697    0.7855 O.3     1  UNL1       -0.3263
     37 H          26.0433   74.8562    2.1707 H       1  UNL1        0.2105
     38 H          24.2495   72.5959    3.9461 H       1  UNL1        0.2105
     39 C          24.2261   76.0251   -1.8087 C.2     1  UNL1        0.2231
     40 C          24.9915   76.4303   -3.0425 C.3     1  UNL1        0.0946
     41 N          24.4483   74.8237   -1.2418 N.am    1  UNL1       -0.2994
     42 O          23.4095   76.7806   -1.3265 O.2     1  UNL1       -0.2751
     43 H          25.1016   74.2188   -1.6276 H       1  UNL1        0.1496
     44 C          22.1946   71.7575    2.9228 C.3     1  UNL1        0.1693
     45 O          20.8271   72.1645    2.8433 O.3     1  UNL1       -0.3794
     46 H          20.3745   71.7747    3.6034 H       1  UNL1        0.2105
@<TRIPOS>BOND
     1    29    30    1
     2    29    28    1
     3    29    36    1
     4    30    31    1
     5    30    41    1
     6    31    32    1
     7    31    34    1
     8    32    33    1
     9    32    35    1
    10    33    44    1
    11    33    36    1
    12    44    45    1
    13    39    40    1
    14    39    41   am
    15    39    42    2
    16    41    43    1
    17    28    25    1
    18    34    37    1
    19    35    38    1
    20    45    46    1
    21    15    16   ar
    22    15    20   ar
    23    15     6    1
    24    16    17   ar
    25    16    21    2
    26    17    18   ar
    27    17    23    1
    28    18    19   ar
    29    18    22    2
    30    19    20   ar
    31     6     7    1
    32     6    11    1
    33     7     8    1
    34     7     9    1
    35     8    13    1
    36     9    10    1
    37     9    12    1
    38    10    11    1
    39    10     5    1
    40    12    14    1
    41     5     4    1
    42     4     1    1
    43     1     2    2
    44     1     3    1
    45     1    24    1
    46    24    25    1
    47    25    26    2
    48    25    27    1
@<TRIPOS>MOLECULE
UD1
 46 48 0 0 0
SMALL
GASTEIGER

@<TRIPOS>ATOM
      1 P          20.9703   70.9172   -3.7482 P.3     1  UNL1        0.2189
      2 O          21.4365   71.6387   -4.9527 O.2     1  UNL1       -0.5170
      3 O          20.4554   69.4502   -4.1669 O.3     1  UNL1       -0.4371
      4 O          19.7616   71.7351   -3.0677 O.3     1  UNL1       -0.3112
      5 C          18.8223   70.7684   -2.5948 C.3     1  UNL1        0.1811
      6 C          17.0828   70.5217   -5.7317 C.3     1  UNL1        0.2383
      7 C          17.0323   69.0883   -5.1460 C.3     1  UNL1        0.1895
      8 O          15.8469   68.4083   -5.5604 O.3     1  UNL1       -0.3779
      9 C          17.0089   69.3609   -3.6195 C.3     1  UNL1        0.1713
     10 C          17.5787   70.7862   -3.4849 C.3     1  UNL1        0.1764
     11 O          17.9289   71.2354   -4.8051 O.3     1  UNL1       -0.3308
     12 O          15.6707   69.3010   -3.1210 O.3     1  UNL1       -0.3794
     13 H          15.8768   67.5264   -5.1644 H       1  UNL1        0.2106
     14 H          15.3504   68.4045   -3.2878 H       1  UNL1        0.2105
     15 N          17.6736   70.5153   -7.0704 N.ar    1  UNL1       -0.2551
     16 C          16.8746   70.4930   -8.1513 C.ar    1  UNL1        0.3323
     17 N          17.3904   70.4906   -9.3947 N.ar    1  UNL1       -0.2743
     18 C          18.7264   70.5013   -9.5761 C.ar    1  UNL1        0.2626
     19 C          19.5793   70.5187   -8.4469 C.ar    1  UNL1        0.0795
     20 C          19.0352   70.5262   -7.2111 C.ar    1  UNL1        0.0869
     21 O          15.6676   70.4833   -8.0040 O.2     1  UNL1       -0.2464
     22 O          19.1940   70.4943  -10.6998 O.2     1  UNL1       -0.2670
     23 H          16.7991   70.4793  -10.1631 H       1  UNL1        0.1734
     24 O          22.1837   70.7823   -2.7002 O.3     1  UNL1       -0.2703
     25 P          22.6920   72.2757   -2.3828 P.3     1  UNL1        0.2208
     26 O          21.7313   73.2527   -2.9408 O.2     1  UNL1       -0.5170
     27 O          24.1385   72.5045   -3.0519 O.3     1  UNL1       -0.4371
     28 O          22.8008   72.4798   -0.7900 O.3     1  UNL1       -0.2865
     29 C          22.3520   71.2659   -0.1850 C.3     1  UNL1        0.2611
     30 C          21.2745   71.5868    0.8523 C.3     1  UNL1        0.1582
     31 C          21.8598   72.5328    1.9068 C.3     1  UNL1        0.1625
     32 C          23.1407   71.9075    2.4693 C.3     1  UNL1        0.1686
     33 C          24.0788   71.5651    1.3100 C.3     1  UNL1        0.1760
     34 O          20.9126   72.7211    2.9597 O.3     1  UNL1       -0.3801
     35 O          23.7811   72.8365    3.3458 O.3     1  UNL1       -0.3794
     36 O          23.4528   70.6163    0.4472 O.3     1  UNL1       -0.3263
     37 H          21.3208   73.3213    3.5988 H       1  UNL1        0.2105
     38 H          24.5813   72.4037    3.6759 H       1  UNL1        0.2105
     39 C          20.0460   73.5743    0.1632 C.2     1  UNL1        0.2231
     40 C          18.8740   74.2367   -0.5149 C.3     1  UNL1        0.0946
     41 N          20.1364   72.2308    0.1932 N.am    1  UNL1       -0.2994
     42 O          20.9077   74.2510    0.6825 O.2     1  UNL1       -0.2751
     43 H          19.4468   71.6890   -0.2221 H       1  UNL1        0.1496
     44 C          25.3751   70.9695    1.8633 C.3     1  UNL1        0.1693
     45 O          25.0637   69.9808    2.8469 O.3     1  UNL1       -0.3794
     46 H          25.9057   69.6319    3.1693 H       1  UNL1        0.2105
@<TRIPOS>BOND
     1    29    30    1
     2    29    28    1
     3    29    36    1
     4    30    31    1
     5    30    41    1
     6    31    32    1
     7    31    34    1
     8    32    33    1
     9    32    35    1
    10    33    44    1
    11    33    36    1
    12    44    45    1
    13    39    40    1
    14    39    41   am
    15    39    42    2
    16    41    43    1
    17    28    25    1
    18    34    37    1
    19    35    38    1
    20    45    46    1
    21    15    16   ar
    22    15    20   ar
    23    15     6    1
    24    16    17   ar
    25    16    21    2
    26    17    18   ar
    27    17    23    1
    28    18    19   ar
    29    18    22    2
    30    19    20   ar
    31     6     7    1
    32     6    11    1
    33     7     8    1
    34     7     9    1
    35     8    13    1
    36     9    10    1
    37     9    12    1
    38    10    11    1
    39    10     5    1
    40    12    14    1
    41     5     4    1
    42     4     1    1
    43     1     2    2
    44     1     3    1
    45     1    24    1
    46    24    25    1
    47    25    26    2
    48    25    27    1
@<TRIPOS>MOLECULE
UD1
 46 48 0 0 0
SMALL
GASTEIGER

@<TRIPOS>ATOM
      1 P          16.2664   69.6577   -2.6718 P.3     1  UNL1        0.2189
      2 O          15.9833   69.0834   -4.0055 O.2     1  UNL1       -0.5170
      3 O          16.9579   68.5399   -1.7418 O.3     1  UNL1       -0.4371
      4 O          14.8888   70.1417   -1.9931 O.3     1  UNL1       -0.3112
      5 C          14.9139   69.6903   -0.6382 C.3     1  UNL1        0.1811
      6 C          12.8297   67.4786    1.2833 C.3     1  UNL1        0.2383
      7 C          11.8977   68.6554    0.9005 C.3     1  UNL1        0.1895
      8 O          10.5466   68.2137    0.7636 O.3     1  UNL1       -0.3779
      9 C          12.4767   69.0974   -0.4686 C.3     1  UNL1        0.1713
     10 C          13.9153   68.5452   -0.4625 C.3     1  UNL1        0.1764
     11 O          14.1243   67.9048    0.8077 O.3     1  UNL1       -0.3308
     12 O          11.7200   68.5283   -1.5392 O.3     1  UNL1       -0.3794
     13 H          10.0207   68.9900    0.5263 H       1  UNL1        0.2106
     14 H          10.8180   68.8646   -1.4532 H       1  UNL1        0.2105
     15 N          12.8512   67.2835    2.7334 N.ar    1  UNL1       -0.2551
     16 C          12.6237   68.3272    3.5496 C.ar    1  UNL1        0.3323
     17 N          12.6334   68.1761    4.8872 N.ar    1  UNL1       -0.2743
     18 C          12.8824   66.9685    5.4328 C.ar    1  UNL1        0.2626
     19 C          13.1295   65.8624    4.5853 C.ar    1  UNL1        0.0795
     20 C          13.1085   66.0410    3.2470 C.ar    1  UNL1        0.0869
     21 O          12.3975   69.4226    3.0726 O.2     1  UNL1       -0.2464
     22 O          12.8962   66.8318    6.6422 O.2     1  UNL1       -0.2670
     23 H          12.4625   68.9390    5.4609 H       1  UNL1        0.1734
     24 O          17.2580   70.9152   -2.8284 O.3     1  UNL1       -0.2703
     25 P          18.7373   70.3174   -3.0372 P.3     1  UNL1        0.2208
     26 O          18.6426   68.9016   -3.4559 O.2     1  UNL1       -0.5170
     27 O          19.5559   70.4136   -1.6541 O.3     1  UNL1       -0.4371
     28 O          19.5037   71.1626   -4.1725 O.3     1  UNL1       -0.2865
     29 C          20.6463   70.3968   -4.5588 C.3     1  UNL1        0.2611
     30 C          21.8968   71.2728   -4.4643 C.3     1  UNL1        0.1582
     31 C          21.7265   72.4901   -5.3801 C.3     1  UNL1        0.1625
     32 C          21.3797   71.9985   -6.7894 C.3     1  UNL1        0.1686
     33 C          20.1661   71.0701   -6.7088 C.3     1  UNL1        0.1760
     34 O          22.9442   73.2366   -5.4158 O.3     1  UNL1       -0.3801
     35 O          21.0729   73.1172   -7.6237 O.3     1  UNL1       -0.3794
     36 O          20.4783   69.9378   -5.8984 O.3     1  UNL1       -0.3263
     37 H          22.7923   73.9911   -6.0014 H       1  UNL1        0.2105
     38 H          20.8602   72.7634   -8.4990 H       1  UNL1        0.2105
     39 C          23.2389   71.4808   -2.4420 C.2     1  UNL1        0.2231
     40 C          23.4248   71.9413   -1.0187 C.3     1  UNL1        0.0946
     41 N          22.0781   71.7203   -3.0819 N.am    1  UNL1       -0.2994
     42 O          24.1343   70.8939   -3.0111 O.2     1  UNL1       -0.2751
     43 H          21.3613   72.1898   -2.6265 H       1  UNL1        0.1496
     44 C          19.7915   70.5992   -8.1156 C.3     1  UNL1        0.1693
     45 O          20.1401   71.6089   -9.0649 O.3     1  UNL1       -0.3794
     46 H          19.8879   71.2732   -9.9358 H       1  UNL1        0.2105
@<TRIPOS>BOND
     1    29    30    1
     2    29    28    1
     3    29    36    1
     4    30    31    1
     5    30    41    1
     6    31    32    1
     7    31    34    1
     8    32    33    1
     9    32    35    1
    10    33    44    1
    11    33    36    1
    12    44    45    1
    13    39    40    1
    14    39    41   am
    15    39    42    2
    16    41    43    1
    17    28    25    1
    18    34    37    1
    19    35    38    1
    20    45    46    1
    21    15    16   ar
    22    15    20   ar
    23    15     6    1
    24    16    17   ar
    25    16    21    2
    26    17    18   ar
    27    17    23    1
    28    18    19   ar
    29    18    22    2
    30    19    20   ar
    31     6     7    1
    32     6    11    1
    33     7     8    1
    34     7     9    1
    35     8    13    1
    36     9    10    1
    37     9    12    1
    38    10    11    1
    39    10     5    1
    40    12    14    1
    41     5     4    1
    42     4     1    1
    43     1     2    2
    44     1     3    1
    45     1    24    1
    46    24    25    1
    47    25    26    2
    48    25    27    1
@<TRIPOS>MOLECULE
UD1
 46 48 0 0 0
SMALL
GASTEIGER

@<TRIPOS>ATOM
      1 P          21.6111   71.1900   -0.3010 P.3     1  UNL1        0.2189
      2 O          21.4415   70.2347    0.8158 O.2     1  UNL1       -0.5170
      3 O          23.0868   71.0297   -0.9249 O.3     1  UNL1       -0.4371
      4 O          21.4210   72.6927    0.2454 O.3     1  UNL1       -0.3112
      5 C          21.4642   72.6232    1.6715 C.3     1  UNL1        0.1811
      6 C          24.7051   73.8454    2.6358 C.3     1  UNL1        0.2383
      7 C          24.5522   74.2767    1.1557 C.3     1  UNL1        0.1895
      8 O          25.2589   75.4914    0.9016 O.3     1  UNL1       -0.3779
      9 C          23.0211   74.4918    1.0357 C.3     1  UNL1        0.1713
     10 C          22.4357   73.6770    2.2052 C.3     1  UNL1        0.1764
     11 O          23.5347   73.0348    2.8738 O.3     1  UNL1       -0.3308
     12 O          22.6983   75.8775    1.1719 O.3     1  UNL1       -0.3794
     13 H          25.1245   75.7035   -0.0324 H       1  UNL1        0.2106
     14 H          23.1409   76.3398    0.4478 H       1  UNL1        0.2105
     15 N          25.9247   73.0590    2.8243 N.ar    1  UNL1       -0.2551
     16 C          25.9846   71.7999    2.3570 C.ar    1  UNL1        0.3323
     17 N          27.0949   71.0548    2.5127 N.ar    1  UNL1       -0.2743
     18 C          28.1685   71.5607    3.1526 C.ar    1  UNL1        0.2626
     19 C          28.1169   72.8828    3.6548 C.ar    1  UNL1        0.0795
     20 C          26.9926   73.6099    3.4801 C.ar    1  UNL1        0.0869
     21 O          25.0245   71.3296    1.7777 O.2     1  UNL1       -0.2464
     22 O          29.1711   70.8862    3.2981 O.2     1  UNL1       -0.2670
     23 H          27.1222   70.1500    2.1651 H       1  UNL1        0.1734
     24 O          20.5116   70.8890   -1.4365 O.3     1  UNL1       -0.2703
     25 P          20.4656   72.1819   -2.3934 P.3     1  UNL1        0.2208
     26 O          21.8295   72.4834   -2.8809 O.2     1  UNL1       -0.5170
     27 O          19.9012   73.4427   -1.5664 O.3     1  UNL1       -0.4371
     28 O          19.5002   71.8888   -3.6474 O.3     1  UNL1       -0.2865
     29 C          19.8063   70.5713   -4.1072 C.3     1  UNL1        0.2611
     30 C          20.0797   70.6122   -5.6117 C.3     1  UNL1        0.1582
     31 C          18.8432   71.1627   -6.3311 C.3     1  UNL1        0.1625
     32 C          17.6235   70.3349   -5.9123 C.3     1  UNL1        0.1686
     33 C          17.5337   70.3175   -4.3849 C.3     1  UNL1        0.1760
     34 O          19.0290   71.0664   -7.7445 O.3     1  UNL1       -0.3801
     35 O          16.4389   70.9208   -6.4555 O.3     1  UNL1       -0.3794
     36 O          18.7033   69.7079   -3.8401 O.3     1  UNL1       -0.3263
     37 H          18.2298   71.4229   -8.1563 H       1  UNL1        0.2105
     38 H          15.6971   70.3701   -6.1675 H       1  UNL1        0.2105
     39 C          21.0360   72.7678   -6.2225 C.2     1  UNL1        0.2231
     40 C          22.2192   73.6608   -6.4964 C.3     1  UNL1        0.0946
     41 N          21.2288   71.4802   -5.8774 N.am    1  UNL1       -0.2994
     42 O          19.9100   73.2084   -6.3134 O.2     1  UNL1       -0.2751
     43 H          22.1298   71.1273   -5.8048 H       1  UNL1        0.1496
     44 C          16.2999   69.5201   -3.9569 C.3     1  UNL1        0.1693
     45 O          15.9178   68.6317   -5.0090 O.3     1  UNL1       -0.3794
     46 H          15.1388   68.1500   -4.6995 H       1  UNL1        0.2105
@<TRIPOS>BOND
     1    29    30    1
     2    29    28    1
     3    29    36    1
     4    30    31    1
     5    30    41    1
     6    31    32    1
     7    31    34    1
     8    32    33    1
     9    32    35    1
    10    33    44    1
    11    33    36    1
    12    44    45    1
    13    39    40    1
    14    39    41   am
    15    39    42    2
    16    41    43    1
    17    28    25    1
    18    34    37    1
    19    35    38    1
    20    45    46    1
    21    15    16   ar
    22    15    20   ar
    23    15     6    1
    24    16    17   ar
    25    16    21    2
    26    17    18   ar
    27    17    23    1
    28    18    19   ar
    29    18    22    2
    30    19    20   ar
    31     6     7    1
    32     6    11    1
    33     7     8    1
    34     7     9    1
    35     8    13    1
    36     9    10    1
    37     9    12    1
    38    10    11    1
    39    10     5    1
    40    12    14    1
    41     5     4    1
    42     4     1    1
    43     1     2    2
    44     1     3    1
    45     1    24    1
    46    24    25    1
    47    25    26    2
    48    25    27    1
@<TRIPOS>MOLECULE
UD1
 46 48 0 0 0
SMALL
GASTEIGER

@<TRIPOS>ATOM
      1 P          22.8087   71.4483   -2.9463 P.3     1  UNL1        0.2189
      2 O          24.1787   70.9072   -3.0848 O.2     1  UNL1       -0.5170
      3 O          22.4931   72.4327   -4.1807 O.3     1  UNL1       -0.4371
      4 O          22.6929   72.2673   -1.5647 O.3     1  UNL1       -0.3112
      5 C          23.7917   71.8593   -0.7483 C.3     1  UNL1        0.1811
      6 C          23.0072   71.9054    2.7602 C.3     1  UNL1        0.2383
      7 C          21.6966   72.3493    2.0635 C.3     1  UNL1        0.1895
      8 O          20.5541   71.9462    2.8194 O.3     1  UNL1       -0.3779
      9 C          21.7678   71.5830    0.7171 C.3     1  UNL1        0.1713
     10 C          23.2640   71.2529    0.5529 C.3     1  UNL1        0.1764
     11 O          23.9561   71.8260    1.6753 O.3     1  UNL1       -0.3308
     12 O          20.9889   70.3863    0.7806 O.3     1  UNL1       -0.3794
     13 H          19.7751   72.2518    2.3343 H       1  UNL1        0.2106
     14 H          20.0753   70.6561    0.9438 H       1  UNL1        0.2105
     15 N          23.4332   72.8986    3.7468 N.ar    1  UNL1       -0.2551
     16 C          24.4653   73.7140    3.4687 C.ar    1  UNL1        0.3323
     17 N          24.8761   74.6394    4.3558 N.ar    1  UNL1       -0.2743
     18 C          24.2600   74.7573    5.5492 C.ar    1  UNL1        0.2626
     19 C          23.1759   73.9014    5.8574 C.ar    1  UNL1        0.0795
     20 C          22.7810   72.9855    4.9472 C.ar    1  UNL1        0.0869
     21 O          25.0311   73.6198    2.3965 O.2     1  UNL1       -0.2464
     22 O          24.6336   75.5905    6.3539 O.2     1  UNL1       -0.2670
     23 H          25.6193   75.2224    4.1366 H       1  UNL1        0.1734
     24 O          21.7508   70.2360   -2.9414 O.3     1  UNL1       -0.2703
     25 P          20.2851   70.8982   -2.8935 P.3     1  UNL1        0.2208
     26 O          20.4114   72.3676   -2.7762 O.2     1  UNL1       -0.5170
     27 O          19.4784   70.3266   -1.6228 O.3     1  UNL1       -0.4371
     28 O          19.4860   70.5344   -4.2424 O.3     1  UNL1       -0.2865
     29 C          18.9306   71.7543   -4.7370 C.3     1  UNL1        0.2611
     30 C          17.4485   71.5435   -5.0513 C.3     1  UNL1        0.1582
     31 C          17.3106   70.4256   -6.0908 C.3     1  UNL1        0.1625
     32 C          18.1908   70.7672   -7.2977 C.3     1  UNL1        0.1686
     33 C          19.6179   71.0335   -6.8142 C.3     1  UNL1        0.1760
     34 O          15.9466   70.3207   -6.5032 O.3     1  UNL1       -0.3801
     35 O          18.1920   69.6708   -8.2140 O.3     1  UNL1       -0.3794
     36 O          19.6243   72.1456   -5.9198 O.3     1  UNL1       -0.3263
     37 H          15.9058   69.6074   -7.1550 H       1  UNL1        0.2105
     38 H          18.7574   69.9273   -8.9564 H       1  UNL1        0.2105
     39 C          16.5139   69.8675   -3.5507 C.2     1  UNL1        0.2231
     40 C          15.7811   69.4800   -2.2917 C.3     1  UNL1        0.0946
     41 N          16.7371   71.1665   -3.8281 N.am    1  UNL1       -0.2994
     42 O          16.9021   69.0097   -4.3147 O.2     1  UNL1       -0.2751
     43 H          16.4263   71.8532   -3.2170 H       1  UNL1        0.1496
     44 C          20.5127   71.3439   -8.0159 C.3     1  UNL1        0.1693
     45 O          21.8329   71.6482   -7.5614 O.3     1  UNL1       -0.3794
     46 H          22.3628   71.8375   -8.3475 H       1  UNL1        0.2105
@<TRIPOS>BOND
     1    29    30    1
     2    29    28    1
     3    29    36    1
     4    30    31    1
     5    30    41    1
     6    31    32    1
     7    31    34    1
     8    32    33    1
     9    32    35    1
    10    33    44    1
    11    33    36    1
    12    44    45    1
    13    39    40    1
    14    39    41   am
    15    39    42    2
    16    41    43    1
    17    28    25    1
    18    34    37    1
    19    35    38    1
    20    45    46    1
    21    15    16   ar
    22    15    20   ar
    23    15     6    1
    24    16    17   ar
    25    16    21    2
    26    17    18   ar
    27    17    23    1
    28    18    19   ar
    29    18    22    2
    30    19    20   ar
    31     6     7    1
    32     6    11    1
    33     7     8    1
    34     7     9    1
    35     8    13    1
    36     9    10    1
    37     9    12    1
    38    10    11    1
    39    10     5    1
    40    12    14    1
    41     5     4    1
    42     4     1    1
    43     1     2    2
    44     1     3    1
    45     1    24    1
    46    24    25    1
    47    25    26    2
    48    25    27    1
@<TRIPOS>MOLECULE
UD1
 46 48 0 0 0
SMALL
GASTEIGER

@<TRIPOS>ATOM
      1 P          21.9092   73.2939   -4.6781 P.3     1  UNL1        0.2189
      2 O          20.9062   74.0084   -5.4980 O.2     1  UNL1       -0.5170
      3 O          23.0854   72.7423   -5.6294 O.3     1  UNL1       -0.4371
      4 O          21.2041   72.0570   -3.9260 O.3     1  UNL1       -0.3112
      5 C          20.1745   72.6061   -3.1022 C.3     1  UNL1        0.1811
      6 C          17.9195   70.9986   -5.3952 C.3     1  UNL1        0.2383
      7 C          18.4791   69.8437   -4.5274 C.3     1  UNL1        0.1895
      8 O          17.5176   68.7972   -4.3875 O.3     1  UNL1       -0.3779
      9 C          18.7306   70.5492   -3.1694 C.3     1  UNL1        0.1713
     10 C          18.8196   72.0436   -3.5347 C.3     1  UNL1        0.1764
     11 O          18.6808   72.1459   -4.9621 O.3     1  UNL1       -0.3308
     12 O          17.6435   70.3107   -2.2727 O.3     1  UNL1       -0.3794
     13 H          17.9263   68.1127   -3.8398 H       1  UNL1        0.2106
     14 H          17.6030   69.3555   -2.1308 H       1  UNL1        0.2105
     15 N          18.1451   70.7363   -6.8171 N.ar    1  UNL1       -0.2551
     16 C          17.0942   70.5752   -7.6399 C.ar    1  UNL1        0.3323
     17 N          17.2720   70.3367   -8.9528 N.ar    1  UNL1       -0.2743
     18 C          18.5161   70.2460   -9.4646 C.ar    1  UNL1        0.2626
     19 C          19.6315   70.4076   -8.6085 C.ar    1  UNL1        0.0795
     20 C          19.4244   70.6512   -7.2966 C.ar    1  UNL1        0.0869
     21 O          15.9660   70.6543   -7.1933 O.2     1  UNL1       -0.2464
     22 O          18.6781   70.0257  -10.6506 O.2     1  UNL1       -0.2670
     23 H          16.5025   70.2279   -9.5326 H       1  UNL1        0.1734
     24 O          22.5280   74.3025   -3.5878 O.3     1  UNL1       -0.2703
     25 P          23.9145   73.6551   -3.0899 P.3     1  UNL1        0.2208
     26 O          25.0121   74.6270   -3.2891 O.2     1  UNL1       -0.5170
     27 O          24.2197   72.3209   -3.9378 O.3     1  UNL1       -0.4371
     28 O          23.8041   73.2831   -1.5279 O.3     1  UNL1       -0.2865
     29 C          22.9892   74.2865   -0.9194 C.3     1  UNL1        0.2611
     30 C          23.7902   74.9911    0.1769 C.3     1  UNL1        0.1582
     31 C          24.2385   73.9556    1.2144 C.3     1  UNL1        0.1625
     32 C          23.0071   73.1838    1.7003 C.3     1  UNL1        0.1686
     33 C          22.2669   72.6128    0.4890 C.3     1  UNL1        0.1760
     34 O          24.8574   74.6200    2.3176 O.3     1  UNL1       -0.3801
     35 O          23.4191   72.1170    2.5569 O.3     1  UNL1       -0.3794
     36 O          21.8300   73.6774   -0.3549 O.3     1  UNL1       -0.3263
     37 H          25.1234   73.9329    2.9440 H       1  UNL1        0.2105
     38 H          22.6150   71.6580    2.8385 H       1  UNL1        0.2105
     39 C          24.9918   76.9727   -0.5739 C.2     1  UNL1        0.2231
     40 C          26.2018   77.6357   -1.1812 C.3     1  UNL1        0.0946
     41 N          24.9655   75.6357   -0.4125 N.am    1  UNL1       -0.2994
     42 O          24.0413   77.6429   -0.2311 O.2     1  UNL1       -0.2751
     43 H          25.7260   75.0991   -0.6869 H       1  UNL1        0.1496
     44 C          21.0530   71.8124    0.9654 C.3     1  UNL1        0.1693
     45 O          21.0758   70.5129    0.3715 O.3     1  UNL1       -0.3794
     46 H          20.2961   70.0429    0.6967 H       1  UNL1        0.2105
@<TRIPOS>BOND
     1    29    30    1
     2    29    28    1
     3    29    36    1
     4    30    31    1
     5    30    41    1
     6    31    32    1
     7    31    34    1
     8    32    33    1
     9    32    35    1
    10    33    44    1
    11    33    36    1
    12    44    45    1
    13    39    40    1
    14    39    41   am
    15    39    42    2
    16    41    43    1
    17    28    25    1
    18    34    37    1
    19    35    38    1
    20    45    46    1
    21    15    16   ar
    22    15    20   ar
    23    15     6    1
    24    16    17   ar
    25    16    21    2
    26    17    18   ar
    27    17    23    1
    28    18    19   ar
    29    18    22    2
    30    19    20   ar
    31     6     7    1
    32     6    11    1
    33     7     8    1
    34     7     9    1
    35     8    13    1
    36     9    10    1
    37     9    12    1
    38    10    11    1
    39    10     5    1
    40    12    14    1
    41     5     4    1
    42     4     1    1
    43     1     2    2
    44     1     3    1
    45     1    24    1
    46    24    25    1
    47    25    26    2
    48    25    27    1
@<TRIPOS>MOLECULE
UD1
 46 48 0 0 0
SMALL
GASTEIGER

@<TRIPOS>ATOM
      1 P          19.9145   72.9776   -1.8233 P.3     1  UNL1        0.2189
      2 O          18.9773   73.6361   -2.7597 O.2     1  UNL1       -0.5170
      3 O          19.5018   71.4310   -1.6498 O.3     1  UNL1       -0.4371
      4 O          19.8482   73.7134   -0.3925 O.3     1  UNL1       -0.3112
      5 C          21.1893   73.7975    0.0922 C.3     1  UNL1        0.1811
      6 C          23.1982   71.9035    2.3952 C.3     1  UNL1        0.2383
      7 C          22.4597   72.9364    3.2829 C.3     1  UNL1        0.1895
      8 O          22.2235   72.4112    4.5896 O.3     1  UNL1       -0.3779
      9 C          21.1262   73.1310    2.5153 C.3     1  UNL1        0.1713
     10 C          21.4466   72.6613    1.0831 C.3     1  UNL1        0.1764
     11 O          22.8357   72.2915    1.0530 O.3     1  UNL1       -0.3308
     12 O          20.0946   72.3280    3.0930 O.3     1  UNL1       -0.3794
     13 H          21.7636   73.0998    5.0894 H       1  UNL1        0.2106
     14 H          19.9827   72.6302    4.0042 H       1  UNL1        0.2105
     15 N          24.6461   71.9958    2.5860 N.ar    1  UNL1       -0.2551
     16 C          25.4151   70.9115    2.3852 C.ar    1  UNL1        0.3323
     17 N          26.7500   70.9684    2.5494 N.ar    1  UNL1       -0.2743
     18 C          27.3394   72.1200    2.9295 C.ar    1  UNL1        0.2626
     19 C          26.5411   73.2675    3.1501 C.ar    1  UNL1        0.0795
     20 C          25.2051   73.1839    2.9729 C.ar    1  UNL1        0.0869
     21 O          24.8983   69.8657    2.0421 O.2     1  UNL1       -0.2464
     22 O          28.5457   72.1713    3.0829 O.2     1  UNL1       -0.2670
     23 H          27.2899   70.1777    2.3956 H       1  UNL1        0.1734
     24 O          21.4111   73.0725   -2.4064 O.3     1  UNL1       -0.2703
     25 P          21.5841   71.8542   -3.4434 P.3     1  UNL1        0.2208
     26 O          21.5836   70.5731   -2.7035 O.2     1  UNL1       -0.5170
     27 O          22.9770   72.0157   -4.2346 O.3     1  UNL1       -0.4371
     28 O          20.3663   71.8666   -4.4957 O.3     1  UNL1       -0.2865
     29 C          20.3310   70.5743   -5.1039 C.3     1  UNL1        0.2611
     30 C          20.2901   70.7328   -6.6248 C.3     1  UNL1        0.1582
     31 C          19.0497   71.5465   -7.0107 C.3     1  UNL1        0.1625
     32 C          17.8156   70.8825   -6.3909 C.3     1  UNL1        0.1686
     33 C          18.0420   70.7155   -4.8868 C.3     1  UNL1        0.1760
     34 O          18.9188   71.5745   -8.4332 O.3     1  UNL1       -0.3801
     35 O          16.6679   71.7039   -6.6145 O.3     1  UNL1       -0.3794
     36 O          19.1714   69.8731   -4.6600 O.3     1  UNL1       -0.3263
     37 H          18.1284   72.0955   -8.6309 H       1  UNL1        0.2105
     38 H          15.9158   71.2501   -6.2085 H       1  UNL1        0.2105
     39 C          21.4797   72.7682   -7.2380 C.2     1  UNL1        0.2231
     40 C          22.7203   73.4864   -7.7043 C.3     1  UNL1        0.0946
     41 N          21.4951   71.4310   -7.0772 N.am    1  UNL1       -0.2994
     42 O          20.4670   73.3942   -7.0082 O.2     1  UNL1       -0.2751
     43 H          22.3053   70.9298   -7.2613 H       1  UNL1        0.1496
     44 C          16.8017   70.0826   -4.2528 C.3     1  UNL1        0.1693
     45 O          16.0670   69.3704   -5.2503 O.3     1  UNL1       -0.3794
     46 H          15.2956   68.9884   -4.8103 H       1  UNL1        0.2105
@<TRIPOS>BOND
     1    29    30    1
     2    29    28    1
     3    29    36    1
     4    30    31    1
     5    30    41    1
     6    31    32    1
     7    31    34    1
     8    32    33    1
     9    32    35    1
    10    33    44    1
    11    33    36    1
    12    44    45    1
    13    39    40    1
    14    39    41   am
    15    39    42    2
    16    41    43    1
    17    28    25    1
    18    34    37    1
    19    35    38    1
    20    45    46    1
    21    15    16   ar
    22    15    20   ar
    23    15     6    1
    24    16    17   ar
    25    16    21    2
    26    17    18   ar
    27    17    23    1
    28    18    19   ar
    29    18    22    2
    30    19    20   ar
    31     6     7    1
    32     6    11    1
    33     7     8    1
    34     7     9    1
    35     8    13    1
    36     9    10    1
    37     9    12    1
    38    10    11    1
    39    10     5    1
    40    12    14    1
    41     5     4    1
    42     4     1    1
    43     1     2    2
    44     1     3    1
    45     1    24    1
    46    24    25    1
    47    25    26    2
    48    25    27    1
@<TRIPOS>MOLECULE
UD1
 46 48 0 0 0
SMALL
GASTEIGER

@<TRIPOS>ATOM
      1 P          20.6610   71.4146   -1.7675 P.3     1  UNL1        0.2189
      2 O          20.2627   70.5871   -0.6076 O.2     1  UNL1       -0.5170
      3 O          21.1937   72.8432   -1.2499 O.3     1  UNL1       -0.4371
      4 O          19.3899   71.6340   -2.7313 O.3     1  UNL1       -0.3112
      5 C          18.4574   70.5949   -2.4295 C.3     1  UNL1        0.1811
      6 C          16.9407   70.5075   -5.6882 C.3     1  UNL1        0.2383
      7 C          16.8366   69.0503   -5.1724 C.3     1  UNL1        0.1895
      8 O          15.6774   68.4034   -5.6987 O.3     1  UNL1       -0.3779
      9 C          16.7083   69.2556   -3.6406 C.3     1  UNL1        0.1713
     10 C          17.2797   70.6667   -3.4027 C.3     1  UNL1        0.1764
     11 O          17.7258   71.1694   -4.6738 O.3     1  UNL1       -0.3308
     12 O          15.3379   69.1897   -3.2400 O.3     1  UNL1       -0.3794
     13 H          15.6717   67.5046   -5.3415 H       1  UNL1        0.2106
     14 H          15.0223   68.3053   -3.4688 H       1  UNL1        0.2105
     15 N          17.6243   70.5531   -6.9814 N.ar    1  UNL1       -0.2551
     16 C          16.9059   70.5053   -8.1167 C.ar    1  UNL1        0.3323
     17 N          17.5078   70.5494   -9.3201 N.ar    1  UNL1       -0.2743
     18 C          18.8507   70.6337   -9.4055 C.ar    1  UNL1        0.2626
     19 C          19.6195   70.6788   -8.2181 C.ar    1  UNL1        0.0795
     20 C          18.9898   70.6383   -7.0243 C.ar    1  UNL1        0.0869
     21 O          15.6938   70.4293   -8.0561 O.2     1  UNL1       -0.2464
     22 O          19.3962   70.6688  -10.4929 O.2     1  UNL1       -0.2670
     23 H          16.9737   70.5186  -10.1288 H       1  UNL1        0.1734
     24 O          21.8301   70.6683   -2.5830 O.3     1  UNL1       -0.2703
     25 P          23.1903   71.4766   -2.2900 P.3     1  UNL1        0.2208
     26 O          24.3056   70.8512   -3.0342 O.2     1  UNL1       -0.5170
     27 O          23.5098   71.4370   -0.7125 O.3     1  UNL1       -0.4371
     28 O          23.0200   73.0055   -2.7634 O.3     1  UNL1       -0.2865
     29 C          24.1434   73.3104   -3.5918 C.3     1  UNL1        0.2611
     30 C          24.4934   74.7921   -3.4427 C.3     1  UNL1        0.1582
     31 C          23.2792   75.6369   -3.8449 C.3     1  UNL1        0.1625
     32 C          22.8285   75.2112   -5.2462 C.3     1  UNL1        0.1686
     33 C          22.6011   73.6981   -5.2584 C.3     1  UNL1        0.1760
     34 O          23.6396   77.0194   -3.8535 O.3     1  UNL1       -0.3801
     35 O          21.6118   75.8815   -5.5811 O.3     1  UNL1       -0.3794
     36 O          23.8212   73.0247   -4.9512 O.3     1  UNL1       -0.3263
     37 H          22.8485   77.5127   -4.1108 H       1  UNL1        0.2105
     38 H          21.3640   75.5847   -6.4682 H       1  UNL1        0.2105
     39 C          23.9118   75.5291   -1.1948 C.2     1  UNL1        0.2231
     40 C          24.2771   75.8198    0.2385 C.3     1  UNL1        0.0946
     41 N          24.8476   75.0741   -2.0501 N.am    1  UNL1       -0.2994
     42 O          22.7753   75.7057   -1.5786 O.2     1  UNL1       -0.2751
     43 H          25.7573   74.9329   -1.7433 H       1  UNL1        0.1496
     44 C          22.1192   73.2672   -6.6452 C.3     1  UNL1        0.1693
     45 O          22.9552   72.2170   -7.1354 O.3     1  UNL1       -0.3794
     46 H          22.6183   71.9758   -8.0089 H       1  UNL1        0.2105
@<TRIPOS>BOND
     1    29    30    1
     2    29    28    1
     3    29    36    1
     4    30    31    1
     5    30    41    1
     6    31    32    1
     7    31    34    1
     8    32    33    1
     9    32    35    1
    10    33    44    1
    11    33    36    1
    12    44    45    1
    13    39    40    1
    14    39    41   am
    15    39    42    2
    16    41    43    1
    17    28    25    1
    18    34    37    1
    19    35    38    1
    20    45    46    1
    21    15    16   ar
    22    15    20   ar
    23    15     6    1
    24    16    17   ar
    25    16    21    2
    26    17    18   ar
    27    17    23    1
    28    18    19   ar
    29    18    22    2
    30    19    20   ar
    31     6     7    1
    32     6    11    1
    33     7     8    1
    34     7     9    1
    35     8    13    1
    36     9    10    1
    37     9    12    1
    38    10    11    1
    39    10     5    1
    40    12    14    1
    41     5     4    1
    42     4     1    1
    43     1     2    2
    44     1     3    1
    45     1    24    1
    46    24    25    1
    47    25    26    2
    48    25    27    1
@<TRIPOS>MOLECULE
UD1
 46 48 0 0 0
SMALL
GASTEIGER

@<TRIPOS>ATOM
      1 P          15.6053   70.7393   -2.1826 P.3     1  UNL1        0.2189
      2 O          16.9224   71.1176   -1.6248 O.2     1  UNL1       -0.5170
      3 O          15.0354   71.9482   -3.0804 O.3     1  UNL1       -0.4371
      4 O          14.5801   70.4368   -0.9783 O.3     1  UNL1       -0.3112
      5 C          14.8827   69.1267   -0.4963 C.3     1  UNL1        0.1811
      6 C          12.6483   67.5616    1.8457 C.3     1  UNL1        0.2383
      7 C          12.2039   69.0454    1.8175 C.3     1  UNL1        0.1895
      8 O          10.8030   69.1643    2.0676 O.3     1  UNL1       -0.3779
      9 C          12.5433   69.4594    0.3619 C.3     1  UNL1        0.1713
     10 C          13.5886   68.4207   -0.0886 C.3     1  UNL1        0.1764
     11 O          13.8377   67.5498    1.0280 O.3     1  UNL1       -0.3308
     12 O          11.3770   69.3945   -0.4616 O.3     1  UNL1       -0.3794
     13 H          10.5920   70.1077    2.0369 H       1  UNL1        0.2106
     14 H          10.7403   70.0219   -0.0939 H       1  UNL1        0.2105
     15 N          12.9570   67.1377    3.2119 N.ar    1  UNL1       -0.2551
     16 C          12.9270   65.8311    3.5271 C.ar    1  UNL1        0.3323
     17 N          13.2103   65.4123    4.7747 N.ar    1  UNL1       -0.2743
     18 C          13.5219   66.3043    5.7365 C.ar    1  UNL1        0.2626
     19 C          13.5515   67.6834    5.4199 C.ar    1  UNL1        0.0795
     20 C          13.2682   68.0756    4.1593 C.ar    1  UNL1        0.0869
     21 O          12.6477   65.0145    2.6705 O.2     1  UNL1       -0.2464
     22 O          13.7736   65.9272    6.8660 O.2     1  UNL1       -0.2670
     23 H          13.1885   64.4656    4.9831 H       1  UNL1        0.1734
     24 O          15.7664   69.4227   -3.0934 O.3     1  UNL1       -0.2703
     25 P          17.1102   69.6165   -3.9571 P.3     1  UNL1        0.2208
     26 O          17.8541   68.3385   -4.0051 O.2     1  UNL1       -0.5170
     27 O          18.0304   70.7468   -3.2730 O.3     1  UNL1       -0.4371
     28 O          16.7274   70.0711   -5.4528 O.3     1  UNL1       -0.2865
     29 C          17.3551   71.3351   -5.6753 C.3     1  UNL1        0.2611
     30 C          16.4551   72.1966   -6.5628 C.3     1  UNL1        0.1582
     31 C          16.2169   71.4695   -7.8911 C.3     1  UNL1        0.1625
     32 C          17.5747   71.1033   -8.4997 C.3     1  UNL1        0.1686
     33 C          18.3892   70.3214   -7.4668 C.3     1  UNL1        0.1760
     34 O          15.5033   72.3261   -8.7846 O.3     1  UNL1       -0.3801
     35 O          17.3755   70.2975   -9.6627 O.3     1  UNL1       -0.3794
     36 O          18.6135   71.1333   -6.3149 O.3     1  UNL1       -0.3263
     37 H          15.3753   71.8299   -9.6048 H       1  UNL1        0.2105
     38 H          18.2534   70.0895  -10.0127 H       1  UNL1        0.2105
     39 C          14.5775   73.6270   -5.9602 C.2     1  UNL1        0.2231
     40 C          13.2590   73.8579   -5.2669 C.3     1  UNL1        0.0946
     41 N          15.1740   72.4213   -5.8900 N.am    1  UNL1       -0.2994
     42 O          15.1020   74.5269   -6.5807 O.2     1  UNL1       -0.2751
     43 H          14.7546   71.7010   -5.3932 H       1  UNL1        0.1496
     44 C          19.7349   69.9226   -8.0762 C.3     1  UNL1        0.1693
     45 O          20.7733   70.1321   -7.1171 O.3     1  UNL1       -0.3794
     46 H          21.6020   69.8696   -7.5401 H       1  UNL1        0.2105
@<TRIPOS>BOND
     1    29    30    1
     2    29    28    1
     3    29    36    1
     4    30    31    1
     5    30    41    1
     6    31    32    1
     7    31    34    1
     8    32    33    1
     9    32    35    1
    10    33    44    1
    11    33    36    1
    12    44    45    1
    13    39    40    1
    14    39    41   am
    15    39    42    2
    16    41    43    1
    17    28    25    1
    18    34    37    1
    19    35    38    1
    20    45    46    1
    21    15    16   ar
    22    15    20   ar
    23    15     6    1
    24    16    17   ar
    25    16    21    2
    26    17    18   ar
    27    17    23    1
    28    18    19   ar
    29    18    22    2
    30    19    20   ar
    31     6     7    1
    32     6    11    1
    33     7     8    1
    34     7     9    1
    35     8    13    1
    36     9    10    1
    37     9    12    1
    38    10    11    1
    39    10     5    1
    40    12    14    1
    41     5     4    1
    42     4     1    1
    43     1     2    2
    44     1     3    1
    45     1    24    1
    46    24    25    1
    47    25    26    2
    48    25    27    1
@<TRIPOS>MOLECULE
UD1
 46 48 0 0 0
SMALL
GASTEIGER

@<TRIPOS>ATOM
      1 P          21.4620   71.6671   -1.0720 P.3     1  UNL1        0.2189
      2 O          20.6937   70.7980   -0.1538 O.2     1  UNL1       -0.5170
      3 O          22.2566   70.7553   -2.1349 O.3     1  UNL1       -0.4371
      4 O          22.5146   72.5435   -0.2255 O.3     1  UNL1       -0.3112
      5 C          21.9570   72.7142    1.0784 C.3     1  UNL1        0.1811
      6 C          24.9048   74.0659    2.6310 C.3     1  UNL1        0.2383
      7 C          24.9435   74.6133    1.1822 C.3     1  UNL1        0.1895
      8 O          25.5798   75.8908    1.1352 O.3     1  UNL1       -0.3779
      9 C          23.4358   74.7331    0.8390 C.3     1  UNL1        0.1713
     10 C          22.7480   73.7813    1.8367 C.3     1  UNL1        0.1764
     11 O          23.7813   73.1597    2.6197 O.3     1  UNL1       -0.3308
     12 O          22.9851   76.0763    1.0270 O.3     1  UNL1       -0.3794
     13 H          25.5717   76.1740    0.2104 H       1  UNL1        0.2106
     14 H          23.4934   76.6292    0.4188 H       1  UNL1        0.2105
     15 N          26.1414   73.3511    2.9494 N.ar    1  UNL1       -0.2551
     16 C          27.1241   73.9832    3.6143 C.ar    1  UNL1        0.3323
     17 N          28.2706   73.3493    3.9239 N.ar    1  UNL1       -0.2743
     18 C          28.4557   72.0640    3.5611 C.ar    1  UNL1        0.2626
     19 C          27.4318   71.3883    2.8555 C.ar    1  UNL1        0.0795
     20 C          26.2897   72.0465    2.5625 C.ar    1  UNL1        0.0869
     21 O          26.9720   75.1425    3.9484 O.2     1  UNL1       -0.2464
     22 O          29.4938   71.4913    3.8363 O.2     1  UNL1       -0.2670
     23 H          28.9669   73.8192    4.4082 H       1  UNL1        0.1734
     24 O          20.4531   72.6475   -1.8529 O.3     1  UNL1       -0.2703
     25 P          19.1899   71.7557   -2.2985 P.3     1  UNL1        0.2208
     26 O          18.0048   72.1479   -1.5045 O.2     1  UNL1       -0.5170
     27 O          19.5144   70.1994   -2.0440 O.3     1  UNL1       -0.4371
     28 O          18.8901   71.9911   -3.8622 O.3     1  UNL1       -0.2865
     29 C          19.8538   71.2265   -4.5887 C.3     1  UNL1        0.2611
     30 C          20.6622   72.1599   -5.4917 C.3     1  UNL1        0.1582
     31 C          19.7078   72.8798   -6.4511 C.3     1  UNL1        0.1625
     32 C          18.8663   71.8301   -7.1848 C.3     1  UNL1        0.1686
     33 C          18.1909   70.9234   -6.1538 C.3     1  UNL1        0.1760
     34 O          20.4626   73.6396   -7.3969 O.3     1  UNL1       -0.3801
     35 O          17.8705   72.4827   -7.9746 O.3     1  UNL1       -0.3794
     36 O          19.1832   70.2489   -5.3812 O.3     1  UNL1       -0.3263
     37 H          19.8243   74.0748   -7.9787 H       1  UNL1        0.2105
     38 H          17.3643   71.7869   -8.4175 H       1  UNL1        0.2105
     39 C          22.7148   73.1563   -4.6384 C.2     1  UNL1        0.2231
     40 C          23.4411   74.1709   -3.7927 C.3     1  UNL1        0.0946
     41 N          21.3682   73.1456   -4.6707 N.am    1  UNL1       -0.2994
     42 O          23.3426   72.3489   -5.2896 O.2     1  UNL1       -0.2751
     43 H          20.8656   73.7915   -4.1495 H       1  UNL1        0.1496
     44 C          17.3219   69.8914   -6.8756 C.3     1  UNL1        0.1693
     45 O          16.0506   69.8027   -6.2290 O.3     1  UNL1       -0.3794
     46 H          15.5357   69.1433   -6.7134 H       1  UNL1        0.2105
@<TRIPOS>BOND
     1    29    30    1
     2    29    28    1
     3    29    36    1
     4    30    31    1
     5    30    41    1
     6    31    32    1
     7    31    34    1
     8    32    33    1
     9    32    35    1
    10    33    44    1
    11    33    36    1
    12    44    45    1
    13    39    40    1
    14    39    41   am
    15    39    42    2
    16    41    43    1
    17    28    25    1
    18    34    37    1
    19    35    38    1
    20    45    46    1
    21    15    16   ar
    22    15    20   ar
    23    15     6    1
    24    16    17   ar
    25    16    21    2
    26    17    18   ar
    27    17    23    1
    28    18    19   ar
    29    18    22    2
    30    19    20   ar
    31     6     7    1
    32     6    11    1
    33     7     8    1
    34     7     9    1
    35     8    13    1
    36     9    10    1
    37     9    12    1
    38    10    11    1
    39    10     5    1
    40    12    14    1
    41     5     4    1
    42     4     1    1
    43     1     2    2
    44     1     3    1
    45     1    24    1
    46    24    25    1
    47    25    26    2
    48    25    27    1
@<TRIPOS>MOLECULE
UD1
 46 48 0 0 0
SMALL
GASTEIGER

@<TRIPOS>ATOM
      1 P          15.2582   70.9848   -1.7140 P.3     1  UNL1        0.2189
      2 O          14.9694   71.9467   -0.6276 O.2     1  UNL1       -0.5170
      3 O          14.8112   71.6188   -3.1250 O.3     1  UNL1       -0.4371
      4 O          14.4394   69.6226   -1.4555 O.3     1  UNL1       -0.3112
      5 C          14.3870   69.4333   -0.0407 C.3     1  UNL1        0.1811
      6 C          13.1972   66.8279    2.1326 C.3     1  UNL1        0.2383
      7 C          11.9131   67.5497    1.6528 C.3     1  UNL1        0.1895
      8 O          10.8114   66.6435    1.5874 O.3     1  UNL1       -0.3779
      9 C          12.3197   68.0297    0.2353 C.3     1  UNL1        0.1713
     10 C          13.8603   68.0310    0.2680 C.3     1  UNL1        0.1764
     11 O          14.2622   67.6381    1.5915 O.3     1  UNL1       -0.3308
     12 O          11.8348   67.1236   -0.7580 O.3     1  UNL1       -0.3794
     13 H          10.0472   67.1530    1.2842 H       1  UNL1        0.2106
     14 H          10.8708   67.1226   -0.6883 H       1  UNL1        0.2105
     15 N          13.2618   66.7997    3.5943 N.ar    1  UNL1       -0.2551
     16 C          12.8746   65.6960    4.2572 C.ar    1  UNL1        0.3323
     17 N          12.9270   65.6406    5.6012 N.ar    1  UNL1       -0.2743
     18 C          13.3632   66.7023    6.3086 C.ar    1  UNL1        0.2626
     19 C          13.7682   67.8727    5.6237 C.ar    1  UNL1        0.0795
     20 C          13.7104   67.8994    4.2749 C.ar    1  UNL1        0.0869
     21 O          12.4790   64.7302    3.6332 O.2     1  UNL1       -0.2464
     22 O          13.4065   66.6550    7.5240 O.2     1  UNL1       -0.2670
     23 H          12.6483   64.8347    6.0627 H       1  UNL1        0.1734
     24 O          16.8349   70.6657   -1.7433 O.3     1  UNL1       -0.2703
     25 P          17.1407   69.9628   -3.1581 P.3     1  UNL1        0.2208
     26 O          15.9412   69.2252   -3.6118 O.2     1  UNL1       -0.5170
     27 O          18.3704   68.9366   -2.9937 O.3     1  UNL1       -0.4371
     28 O          17.5230   71.0862   -4.2454 O.3     1  UNL1       -0.2865
     29 C          18.4207   70.4758   -5.1741 C.3     1  UNL1        0.2611
     30 C          19.4597   71.5048   -5.6232 C.3     1  UNL1        0.1582
     31 C          18.7403   72.6947   -6.2684 C.3     1  UNL1        0.1625
     32 C          17.8213   72.1696   -7.3765 C.3     1  UNL1        0.1686
     33 C          16.9038   71.0924   -6.7943 C.3     1  UNL1        0.1760
     34 O          19.7030   73.5918   -6.8250 O.3     1  UNL1       -0.3801
     35 O          17.0326   73.2436   -7.8922 O.3     1  UNL1       -0.3794
     36 O          17.6874   70.0056   -6.3031 O.3     1  UNL1       -0.3263
     37 H          19.2081   74.3234   -7.2189 H       1  UNL1        0.2105
     38 H          16.4696   72.8697   -8.5848 H       1  UNL1        0.2105
     39 C          21.5483   72.1964   -4.5775 C.2     1  UNL1        0.2231
     40 C          22.3371   72.6698   -3.3833 C.3     1  UNL1        0.0946
     41 N          20.2263   71.9651   -4.4636 N.am    1  UNL1       -0.2994
     42 O          22.1040   72.0230   -5.6411 O.2     1  UNL1       -0.2751
     43 H          19.7814   72.1036   -3.6124 H       1  UNL1        0.1496
     44 C          15.9595   70.5842   -7.8857 C.3     1  UNL1        0.1693
     45 O          16.6381   70.5885   -9.1433 O.3     1  UNL1       -0.3794
     46 H          16.0096   70.2626   -9.8016 H       1  UNL1        0.2105
@<TRIPOS>BOND
     1    29    30    1
     2    29    28    1
     3    29    36    1
     4    30    31    1
     5    30    41    1
     6    31    32    1
     7    31    34    1
     8    32    33    1
     9    32    35    1
    10    33    44    1
    11    33    36    1
    12    44    45    1
    13    39    40    1
    14    39    41   am
    15    39    42    2
    16    41    43    1
    17    28    25    1
    18    34    37    1
    19    35    38    1
    20    45    46    1
    21    15    16   ar
    22    15    20   ar
    23    15     6    1
    24    16    17   ar
    25    16    21    2
    26    17    18   ar
    27    17    23    1
    28    18    19   ar
    29    18    22    2
    30    19    20   ar
    31     6     7    1
    32     6    11    1
    33     7     8    1
    34     7     9    1
    35     8    13    1
    36     9    10    1
    37     9    12    1
    38    10    11    1
    39    10     5    1
    40    12    14    1
    41     5     4    1
    42     4     1    1
    43     1     2    2
    44     1     3    1
    45     1    24    1
    46    24    25    1
    47    25    26    2
    48    25    27    1
@<TRIPOS>MOLECULE
UD1
 46 48 0 0 0
SMALL
GASTEIGER

@<TRIPOS>ATOM
      1 P          22.1348   73.4305   -1.3607 P.3     1  UNL1        0.2189
      2 O          21.4495   74.7180   -1.1126 O.2     1  UNL1       -0.5170
      3 O          23.6211   73.4860   -0.7441 O.3     1  UNL1       -0.4371
      4 O          22.2223   73.1666   -2.9467 O.3     1  UNL1       -0.3112
      5 C          21.3605   72.0634   -3.2309 C.3     1  UNL1        0.1811
      6 C          20.3859   71.2085   -6.5845 C.3     1  UNL1        0.2383
      7 C          20.8376   72.6875   -6.6767 C.3     1  UNL1        0.1895
      8 O          21.3885   72.9745   -7.9625 O.3     1  UNL1       -0.3779
      9 C          21.9290   72.7638   -5.5775 C.3     1  UNL1        0.1713
     10 C          21.6160   71.5693   -4.6557 C.3     1  UNL1        0.1764
     11 O          20.4364   70.9276   -5.1695 O.3     1  UNL1       -0.3308
     12 O          23.2300   72.6315   -6.1542 O.3     1  UNL1       -0.3794
     13 H          21.6484   73.9061   -7.9544 H       1  UNL1        0.2106
     14 H          23.3420   73.3731   -6.7639 H       1  UNL1        0.2105
     15 N          19.0234   71.0488   -7.0940 N.ar    1  UNL1       -0.2551
     16 C          18.8240   70.4833   -8.2973 C.ar    1  UNL1        0.3323
     17 N          17.5816   70.3202   -8.7893 N.ar    1  UNL1       -0.2743
     18 C          16.5109   70.7329   -8.0813 C.ar    1  UNL1        0.2626
     19 C          16.7067   71.3353   -6.8157 C.ar    1  UNL1        0.0795
     20 C          17.9634   71.4818   -6.3439 C.ar    1  UNL1        0.0869
     21 O          19.7797   70.1059   -8.9477 O.2     1  UNL1       -0.2464
     22 O          15.3874   70.5903   -8.5272 O.2     1  UNL1       -0.2670
     23 H          17.4561   69.9060   -9.6569 H       1  UNL1        0.1734
     24 O          21.3077   72.2393   -0.6636 O.3     1  UNL1       -0.2703
     25 P          22.3356   71.4615    0.2998 P.3     1  UNL1        0.2208
     26 O          23.4619   70.9359   -0.5026 O.2     1  UNL1       -0.5170
     27 O          21.5756   70.2394    1.0216 O.3     1  UNL1       -0.4371
     28 O          22.8989   72.4753    1.4157 O.3     1  UNL1       -0.2865
     29 C          23.0225   71.7299    2.6283 C.3     1  UNL1        0.2611
     30 C          22.4896   72.5672    3.7923 C.3     1  UNL1        0.1582
     31 C          23.2871   73.8735    3.8765 C.3     1  UNL1        0.1625
     32 C          24.7795   73.5330    3.9478 C.3     1  UNL1        0.1686
     33 C          25.1403   72.6252    2.7700 C.3     1  UNL1        0.1760
     34 O          22.9010   74.5957    5.0473 O.3     1  UNL1       -0.3801
     35 O          25.5479   74.7356    3.8790 O.3     1  UNL1       -0.3794
     36 O          24.3945   71.4112    2.8509 O.3     1  UNL1       -0.3263
     37 H          23.4255   75.4081    5.0602 H       1  UNL1        0.2105
     38 H          26.4789   74.4758    3.9262 H       1  UNL1        0.2105
     39 C          20.7190   73.9925    2.9162 C.2     1  UNL1        0.2231
     40 C          19.2618   74.3039    2.6885 C.3     1  UNL1        0.0946
     41 N          21.0742   72.8699    3.5704 N.am    1  UNL1       -0.2994
     42 O          21.5720   74.7529    2.5110 O.2     1  UNL1       -0.2751
     43 H          20.3917   72.2613    3.8950 H       1  UNL1        0.1496
     44 C          26.6360   72.3055    2.8136 C.3     1  UNL1        0.1693
     45 O          26.8443   70.9456    2.4273 O.3     1  UNL1       -0.3794
     46 H          27.7968   70.7858    2.4685 H       1  UNL1        0.2105
@<TRIPOS>BOND
     1    29    30    1
     2    29    28    1
     3    29    36    1
     4    30    31    1
     5    30    41    1
     6    31    32    1
     7    31    34    1
     8    32    33    1
     9    32    35    1
    10    33    44    1
    11    33    36    1
    12    44    45    1
    13    39    40    1
    14    39    41   am
    15    39    42    2
    16    41    43    1
    17    28    25    1
    18    34    37    1
    19    35    38    1
    20    45    46    1
    21    15    16   ar
    22    15    20   ar
    23    15     6    1
    24    16    17   ar
    25    16    21    2
    26    17    18   ar
    27    17    23    1
    28    18    19   ar
    29    18    22    2
    30    19    20   ar
    31     6     7    1
    32     6    11    1
    33     7     8    1
    34     7     9    1
    35     8    13    1
    36     9    10    1
    37     9    12    1
    38    10    11    1
    39    10     5    1
    40    12    14    1
    41     5     4    1
    42     4     1    1
    43     1     2    2
    44     1     3    1
    45     1    24    1
    46    24    25    1
    47    25    26    2
    48    25    27    1
