
 OpenBabel04092510473D

 45 46  0  0  1  0  0  0  0  0999 V2000
    5.0712    4.0821   -8.7601 O   0  0  0  0  0  0  0  0  0  0  0  0
    5.9885    5.1624   -8.9436 C   0  0  0  0  0  0  0  0  0  0  0  0
    5.4394    6.4210   -8.2610 C   0  0  1  0  0  0  0  0  0  0  0  0
    5.4311    6.1853   -6.8508 O   0  0  0  0  0  0  0  0  0  0  0  0
    4.8207    7.2351   -6.1077 C   0  0  1  0  0  0  0  0  0  0  0  0
    4.7793    6.8697   -4.7285 O   0  0  0  0  0  0  0  0  0  0  0  0
    3.9872    5.6861   -4.5166 C   0  0  0  0  0  0  0  0  0  0  0  0
    3.9917    5.3251   -3.0211 C   0  0  1  0  0  0  0  0  0  0  0  0
    5.3367    5.0247   -2.6367 O   0  0  0  0  0  0  0  0  0  0  0  0
    5.5277    4.7690   -1.2593 C   0  0  2  0  0  0  0  0  0  0  0  0
    4.9629    3.5159   -0.8805 O   0  0  0  0  0  0  0  0  0  0  0  0
    5.0275    5.9237   -0.3746 C   0  0  2  0  0  0  0  0  0  0  0  0
    5.1861    5.6102    1.0141 O   0  0  0  0  0  0  0  0  0  0  0  0
    3.5581    6.2222   -0.6927 C   0  0  1  0  0  0  0  0  0  0  0  0
    3.0752    7.3603    0.0344 O   0  0  0  0  0  0  0  0  0  0  0  0
    3.3623    6.4576   -2.1974 C   0  0  2  0  0  0  0  0  0  0  0  0
    1.9668    6.5459   -2.5254 O   0  0  0  0  0  0  0  0  0  0  0  0
    5.6518    8.5326   -6.2623 C   0  0  2  0  0  0  0  0  0  0  0  0
    5.0527    9.6362   -5.5645 O   0  0  0  0  0  0  0  0  0  0  0  0
    5.7970    8.8559   -7.7619 C   0  0  1  0  0  0  0  0  0  0  0  0
    6.6622    9.9823   -7.9608 O   0  0  0  0  0  0  0  0  0  0  0  0
    6.3070    7.6456   -8.5663 C   0  0  2  0  0  0  0  0  0  0  0  0
    6.3085    7.9153   -9.9710 O   0  0  0  0  0  0  0  0  0  0  0  0
    5.5670    3.2633   -8.9316 H   0  0  0  0  0  0  0  0  0  0  0  0
    6.1152    5.3099  -10.0198 H   0  0  0  0  0  0  0  0  0  0  0  0
    6.9460    4.8729   -8.4993 H   0  0  0  0  0  0  0  0  0  0  0  0
    4.4070    6.5766   -8.6018 H   0  0  0  0  0  0  0  0  0  0  0  0
    3.7897    7.4035   -6.4485 H   0  0  0  0  0  0  0  0  0  0  0  0
    4.4307    4.8584   -5.0816 H   0  0  0  0  0  0  0  0  0  0  0  0
    2.9730    5.8596   -4.8778 H   0  0  0  0  0  0  0  0  0  0  0  0
    3.3880    4.4141   -2.9153 H   0  0  0  0  0  0  0  0  0  0  0  0
    6.6052    4.6562   -1.1010 H   0  0  0  0  0  0  0  0  0  0  0  0
    3.9978    3.5848   -0.8925 H   0  0  0  0  0  0  0  0  0  0  0  0
    5.6217    6.8240   -0.5720 H   0  0  0  0  0  0  0  0  0  0  0  0
    4.9725    4.6652    1.1288 H   0  0  0  0  0  0  0  0  0  0  0  0
    2.9268    5.3924   -0.3548 H   0  0  0  0  0  0  0  0  0  0  0  0
    3.6668    8.1129   -0.1495 H   0  0  0  0  0  0  0  0  0  0  0  0
    3.8105    7.4253   -2.4539 H   0  0  0  0  0  0  0  0  0  0  0  0
    1.4473    6.2685   -1.7501 H   0  0  0  0  0  0  0  0  0  0  0  0
    6.6387    8.3915   -5.8171 H   0  0  0  0  0  0  0  0  0  0  0  0
    4.4174   10.0795   -6.1499 H   0  0  0  0  0  0  0  0  0  0  0  0
    4.8289    9.1769   -8.1634 H   0  0  0  0  0  0  0  0  0  0  0  0
    7.5303    9.7735   -7.5682 H   0  0  0  0  0  0  0  0  0  0  0  0
    7.3483    7.4523   -8.2809 H   0  0  0  0  0  0  0  0  0  0  0  0
    5.6514    8.6089  -10.1597 H   0  0  0  0  0  0  0  0  0  0  0  0
  1  2  1  0  0  0  0
  1 24  1  0  0  0  0
  2 25  1  0  0  0  0
  2 26  1  0  0  0  0
  3  4  1  0  0  0  0
  3 22  1  0  0  0  0
  3  2  1  0  0  0  0
  3 27  1  6  0  0  0
  4  5  1  0  0  0  0
  5 18  1  0  0  0  0
  5  6  1  0  0  0  0
  5 28  1  6  0  0  0
  6  7  1  0  0  0  0
  7 29  1  0  0  0  0
  7 30  1  0  0  0  0
  8  9  1  0  0  0  0
  8 16  1  0  0  0  0
  8  7  1  0  0  0  0
  8 31  1  1  0  0  0
  9 10  1  0  0  0  0
 10 11  1  0  0  0  0
 10 12  1  0  0  0  0
 10 32  1  1  0  0  0
 11 33  1  0  0  0  0
 12 13  1  0  0  0  0
 12 14  1  0  0  0  0
 12 34  1  6  0  0  0
 13 35  1  0  0  0  0
 14 15  1  0  0  0  0
 14 16  1  0  0  0  0
 14 36  1  1  0  0  0
 15 37  1  0  0  0  0
 16 17  1  0  0  0  0
 16 38  1  6  0  0  0
 17 39  1  0  0  0  0
 18 19  1  0  0  0  0
 18 20  1  0  0  0  0
 18 40  1  1  0  0  0
 19 41  1  0  0  0  0
 20 21  1  0  0  0  0
 20 22  1  0  0  0  0
 20 42  1  6  0  0  0
 21 43  1  0  0  0  0
 22 23  1  0  0  0  0
 22 44  1  1  0  0  0
 23 45  1  0  0  0  0
M  END
$$$$
