


 31 32  0  0  0  0  0  0  0  0999 V2000
   14.6607   10.4149    0.0490 O   0  0  0  0  0  0  0  0  0  0  0  0
   13.3091   12.7570   -2.3600 C   0  0  0  0  0  0  0  0  0  0  0  0
   14.1190   11.7249   -1.7917 O   0  0  0  0  0  0  0  0  0  0  0  0
   13.8759   11.5176   -0.4043 C   0  0  0  0  0  0  0  0  0  0  0  0
   14.2789   12.7851    0.3890 C   0  0  0  0  0  0  0  0  0  0  0  0
   14.0120   12.6427    1.7934 O   0  0  0  0  0  0  0  0  0  0  0  0
   13.5186   13.9958   -0.1858 C   0  0  0  0  0  0  0  0  0  0  0  0
   13.9503   15.2135    0.4369 O   0  0  0  0  0  0  0  0  0  0  0  0
   13.6692   14.0986   -1.7151 C   0  0  0  0  0  0  0  0  0  0  0  0
   12.8518   15.1427   -2.2514 O   0  0  0  0  0  0  0  0  0  0  0  0
   13.1016   12.9257    1.9775 H   0  0  0  0  0  0  0  0  0  0  0  0
   14.9098   15.3082    0.2895 H   0  0  0  0  0  0  0  0  0  0  0  0
   12.1064   15.3025   -1.6452 H   0  0  0  0  0  0  0  0  0  0  0  0
   13.1783   11.5224   -4.4370 O   0  0  0  0  0  0  0  0  0  0  0  0
   13.5664   12.7762   -3.8716 C   0  0  0  0  0  0  0  0  0  0  0  0
   13.6174   11.4591   -5.3024 H   0  0  0  0  0  0  0  0  0  0  0  0
   14.6983    9.3546   -0.9245 C   0  0  0  0  0  0  0  0  0  0  0  0
   14.9857    8.0182   -0.2185 C   0  0  0  0  0  0  0  0  0  0  0  0
   16.3978    7.7899   -0.2492 O   0  0  0  0  0  0  0  0  0  0  0  0
   16.8390    6.6437    0.4513 C   0  0  0  0  0  0  0  0  0  0  0  0
   16.4624    5.4456   -0.2237 O   0  0  0  0  0  0  0  0  0  0  0  0
   16.3904    6.6480    1.9227 C   0  0  0  0  0  0  0  0  0  0  0  0
   16.8069    5.4499    2.5882 O   0  0  0  0  0  0  0  0  0  0  0  0
   14.8674    6.8030    2.0004 C   0  0  0  0  0  0  0  0  0  0  0  0
   14.4110    6.9160    3.3554 O   0  0  0  0  0  0  0  0  0  0  0  0
   14.4021    8.0291    1.2015 C   0  0  0  0  0  0  0  0  0  0  0  0
   12.9693    8.0686    1.1110 O   0  0  0  0  0  0  0  0  0  0  0  0
   15.5067    5.3197   -0.1397 H   0  0  0  0  0  0  0  0  0  0  0  0
   16.7028    4.7120    1.9586 H   0  0  0  0  0  0  0  0  0  0  0  0
   14.8922    7.6504    3.7789 H   0  0  0  0  0  0  0  0  0  0  0  0
   12.6143    7.2202    1.4303 H   0  0  0  0  0  0  0  0  0  0  0  0
 14 15  1  0
 14 16  1  0
  2  3  1  0
  2  9  1  0
  2 15  1  0
  3  4  1  0
  4  5  1  0
  4  1  1  0
  1 17  1  0
 18 19  1  0
 18 26  1  0
 18 17  1  0
 19 20  1  0
 20 21  1  0
 20 22  1  0
 21 28  1  0
 22 23  1  0
 22 24  1  0
 23 29  1  0
 24 25  1  0
 24 26  1  0
 25 30  1  0
 26 27  1  0
 27 31  1  0
  5  6  1  0
  5  7  1  0
  6 11  1  0
  7  8  1  0
  7  9  1  0
  8 12  1  0
  9 10  1  0
 10 13  1  0
M  END
> <minimizedAffinity>
-5.19984

> <CNNscore>
0.9423807859

> <CNNaffinity>
3.2380266190

> <CNN_VS>
3.0514540672

> <CNNaffinity_variance>
0.5514729619

$$$$



 31 32  0  0  0  0  0  0  0  0999 V2000
   15.0249    8.2541    0.8446 O   0  0  0  0  0  0  0  0  0  0  0  0
   16.5222    9.3916   -2.2506 C   0  0  0  0  0  0  0  0  0  0  0  0
   16.3926    8.9800   -0.8874 O   0  0  0  0  0  0  0  0  0  0  0  0
   15.0443    8.7445   -0.4958 C   0  0  0  0  0  0  0  0  0  0  0  0
   14.2452   10.0695   -0.5610 C   0  0  0  0  0  0  0  0  0  0  0  0
   12.8641    9.8770   -0.2157 O   0  0  0  0  0  0  0  0  0  0  0  0
   14.3709   10.6580   -1.9795 C   0  0  0  0  0  0  0  0  0  0  0  0
   13.7481   11.9477   -2.0551 O   0  0  0  0  0  0  0  0  0  0  0  0
   15.8382   10.7489   -2.4386 C   0  0  0  0  0  0  0  0  0  0  0  0
   15.9336   11.1682   -3.8028 O   0  0  0  0  0  0  0  0  0  0  0  0
   12.3637    9.6399   -1.0133 H   0  0  0  0  0  0  0  0  0  0  0  0
   14.1752   12.5318   -1.4012 H   0  0  0  0  0  0  0  0  0  0  0  0
   15.1070   10.9361   -4.2626 H   0  0  0  0  0  0  0  0  0  0  0  0
   18.4790   10.8087   -2.3847 O   0  0  0  0  0  0  0  0  0  0  0  0
   18.0186    9.4695   -2.5766 C   0  0  0  0  0  0  0  0  0  0  0  0
   19.3180   10.8872   -2.8701 H   0  0  0  0  0  0  0  0  0  0  0  0
   16.3381    7.8606    1.2847 C   0  0  0  0  0  0  0  0  0  0  0  0
   16.3450    7.7144    2.8162 C   0  0  0  0  0  0  0  0  0  0  0  0
   16.7690    8.9578    3.3831 O   0  0  0  0  0  0  0  0  0  0  0  0
   16.7327    9.0207    4.7951 C   0  0  0  0  0  0  0  0  0  0  0  0
   17.7551    8.2154    5.3773 O   0  0  0  0  0  0  0  0  0  0  0  0
   15.3404    8.6913    5.3602 C   0  0  0  0  0  0  0  0  0  0  0  0
   15.3515    8.7111    6.7924 O   0  0  0  0  0  0  0  0  0  0  0  0
   14.8825    7.3217    4.8463 C   0  0  0  0  0  0  0  0  0  0  0  0
   13.5448    7.0152    5.2633 O   0  0  0  0  0  0  0  0  0  0  0  0
   14.9665    7.2576    3.3144 C   0  0  0  0  0  0  0  0  0  0  0  0
   14.7248    5.9227    2.8429 O   0  0  0  0  0  0  0  0  0  0  0  0
   17.5315    7.2815    5.2584 H   0  0  0  0  0  0  0  0  0  0  0  0
   16.1967    8.3219    7.0857 H   0  0  0  0  0  0  0  0  0  0  0  0
   12.9627    7.7441    4.9802 H   0  0  0  0  0  0  0  0  0  0  0  0
   14.7283    5.3182    3.6061 H   0  0  0  0  0  0  0  0  0  0  0  0
 14 15  1  0
 14 16  1  0
  2  3  1  0
  2  9  1  0
  2 15  1  0
  3  4  1  0
  4  5  1  0
  4  1  1  0
  1 17  1  0
 18 19  1  0
 18 26  1  0
 18 17  1  0
 19 20  1  0
 20 21  1  0
 20 22  1  0
 21 28  1  0
 22 23  1  0
 22 24  1  0
 23 29  1  0
 24 25  1  0
 24 26  1  0
 25 30  1  0
 26 27  1  0
 27 31  1  0
  5  6  1  0
  5  7  1  0
  6 11  1  0
  7  8  1  0
  7  9  1  0
  8 12  1  0
  9 10  1  0
 10 13  1  0
M  END
> <minimizedAffinity>
-4.97235

> <CNNscore>
0.8260449171

> <CNNaffinity>
3.3086357117

> <CNN_VS>
2.7330818176

> <CNNaffinity_variance>
0.2554324567

$$$$



 31 32  0  0  0  0  0  0  0  0999 V2000
   16.6164   10.6686   -0.3949 O   0  0  0  0  0  0  0  0  0  0  0  0
   16.6258    7.4705    1.3044 C   0  0  0  0  0  0  0  0  0  0  0  0
   16.9163    8.4851    0.3398 O   0  0  0  0  0  0  0  0  0  0  0  0
   16.1946    9.6928    0.5577 C   0  0  0  0  0  0  0  0  0  0  0  0
   14.6788    9.4322    0.3771 C   0  0  0  0  0  0  0  0  0  0  0  0
   13.9007   10.6132    0.6293 O   0  0  0  0  0  0  0  0  0  0  0  0
   14.2529    8.2921    1.3223 C   0  0  0  0  0  0  0  0  0  0  0  0
   12.8821    7.9318    1.1037 O   0  0  0  0  0  0  0  0  0  0  0  0
   15.1574    7.0541    1.1771 C   0  0  0  0  0  0  0  0  0  0  0  0
   14.8379    6.0568    2.1514 O   0  0  0  0  0  0  0  0  0  0  0  0
   13.6887   10.6621    1.5756 H   0  0  0  0  0  0  0  0  0  0  0  0
   12.7823    7.6615    0.1719 H   0  0  0  0  0  0  0  0  0  0  0  0
   14.4198    6.4875    2.9183 H   0  0  0  0  0  0  0  0  0  0  0  0
   16.8648    5.2712    0.3241 O   0  0  0  0  0  0  0  0  0  0  0  0
   17.5670    6.2890    1.0403 C   0  0  0  0  0  0  0  0  0  0  0  0
   17.3740    4.4502    0.4353 H   0  0  0  0  0  0  0  0  0  0  0  0
   16.8863   10.0751   -1.6787 C   0  0  0  0  0  0  0  0  0  0  0  0
   15.8622   10.5859   -2.7070 C   0  0  0  0  0  0  0  0  0  0  0  0
   15.1402   11.6720   -2.1188 O   0  0  0  0  0  0  0  0  0  0  0  0
   14.2234   12.3219   -2.9768 C   0  0  0  0  0  0  0  0  0  0  0  0
   13.0919   11.4977   -3.2478 O   0  0  0  0  0  0  0  0  0  0  0  0
   14.8899   12.8364   -4.2642 C   0  0  0  0  0  0  0  0  0  0  0  0
   13.9251   13.4405   -5.1338 O   0  0  0  0  0  0  0  0  0  0  0  0
   15.6047   11.6820   -4.9755 C   0  0  0  0  0  0  0  0  0  0  0  0
   16.3288   12.1325   -6.1287 O   0  0  0  0  0  0  0  0  0  0  0  0
   16.5661   10.9628   -4.0183 C   0  0  0  0  0  0  0  0  0  0  0  0
   17.0909    9.7688   -4.6198 O   0  0  0  0  0  0  0  0  0  0  0  0
   13.3588   10.7712   -3.8286 H   0  0  0  0  0  0  0  0  0  0  0  0
   13.1092   12.9081   -5.0832 H   0  0  0  0  0  0  0  0  0  0  0  0
   16.9346   12.8434   -5.8497 H   0  0  0  0  0  0  0  0  0  0  0  0
   16.5924    9.5874   -5.4363 H   0  0  0  0  0  0  0  0  0  0  0  0
 14 15  1  0
 14 16  1  0
  2  3  1  0
  2  9  1  0
  2 15  1  0
  3  4  1  0
  4  5  1  0
  4  1  1  0
  1 17  1  0
 18 19  1  0
 18 26  1  0
 18 17  1  0
 19 20  1  0
 20 21  1  0
 20 22  1  0
 21 28  1  0
 22 23  1  0
 22 24  1  0
 23 29  1  0
 24 25  1  0
 24 26  1  0
 25 30  1  0
 26 27  1  0
 27 31  1  0
  5  6  1  0
  5  7  1  0
  6 11  1  0
  7  8  1  0
  7  9  1  0
  8 12  1  0
  9 10  1  0
 10 13  1  0
M  END
> <minimizedAffinity>
-4.57602

> <CNNscore>
0.8161339164

> <CNNaffinity>
3.1661727428

> <CNN_VS>
2.5840208530

> <CNNaffinity_variance>
0.2727884948

$$$$



 31 32  0  0  0  0  0  0  0  0999 V2000
   14.6819   10.3486    1.9061 O   0  0  0  0  0  0  0  0  0  0  0  0
   17.0477    7.6234    2.2092 C   0  0  0  0  0  0  0  0  0  0  0  0
   16.5133    8.9193    1.9276 O   0  0  0  0  0  0  0  0  0  0  0  0
   15.1056    9.0030    2.1232 C   0  0  0  0  0  0  0  0  0  0  0  0
   14.3846    8.0767    1.1131 C   0  0  0  0  0  0  0  0  0  0  0  0
   12.9601    8.0919    1.2981 O   0  0  0  0  0  0  0  0  0  0  0  0
   14.9347    6.6457    1.2685 C   0  0  0  0  0  0  0  0  0  0  0  0
   14.3844    5.7751    0.2704 O   0  0  0  0  0  0  0  0  0  0  0  0
   16.4734    6.6100    1.2147 C   0  0  0  0  0  0  0  0  0  0  0  0
   16.9756    5.3003    1.4947 O   0  0  0  0  0  0  0  0  0  0  0  0
   12.7142    7.4195    1.9540 H   0  0  0  0  0  0  0  0  0  0  0  0
   14.6088    6.1366   -0.6073 H   0  0  0  0  0  0  0  0  0  0  0  0
   16.3183    4.8177    2.0272 H   0  0  0  0  0  0  0  0  0  0  0  0
   18.9765    7.3759    0.7691 O   0  0  0  0  0  0  0  0  0  0  0  0
   18.5746    7.7116    2.0988 C   0  0  0  0  0  0  0  0  0  0  0  0
   19.9222    7.1537    0.8115 H   0  0  0  0  0  0  0  0  0  0  0  0
   14.8202   10.7324    0.5253 C   0  0  0  0  0  0  0  0  0  0  0  0
   14.3677   12.1922    0.3493 C   0  0  0  0  0  0  0  0  0  0  0  0
   14.7746   12.6341   -0.9492 O   0  0  0  0  0  0  0  0  0  0  0  0
   14.3435   13.9321   -1.3074 C   0  0  0  0  0  0  0  0  0  0  0  0
   15.0379   14.9329   -0.5664 O   0  0  0  0  0  0  0  0  0  0  0  0
   12.8165   14.0900   -1.2087 C   0  0  0  0  0  0  0  0  0  0  0  0
   12.4189   15.4292   -1.5255 O   0  0  0  0  0  0  0  0  0  0  0  0
   12.3454   13.7094    0.1994 C   0  0  0  0  0  0  0  0  0  0  0  0
   10.9158   13.7417    0.3107 O   0  0  0  0  0  0  0  0  0  0  0  0
   12.8559   12.3141    0.5872 C   0  0  0  0  0  0  0  0  0  0  0  0
   12.5823   12.0337    1.9690 O   0  0  0  0  0  0  0  0  0  0  0  0
   14.7343   14.9172    0.3523 H   0  0  0  0  0  0  0  0  0  0  0  0
   13.0841   16.0319   -1.1434 H   0  0  0  0  0  0  0  0  0  0  0  0
   10.5429   13.1696   -0.3849 H   0  0  0  0  0  0  0  0  0  0  0  0
   12.2854   12.8548    2.3998 H   0  0  0  0  0  0  0  0  0  0  0  0
 14 15  1  0
 14 16  1  0
  2  3  1  0
  2  9  1  0
  2 15  1  0
  3  4  1  0
  4  5  1  0
  4  1  1  0
  1 17  1  0
 18 19  1  0
 18 26  1  0
 18 17  1  0
 19 20  1  0
 20 21  1  0
 20 22  1  0
 21 28  1  0
 22 23  1  0
 22 24  1  0
 23 29  1  0
 24 25  1  0
 24 26  1  0
 25 30  1  0
 26 27  1  0
 27 31  1  0
  5  6  1  0
  5  7  1  0
  6 11  1  0
  7  8  1  0
  7  9  1  0
  8 12  1  0
  9 10  1  0
 10 13  1  0
M  END
> <minimizedAffinity>
-4.82847

> <CNNscore>
0.7785211802

> <CNNaffinity>
3.4221127033

> <CNN_VS>
2.6641871929

> <CNNaffinity_variance>
0.0693598166

$$$$



 31 32  0  0  0  0  0  0  0  0999 V2000
   14.8236    6.6617    2.4558 O   0  0  0  0  0  0  0  0  0  0  0  0
   17.8489    5.1013    3.6920 C   0  0  0  0  0  0  0  0  0  0  0  0
   16.7374    5.4035    2.8448 O   0  0  0  0  0  0  0  0  0  0  0  0
   15.8446    6.3597    3.4064 C   0  0  0  0  0  0  0  0  0  0  0  0
   15.1905    5.7737    4.6819 C   0  0  0  0  0  0  0  0  0  0  0  0
   14.3109    6.7183    5.3125 O   0  0  0  0  0  0  0  0  0  0  0  0
   16.3016    5.3360    5.6558 C   0  0  0  0  0  0  0  0  0  0  0  0
   15.7465    4.6748    6.8011 O   0  0  0  0  0  0  0  0  0  0  0  0
   17.3437    4.4307    4.9729 C   0  0  0  0  0  0  0  0  0  0  0  0
   18.4383    4.1427    5.8474 O   0  0  0  0  0  0  0  0  0  0  0  0
   14.8191    7.2659    5.9327 H   0  0  0  0  0  0  0  0  0  0  0  0
   15.2371    3.9030    6.4909 H   0  0  0  0  0  0  0  0  0  0  0  0
   18.5082    4.8531    6.5099 H   0  0  0  0  0  0  0  0  0  0  0  0
   18.5360    2.8197    3.2708 O   0  0  0  0  0  0  0  0  0  0  0  0
   18.7948    4.1789    2.9135 C   0  0  0  0  0  0  0  0  0  0  0  0
   19.3187    2.3077    3.0046 H   0  0  0  0  0  0  0  0  0  0  0  0
   15.3589    6.7925    1.1255 C   0  0  0  0  0  0  0  0  0  0  0  0
   15.2468    8.2570    0.6676 C   0  0  0  0  0  0  0  0  0  0  0  0
   16.1440    8.4534   -0.4294 O   0  0  0  0  0  0  0  0  0  0  0  0
   16.0872    9.7302   -1.0340 C   0  0  0  0  0  0  0  0  0  0  0  0
   16.6416   10.7322   -0.1846 O   0  0  0  0  0  0  0  0  0  0  0  0
   14.6694   10.0902   -1.5097 C   0  0  0  0  0  0  0  0  0  0  0  0
   14.6362   11.4092   -2.0676 O   0  0  0  0  0  0  0  0  0  0  0  0
   13.6853    9.9777   -0.3399 C   0  0  0  0  0  0  0  0  0  0  0  0
   12.3320   10.2041   -0.7574 O   0  0  0  0  0  0  0  0  0  0  0  0
   13.7889    8.5998    0.3298 C   0  0  0  0  0  0  0  0  0  0  0  0
   13.0132    8.5571    1.5378 O   0  0  0  0  0  0  0  0  0  0  0  0
   16.0422   10.8866    0.5591 H   0  0  0  0  0  0  0  0  0  0  0  0
   15.2203   11.9726   -1.5261 H   0  0  0  0  0  0  0  0  0  0  0  0
   12.1310    9.5892   -1.4866 H   0  0  0  0  0  0  0  0  0  0  0  0
   12.7285    9.4622    1.7564 H   0  0  0  0  0  0  0  0  0  0  0  0
 14 15  1  0
 14 16  1  0
  2  3  1  0
  2  9  1  0
  2 15  1  0
  3  4  1  0
  4  5  1  0
  4  1  1  0
  1 17  1  0
 18 19  1  0
 18 26  1  0
 18 17  1  0
 19 20  1  0
 20 21  1  0
 20 22  1  0
 21 28  1  0
 22 23  1  0
 22 24  1  0
 23 29  1  0
 24 25  1  0
 24 26  1  0
 25 30  1  0
 26 27  1  0
 27 31  1  0
  5  6  1  0
  5  7  1  0
  6 11  1  0
  7  8  1  0
  7  9  1  0
  8 12  1  0
  9 10  1  0
 10 13  1  0
M  END
> <minimizedAffinity>
-5.48935

> <CNNscore>
0.7126461864

> <CNNaffinity>
2.9138615131

> <CNN_VS>
2.0765523911

> <CNNaffinity_variance>
0.4606625140

$$$$



 31 32  0  0  0  0  0  0  0  0999 V2000
   13.9235   10.2834    2.3701 O   0  0  0  0  0  0  0  0  0  0  0  0
   16.2968    7.7340    3.3617 C   0  0  0  0  0  0  0  0  0  0  0  0
   15.7640    9.0064    2.9857 O   0  0  0  0  0  0  0  0  0  0  0  0
   14.3834    8.9597    2.6415 C   0  0  0  0  0  0  0  0  0  0  0  0
   14.1925    8.0886    1.3755 C   0  0  0  0  0  0  0  0  0  0  0  0
   12.8077    7.9738    1.0107 O   0  0  0  0  0  0  0  0  0  0  0  0
   14.8011    6.6964    1.6319 C   0  0  0  0  0  0  0  0  0  0  0  0
   14.7573    5.8925    0.4449 O   0  0  0  0  0  0  0  0  0  0  0  0
   16.2452    6.7863    2.1596 C   0  0  0  0  0  0  0  0  0  0  0  0
   16.7503    5.4978    2.5211 O   0  0  0  0  0  0  0  0  0  0  0  0
   12.4135    7.2206    1.4797 H   0  0  0  0  0  0  0  0  0  0  0  0
   15.2479    6.3585   -0.2576 H   0  0  0  0  0  0  0  0  0  0  0  0
   16.0008    4.9135    2.7337 H   0  0  0  0  0  0  0  0  0  0  0  0
   18.6399    7.7191    2.7577 O   0  0  0  0  0  0  0  0  0  0  0  0
   17.7371    7.9516    3.8408 C   0  0  0  0  0  0  0  0  0  0  0  0
   19.5166    7.5726    3.1522 H   0  0  0  0  0  0  0  0  0  0  0  0
   14.7674   10.9530    1.4147 C   0  0  0  0  0  0  0  0  0  0  0  0
   14.0457   12.2004    0.8763 C   0  0  0  0  0  0  0  0  0  0  0  0
   12.9169   11.7693    0.1102 O   0  0  0  0  0  0  0  0  0  0  0  0
   12.0852   12.8051   -0.3740 C   0  0  0  0  0  0  0  0  0  0  0  0
   12.7232   13.5388   -1.4168 O   0  0  0  0  0  0  0  0  0  0  0  0
   11.5737   13.7199    0.7519 C   0  0  0  0  0  0  0  0  0  0  0  0
   10.7797   14.7881    0.2225 O   0  0  0  0  0  0  0  0  0  0  0  0
   12.7597   14.2764    1.5475 C   0  0  0  0  0  0  0  0  0  0  0  0
   12.3294   15.0540    2.6733 O   0  0  0  0  0  0  0  0  0  0  0  0
   13.6735   13.1411    2.0311 C   0  0  0  0  0  0  0  0  0  0  0  0
   14.8806   13.6643    2.6072 O   0  0  0  0  0  0  0  0  0  0  0  0
   13.4346   14.0754   -1.0396 H   0  0  0  0  0  0  0  0  0  0  0  0
   11.1967   15.0804   -0.6096 H   0  0  0  0  0  0  0  0  0  0  0  0
   11.7313   14.5046    3.2124 H   0  0  0  0  0  0  0  0  0  0  0  0
   14.9307   14.6168    2.4117 H   0  0  0  0  0  0  0  0  0  0  0  0
 14 15  1  0
 14 16  1  0
  2  3  1  0
  2  9  1  0
  2 15  1  0
  3  4  1  0
  4  5  1  0
  4  1  1  0
  1 17  1  0
 18 19  1  0
 18 26  1  0
 18 17  1  0
 19 20  1  0
 20 21  1  0
 20 22  1  0
 21 28  1  0
 22 23  1  0
 22 24  1  0
 23 29  1  0
 24 25  1  0
 24 26  1  0
 25 30  1  0
 26 27  1  0
 27 31  1  0
  5  6  1  0
  5  7  1  0
  6 11  1  0
  7  8  1  0
  7  9  1  0
  8 12  1  0
  9 10  1  0
 10 13  1  0
M  END
> <minimizedAffinity>
-4.93108

> <CNNscore>
0.6928877831

> <CNNaffinity>
3.3589925766

> <CNN_VS>
2.3274049759

> <CNNaffinity_variance>
0.1276853830

$$$$



 31 32  0  0  0  0  0  0  0  0999 V2000
   14.3387    7.3862    1.6641 O   0  0  0  0  0  0  0  0  0  0  0  0
   16.2081    8.2462   -1.3160 C   0  0  0  0  0  0  0  0  0  0  0  0
   15.9210    7.8581    0.0298 O   0  0  0  0  0  0  0  0  0  0  0  0
   14.5307    7.8718    0.3357 C   0  0  0  0  0  0  0  0  0  0  0  0
   13.9927    9.3211    0.2444 C   0  0  0  0  0  0  0  0  0  0  0  0
   12.5809    9.3833    0.5028 O   0  0  0  0  0  0  0  0  0  0  0  0
   14.3117    9.8841   -1.1540 C   0  0  0  0  0  0  0  0  0  0  0  0
   13.9408   11.2665   -1.2456 O   0  0  0  0  0  0  0  0  0  0  0  0
   15.7966    9.7068   -1.5224 C   0  0  0  0  0  0  0  0  0  0  0  0
   16.0516   10.1087   -2.8713 O   0  0  0  0  0  0  0  0  0  0  0  0
   12.0962    9.2461   -0.3273 H   0  0  0  0  0  0  0  0  0  0  0  0
   14.4260   11.7589   -0.5575 H   0  0  0  0  0  0  0  0  0  0  0  0
   15.2267   10.0345   -3.3837 H   0  0  0  0  0  0  0  0  0  0  0  0
   17.9538    7.8491   -2.9440 O   0  0  0  0  0  0  0  0  0  0  0  0
   17.7109    8.0502   -1.5502 C   0  0  0  0  0  0  0  0  0  0  0  0
   18.8341    7.4425   -3.0177 H   0  0  0  0  0  0  0  0  0  0  0  0
   15.4326    6.5508    2.0870 C   0  0  0  0  0  0  0  0  0  0  0  0
   15.4648    6.4844    3.6237 C   0  0  0  0  0  0  0  0  0  0  0  0
   16.0889    5.2550    4.0061 O   0  0  0  0  0  0  0  0  0  0  0  0
   16.2874    5.0859    5.3957 C   0  0  0  0  0  0  0  0  0  0  0  0
   15.0529    4.8632    6.0734 O   0  0  0  0  0  0  0  0  0  0  0  0
   17.0920    6.2404    6.0170 C   0  0  0  0  0  0  0  0  0  0  0  0
   17.2285    6.0656    7.4322 O   0  0  0  0  0  0  0  0  0  0  0  0
   16.4081    7.5762    5.7051 C   0  0  0  0  0  0  0  0  0  0  0  0
   17.1765    8.6920    6.1761 O   0  0  0  0  0  0  0  0  0  0  0  0
   16.1641    7.7254    4.1964 C   0  0  0  0  0  0  0  0  0  0  0  0
   15.3555    8.8796    3.9193 O   0  0  0  0  0  0  0  0  0  0  0  0
   14.5450    5.6866    6.0889 H   0  0  0  0  0  0  0  0  0  0  0  0
   16.3848    5.7084    7.7675 H   0  0  0  0  0  0  0  0  0  0  0  0
   18.0734    8.6246    5.8003 H   0  0  0  0  0  0  0  0  0  0  0  0
   14.9986    9.2179    4.7595 H   0  0  0  0  0  0  0  0  0  0  0  0
 14 15  1  0
 14 16  1  0
  2  3  1  0
  2  9  1  0
  2 15  1  0
  3  4  1  0
  4  5  1  0
  4  1  1  0
  1 17  1  0
 18 19  1  0
 18 26  1  0
 18 17  1  0
 19 20  1  0
 20 21  1  0
 20 22  1  0
 21 28  1  0
 22 23  1  0
 22 24  1  0
 23 29  1  0
 24 25  1  0
 24 26  1  0
 25 30  1  0
 26 27  1  0
 27 31  1  0
  5  6  1  0
  5  7  1  0
  6 11  1  0
  7  8  1  0
  7  9  1  0
  8 12  1  0
  9 10  1  0
 10 13  1  0
M  END
> <minimizedAffinity>
-5.39098

> <CNNscore>
0.6121733785

> <CNNaffinity>
2.7813587189

> <CNN_VS>
1.7026737928

> <CNNaffinity_variance>
0.5478779674

$$$$



 31 32  0  0  0  0  0  0  0  0999 V2000
   15.4708    8.7718    0.7089 O   0  0  0  0  0  0  0  0  0  0  0  0
   17.5722    6.6990    2.8072 C   0  0  0  0  0  0  0  0  0  0  0  0
   16.9977    7.2875    1.6376 O   0  0  0  0  0  0  0  0  0  0  0  0
   15.9163    8.1682    1.9232 C   0  0  0  0  0  0  0  0  0  0  0  0
   14.7468    7.3693    2.5494 C   0  0  0  0  0  0  0  0  0  0  0  0
   13.6440    8.2219    2.8969 O   0  0  0  0  0  0  0  0  0  0  0  0
   15.2640    6.6206    3.7930 C   0  0  0  0  0  0  0  0  0  0  0  0
   14.2462    5.7695    4.3376 O   0  0  0  0  0  0  0  0  0  0  0  0
   16.5331    5.8031    3.4879 C   0  0  0  0  0  0  0  0  0  0  0  0
   17.0792    5.2237    4.6761 O   0  0  0  0  0  0  0  0  0  0  0  0
   13.7738    8.5644    3.7961 H   0  0  0  0  0  0  0  0  0  0  0  0
   13.9728    5.1391    3.6454 H   0  0  0  0  0  0  0  0  0  0  0  0
   16.7997    5.7546    5.4432 H   0  0  0  0  0  0  0  0  0  0  0  0
   18.4333    4.5310    2.1641 O   0  0  0  0  0  0  0  0  0  0  0  0
   18.8036    5.8956    2.3715 C   0  0  0  0  0  0  0  0  0  0  0  0
   19.2559    4.0127    2.1856 H   0  0  0  0  0  0  0  0  0  0  0  0
   14.2638    9.5319    0.9056 C   0  0  0  0  0  0  0  0  0  0  0  0
   14.1555   10.6157   -0.1809 C   0  0  0  0  0  0  0  0  0  0  0  0
   12.7724   10.7925   -0.5012 O   0  0  0  0  0  0  0  0  0  0  0  0
   12.4935   11.8320   -1.4181 C   0  0  0  0  0  0  0  0  0  0  0  0
   12.9268   11.4941   -2.7338 O   0  0  0  0  0  0  0  0  0  0  0  0
   13.0504   13.1883   -0.9527 C   0  0  0  0  0  0  0  0  0  0  0  0
   12.7982   14.2069   -1.9277 O   0  0  0  0  0  0  0  0  0  0  0  0
   14.5540   13.0662   -0.6811 C   0  0  0  0  0  0  0  0  0  0  0  0
   15.0998   14.2797   -0.1457 O   0  0  0  0  0  0  0  0  0  0  0  0
   14.8420   11.9077    0.2847 C   0  0  0  0  0  0  0  0  0  0  0  0
   16.2540   11.6673    0.3908 O   0  0  0  0  0  0  0  0  0  0  0  0
   13.8937   11.5149   -2.7659 H   0  0  0  0  0  0  0  0  0  0  0  0
   12.9219   13.8077   -2.8093 H   0  0  0  0  0  0  0  0  0  0  0  0
   14.5864   14.5211    0.6470 H   0  0  0  0  0  0  0  0  0  0  0  0
   16.7091   12.1791   -0.3012 H   0  0  0  0  0  0  0  0  0  0  0  0
 14 15  1  0
 14 16  1  0
  2  3  1  0
  2  9  1  0
  2 15  1  0
  3  4  1  0
  4  5  1  0
  4  1  1  0
  1 17  1  0
 18 19  1  0
 18 26  1  0
 18 17  1  0
 19 20  1  0
 20 21  1  0
 20 22  1  0
 21 28  1  0
 22 23  1  0
 22 24  1  0
 23 29  1  0
 24 25  1  0
 24 26  1  0
 25 30  1  0
 26 27  1  0
 27 31  1  0
  5  6  1  0
  5  7  1  0
  6 11  1  0
  7  8  1  0
  7  9  1  0
  8 12  1  0
  9 10  1  0
 10 13  1  0
M  END
> <minimizedAffinity>
-4.57522

> <CNNscore>
0.6105102301

> <CNNaffinity>
3.5464134216

> <CNN_VS>
2.1651215553

> <CNNaffinity_variance>
0.5173493028

$$$$



 31 32  0  0  0  0  0  0  0  0999 V2000
   17.4197    8.9536    1.3295 O   0  0  0  0  0  0  0  0  0  0  0  0
   14.5432   10.5823   -0.1498 C   0  0  0  0  0  0  0  0  0  0  0  0
   15.3240    9.6872    0.6461 O   0  0  0  0  0  0  0  0  0  0  0  0
   16.7252    9.8184    0.4311 C   0  0  0  0  0  0  0  0  0  0  0  0
   17.0677    9.4158   -1.0245 C   0  0  0  0  0  0  0  0  0  0  0  0
   18.4677    9.5725   -1.3060 O   0  0  0  0  0  0  0  0  0  0  0  0
   16.2233   10.2700   -1.9898 C   0  0  0  0  0  0  0  0  0  0  0  0
   16.4160    9.8491   -3.3472 O   0  0  0  0  0  0  0  0  0  0  0  0
   14.7260   10.2366   -1.6306 C   0  0  0  0  0  0  0  0  0  0  0  0
   13.9728   11.1374   -2.4474 O   0  0  0  0  0  0  0  0  0  0  0  0
   18.6343   10.4788   -1.6121 H   0  0  0  0  0  0  0  0  0  0  0  0
   16.1675    8.9082   -3.4133 H   0  0  0  0  0  0  0  0  0  0  0  0
   14.5636   11.8428   -2.7666 H   0  0  0  0  0  0  0  0  0  0  0  0
   12.9642   10.7132    1.6791 O   0  0  0  0  0  0  0  0  0  0  0  0
   13.0788   10.4376    0.2816 C   0  0  0  0  0  0  0  0  0  0  0  0
   12.1179   10.3325    1.9698 H   0  0  0  0  0  0  0  0  0  0  0  0
   16.9542    9.1100    2.6830 C   0  0  0  0  0  0  0  0  0  0  0  0
   16.4129    7.7656    3.1993 C   0  0  0  0  0  0  0  0  0  0  0  0
   17.4018    7.1827    4.0534 O   0  0  0  0  0  0  0  0  0  0  0  0
   17.0149    5.9826    4.6930 C   0  0  0  0  0  0  0  0  0  0  0  0
   16.9379    4.9017    3.7663 O   0  0  0  0  0  0  0  0  0  0  0  0
   15.7197    6.1442    5.5071 C   0  0  0  0  0  0  0  0  0  0  0  0
   15.3273    4.8992    6.0969 O   0  0  0  0  0  0  0  0  0  0  0  0
   14.6045    6.6860    4.6059 C   0  0  0  0  0  0  0  0  0  0  0  0
   13.4036    6.9512    5.3438 O   0  0  0  0  0  0  0  0  0  0  0  0
   15.0560    7.9666    3.8888 C   0  0  0  0  0  0  0  0  0  0  0  0
   14.0926    8.3689    2.9025 O   0  0  0  0  0  0  0  0  0  0  0  0
   16.1678    5.0271    3.1940 H   0  0  0  0  0  0  0  0  0  0  0  0
   15.5133    4.1946    5.4482 H   0  0  0  0  0  0  0  0  0  0  0  0
   13.6246    7.5499    6.0806 H   0  0  0  0  0  0  0  0  0  0  0  0
   13.4472    7.6491    2.7869 H   0  0  0  0  0  0  0  0  0  0  0  0
 14 15  1  0
 14 16  1  0
  2  3  1  0
  2  9  1  0
  2 15  1  0
  3  4  1  0
  4  5  1  0
  4  1  1  0
  1 17  1  0
 18 19  1  0
 18 26  1  0
 18 17  1  0
 19 20  1  0
 20 21  1  0
 20 22  1  0
 21 28  1  0
 22 23  1  0
 22 24  1  0
 23 29  1  0
 24 25  1  0
 24 26  1  0
 25 30  1  0
 26 27  1  0
 27 31  1  0
  5  6  1  0
  5  7  1  0
  6 11  1  0
  7  8  1  0
  7  9  1  0
  8 12  1  0
  9 10  1  0
 10 13  1  0
M  END
> <minimizedAffinity>
-5.28141

> <CNNscore>
0.6017132998

> <CNNaffinity>
2.9344141483

> <CNN_VS>
1.7656760216

> <CNNaffinity_variance>
0.3663095236

$$$$



 31 32  0  0  0  0  0  0  0  0999 V2000
   14.0245   10.2883    2.4044 O   0  0  0  0  0  0  0  0  0  0  0  0
   16.3669    7.7169    3.4125 C   0  0  0  0  0  0  0  0  0  0  0  0
   15.8503    8.9922    3.0239 O   0  0  0  0  0  0  0  0  0  0  0  0
   14.4667    8.9615    2.6896 C   0  0  0  0  0  0  0  0  0  0  0  0
   14.2543    8.0773    1.4362 C   0  0  0  0  0  0  0  0  0  0  0  0
   12.8655    7.9784    1.0822 O   0  0  0  0  0  0  0  0  0  0  0  0
   14.8442    6.6796    1.7063 C   0  0  0  0  0  0  0  0  0  0  0  0
   14.7803    5.8615    0.5301 O   0  0  0  0  0  0  0  0  0  0  0  0
   16.2930    6.7549    2.2231 C   0  0  0  0  0  0  0  0  0  0  0  0
   16.7816    5.4638    2.5977 O   0  0  0  0  0  0  0  0  0  0  0  0
   12.4634    7.2371    1.5635 H   0  0  0  0  0  0  0  0  0  0  0  0
   15.2728    6.3111   -0.1816 H   0  0  0  0  0  0  0  0  0  0  0  0
   16.0251    4.8933    2.8228 H   0  0  0  0  0  0  0  0  0  0  0  0
   18.7076    7.6043    2.8098 O   0  0  0  0  0  0  0  0  0  0  0  0
   17.8135    7.9193    3.8791 C   0  0  0  0  0  0  0  0  0  0  0  0
   19.5805    7.4545    3.2113 H   0  0  0  0  0  0  0  0  0  0  0  0
   14.8071   10.8955    1.3593 C   0  0  0  0  0  0  0  0  0  0  0  0
   13.8996   11.7750    0.4820 C   0  0  0  0  0  0  0  0  0  0  0  0
   14.3759   13.1222    0.5543 O   0  0  0  0  0  0  0  0  0  0  0  0
   13.7055   14.0448   -0.2816 C   0  0  0  0  0  0  0  0  0  0  0  0
   12.3863   14.3095    0.1899 O   0  0  0  0  0  0  0  0  0  0  0  0
   13.7200   13.6144   -1.7584 C   0  0  0  0  0  0  0  0  0  0  0  0
   12.9877   14.5413   -2.5687 O   0  0  0  0  0  0  0  0  0  0  0  0
   13.1344   12.2044   -1.8938 C   0  0  0  0  0  0  0  0  0  0  0  0
   13.2211   11.7176   -3.2401 O   0  0  0  0  0  0  0  0  0  0  0  0
   13.8469   11.2246   -0.9503 C   0  0  0  0  0  0  0  0  0  0  0  0
   13.1791    9.9532   -0.9315 O   0  0  0  0  0  0  0  0  0  0  0  0
   11.8315   13.5315    0.0376 H   0  0  0  0  0  0  0  0  0  0  0  0
   12.2036   14.8214   -2.0602 H   0  0  0  0  0  0  0  0  0  0  0  0
   14.1514   11.7743   -3.5255 H   0  0  0  0  0  0  0  0  0  0  0  0
   12.3250   10.0441   -1.3899 H   0  0  0  0  0  0  0  0  0  0  0  0
 14 15  1  0
 14 16  1  0
  2  3  1  0
  2  9  1  0
  2 15  1  0
  3  4  1  0
  4  5  1  0
  4  1  1  0
  1 17  1  0
 18 19  1  0
 18 26  1  0
 18 17  1  0
 19 20  1  0
 20 21  1  0
 20 22  1  0
 21 28  1  0
 22 23  1  0
 22 24  1  0
 23 29  1  0
 24 25  1  0
 24 26  1  0
 25 30  1  0
 26 27  1  0
 27 31  1  0
  5  6  1  0
  5  7  1  0
  6 11  1  0
  7  8  1  0
  7  9  1  0
  8 12  1  0
  9 10  1  0
 10 13  1  0
M  END
> <minimizedAffinity>
-5.33633

> <CNNscore>
0.5295205116

> <CNNaffinity>
3.3687446117

> <CNN_VS>
1.7838193178

> <CNNaffinity_variance>
0.0967052579

$$$$



 31 32  0  0  0  0  0  0  0  0999 V2000
   14.5038    8.5798   -0.2217 O   0  0  0  0  0  0  0  0  0  0  0  0
   17.8415    8.3972    1.1718 C   0  0  0  0  0  0  0  0  0  0  0  0
   16.7464    8.7978    0.3445 O   0  0  0  0  0  0  0  0  0  0  0  0
   15.5582    8.0502    0.5814 C   0  0  0  0  0  0  0  0  0  0  0  0
   15.7913    6.5683    0.1968 C   0  0  0  0  0  0  0  0  0  0  0  0
   14.6324    5.7606    0.4586 O   0  0  0  0  0  0  0  0  0  0  0  0
   17.0086    6.0362    0.9774 C   0  0  0  0  0  0  0  0  0  0  0  0
   17.3386    4.7032    0.5638 O   0  0  0  0  0  0  0  0  0  0  0  0
   18.2348    6.9566    0.8316 C   0  0  0  0  0  0  0  0  0  0  0  0
   19.3133    6.5260    1.6666 O   0  0  0  0  0  0  0  0  0  0  0  0
   14.6672    5.4359    1.3730 H   0  0  0  0  0  0  0  0  0  0  0  0
   17.5234    4.7177   -0.3938 H   0  0  0  0  0  0  0  0  0  0  0  0
   18.9503    6.0167    2.4131 H   0  0  0  0  0  0  0  0  0  0  0  0
   19.8919    8.8046   -0.0467 O   0  0  0  0  0  0  0  0  0  0  0  0
   19.0009    9.3682    0.9179 C   0  0  0  0  0  0  0  0  0  0  0  0
   20.7339    9.2838    0.0382 H   0  0  0  0  0  0  0  0  0  0  0  0
   13.3463    8.9063    0.5701 C   0  0  0  0  0  0  0  0  0  0  0  0
   13.1527   10.4323    0.5932 C   0  0  0  0  0  0  0  0  0  0  0  0
   13.4763   10.9052    1.9042 O   0  0  0  0  0  0  0  0  0  0  0  0
   13.4454   12.3097    2.0637 C   0  0  0  0  0  0  0  0  0  0  0  0
   12.1095   12.8067    2.0329 O   0  0  0  0  0  0  0  0  0  0  0  0
   14.3584   13.0332    1.0590 C   0  0  0  0  0  0  0  0  0  0  0  0
   14.2628   14.4542    1.2118 O   0  0  0  0  0  0  0  0  0  0  0  0
   13.9870   12.6211   -0.3698 C   0  0  0  0  0  0  0  0  0  0  0  0
   14.8784   13.1908   -1.3384 O   0  0  0  0  0  0  0  0  0  0  0  0
   13.9863   11.0924   -0.5143 C   0  0  0  0  0  0  0  0  0  0  0  0
   13.4547   10.6979   -1.7889 O   0  0  0  0  0  0  0  0  0  0  0  0
   11.7677   12.7462    1.1297 H   0  0  0  0  0  0  0  0  0  0  0  0
   13.3289   14.6683    1.3961 H   0  0  0  0  0  0  0  0  0  0  0  0
   15.7899   12.9462   -1.0946 H   0  0  0  0  0  0  0  0  0  0  0  0
   13.0549   11.4774   -2.2135 H   0  0  0  0  0  0  0  0  0  0  0  0
 14 15  1  0
 14 16  1  0
  2  3  1  0
  2  9  1  0
  2 15  1  0
  3  4  1  0
  4  5  1  0
  4  1  1  0
  1 17  1  0
 18 19  1  0
 18 26  1  0
 18 17  1  0
 19 20  1  0
 20 21  1  0
 20 22  1  0
 21 28  1  0
 22 23  1  0
 22 24  1  0
 23 29  1  0
 24 25  1  0
 24 26  1  0
 25 30  1  0
 26 27  1  0
 27 31  1  0
  5  6  1  0
  5  7  1  0
  6 11  1  0
  7  8  1  0
  7  9  1  0
  8 12  1  0
  9 10  1  0
 10 13  1  0
M  END
> <minimizedAffinity>
-4.64503

> <CNNscore>
0.5259878635

> <CNNaffinity>
3.0761134624

> <CNN_VS>
1.6179983616

> <CNNaffinity_variance>
0.3532952368

$$$$



 31 32  0  0  0  0  0  0  0  0999 V2000
   13.6787    9.3714   -0.2005 O   0  0  0  0  0  0  0  0  0  0  0  0
   16.6698    7.3305   -0.1386 C   0  0  0  0  0  0  0  0  0  0  0  0
   15.4861    7.9729   -0.6187 O   0  0  0  0  0  0  0  0  0  0  0  0
   14.7883    8.6952    0.3903 C   0  0  0  0  0  0  0  0  0  0  0  0
   14.2663    7.7118    1.4667 C   0  0  0  0  0  0  0  0  0  0  0  0
   13.5902    8.3975    2.5327 O   0  0  0  0  0  0  0  0  0  0  0  0
   15.4536    6.8970    2.0152 C   0  0  0  0  0  0  0  0  0  0  0  0
   15.0025    5.8872    2.9282 O   0  0  0  0  0  0  0  0  0  0  0  0
   16.2863    6.2598    0.8871 C   0  0  0  0  0  0  0  0  0  0  0  0
   17.4588    5.6213    1.4003 O   0  0  0  0  0  0  0  0  0  0  0  0
   14.2368    8.6553    3.2097 H   0  0  0  0  0  0  0  0  0  0  0  0
   14.3759    5.3073    2.4567 H   0  0  0  0  0  0  0  0  0  0  0  0
   17.6971    6.0346    2.2493 H   0  0  0  0  0  0  0  0  0  0  0  0
   17.1687    5.3056   -1.3658 O   0  0  0  0  0  0  0  0  0  0  0  0
   17.3922    6.7169   -1.3441 C   0  0  0  0  0  0  0  0  0  0  0  0
   17.8570    4.9232   -1.9365 H   0  0  0  0  0  0  0  0  0  0  0  0
   14.0540   10.6665   -0.7055 C   0  0  0  0  0  0  0  0  0  0  0  0
   14.6850   11.4966    0.4258 C   0  0  0  0  0  0  0  0  0  0  0  0
   15.5292   12.4896   -0.1643 O   0  0  0  0  0  0  0  0  0  0  0  0
   16.1092   13.4053    0.7436 C   0  0  0  0  0  0  0  0  0  0  0  0
   17.1160   12.7820    1.5378 O   0  0  0  0  0  0  0  0  0  0  0  0
   15.0554   14.1265    1.6012 C   0  0  0  0  0  0  0  0  0  0  0  0
   15.6782   15.0053    2.5454 O   0  0  0  0  0  0  0  0  0  0  0  0
   14.1805   13.0959    2.3237 C   0  0  0  0  0  0  0  0  0  0  0  0
   13.1164   13.7190    3.0561 O   0  0  0  0  0  0  0  0  0  0  0  0
   13.5915   12.0861    1.3280 C   0  0  0  0  0  0  0  0  0  0  0  0
   12.9327   11.0116    2.0166 O   0  0  0  0  0  0  0  0  0  0  0  0
   16.6965   12.1819    2.1704 H   0  0  0  0  0  0  0  0  0  0  0  0
   16.4810   14.5605    2.8765 H   0  0  0  0  0  0  0  0  0  0  0  0
   12.6132   14.2838    2.4413 H   0  0  0  0  0  0  0  0  0  0  0  0
   13.1501   11.0700    2.9638 H   0  0  0  0  0  0  0  0  0  0  0  0
 14 15  1  0
 14 16  1  0
  2  3  1  0
  2  9  1  0
  2 15  1  0
  3  4  1  0
  4  5  1  0
  4  1  1  0
  1 17  1  0
 18 19  1  0
 18 26  1  0
 18 17  1  0
 19 20  1  0
 20 21  1  0
 20 22  1  0
 21 28  1  0
 22 23  1  0
 22 24  1  0
 23 29  1  0
 24 25  1  0
 24 26  1  0
 25 30  1  0
 26 27  1  0
 27 31  1  0
  5  6  1  0
  5  7  1  0
  6 11  1  0
  7  8  1  0
  7  9  1  0
  8 12  1  0
  9 10  1  0
 10 13  1  0
M  END
> <minimizedAffinity>
-4.76439

> <CNNscore>
0.5174492598

> <CNNaffinity>
3.2109572887

> <CNN_VS>
1.6615074873

> <CNNaffinity_variance>
0.1814404726

$$$$



 31 32  0  0  0  0  0  0  0  0999 V2000
   14.9333    8.0651    1.4017 O   0  0  0  0  0  0  0  0  0  0  0  0
   15.3960    9.6753    4.6125 C   0  0  0  0  0  0  0  0  0  0  0  0
   15.5334    9.3807    3.2201 O   0  0  0  0  0  0  0  0  0  0  0  0
   14.8084    8.2244    2.8147 C   0  0  0  0  0  0  0  0  0  0  0  0
   15.3899    6.9733    3.5180 C   0  0  0  0  0  0  0  0  0  0  0  0
   14.6634    5.7824    3.1748 O   0  0  0  0  0  0  0  0  0  0  0  0
   15.3653    7.2013    5.0417 C   0  0  0  0  0  0  0  0  0  0  0  0
   16.0064    6.1194    5.7312 O   0  0  0  0  0  0  0  0  0  0  0  0
   16.0147    8.5413    5.4352 C   0  0  0  0  0  0  0  0  0  0  0  0
   15.8651    8.8034    6.8333 O   0  0  0  0  0  0  0  0  0  0  0  0
   13.9195    5.6718    3.7889 H   0  0  0  0  0  0  0  0  0  0  0  0
   16.9243    6.0528    5.4081 H   0  0  0  0  0  0  0  0  0  0  0  0
   15.0862    8.3208    7.1632 H   0  0  0  0  0  0  0  0  0  0  0  0
   17.4565   10.9314    4.4350 O   0  0  0  0  0  0  0  0  0  0  0  0
   16.1012   11.0102    4.8812 C   0  0  0  0  0  0  0  0  0  0  0  0
   17.9376   11.6520    4.8766 H   0  0  0  0  0  0  0  0  0  0  0  0
   13.6485    8.0668    0.7518 C   0  0  0  0  0  0  0  0  0  0  0  0
   13.5830    9.2281   -0.2552 C   0  0  0  0  0  0  0  0  0  0  0  0
   12.8344   10.2936    0.3376 O   0  0  0  0  0  0  0  0  0  0  0  0
   12.7672   11.4815   -0.4263 C   0  0  0  0  0  0  0  0  0  0  0  0
   11.9381   11.3146   -1.5741 O   0  0  0  0  0  0  0  0  0  0  0  0
   14.1601   12.0241   -0.7887 C   0  0  0  0  0  0  0  0  0  0  0  0
   14.0562   13.1956   -1.6065 O   0  0  0  0  0  0  0  0  0  0  0  0
   14.9691   10.9384   -1.5073 C   0  0  0  0  0  0  0  0  0  0  0  0
   16.3127   11.3631   -1.7746 O   0  0  0  0  0  0  0  0  0  0  0  0
   14.9979    9.6434   -0.6827 C   0  0  0  0  0  0  0  0  0  0  0  0
   15.5866    8.5701   -1.4338 O   0  0  0  0  0  0  0  0  0  0  0  0
   12.3896   10.7453   -2.2132 H   0  0  0  0  0  0  0  0  0  0  0  0
   13.3150   13.0575   -2.2257 H   0  0  0  0  0  0  0  0  0  0  0  0
   16.7158   11.6466   -0.9336 H   0  0  0  0  0  0  0  0  0  0  0  0
   15.6835    8.8554   -2.3596 H   0  0  0  0  0  0  0  0  0  0  0  0
 14 15  1  0
 14 16  1  0
  2  3  1  0
  2  9  1  0
  2 15  1  0
  3  4  1  0
  4  5  1  0
  4  1  1  0
  1 17  1  0
 18 19  1  0
 18 26  1  0
 18 17  1  0
 19 20  1  0
 20 21  1  0
 20 22  1  0
 21 28  1  0
 22 23  1  0
 22 24  1  0
 23 29  1  0
 24 25  1  0
 24 26  1  0
 25 30  1  0
 26 27  1  0
 27 31  1  0
  5  6  1  0
  5  7  1  0
  6 11  1  0
  7  8  1  0
  7  9  1  0
  8 12  1  0
  9 10  1  0
 10 13  1  0
M  END
> <minimizedAffinity>
-4.80266

> <CNNscore>
0.4616683424

> <CNNaffinity>
2.7725684643

> <CNN_VS>
1.2800071239

> <CNNaffinity_variance>
0.5925750136

$$$$



 31 32  0  0  0  0  0  0  0  0999 V2000
   17.3135    6.4039    1.4548 O   0  0  0  0  0  0  0  0  0  0  0  0
   16.1539    9.7216    0.5806 C   0  0  0  0  0  0  0  0  0  0  0  0
   16.8660    8.6739    1.2435 O   0  0  0  0  0  0  0  0  0  0  0  0
   16.4900    7.3724    0.8056 C   0  0  0  0  0  0  0  0  0  0  0  0
   15.0099    7.1070    1.1755 C   0  0  0  0  0  0  0  0  0  0  0  0
   14.5677    5.8198    0.7157 O   0  0  0  0  0  0  0  0  0  0  0  0
   14.1373    8.2252    0.5733 C   0  0  0  0  0  0  0  0  0  0  0  0
   12.7721    8.0898    0.9913 O   0  0  0  0  0  0  0  0  0  0  0  0
   14.6664    9.6264    0.9323 C   0  0  0  0  0  0  0  0  0  0  0  0
   13.9303   10.6510    0.2583 O   0  0  0  0  0  0  0  0  0  0  0  0
   14.2332    5.9006   -0.1923 H   0  0  0  0  0  0  0  0  0  0  0  0
   12.7467    8.1206    1.9658 H   0  0  0  0  0  0  0  0  0  0  0  0
   13.5366   10.2768   -0.5500 H   0  0  0  0  0  0  0  0  0  0  0  0
   16.4769   12.0624    0.0598 O   0  0  0  0  0  0  0  0  0  0  0  0
   16.7523   11.0575    1.0377 C   0  0  0  0  0  0  0  0  0  0  0  0
   17.1017   12.7894    0.2236 H   0  0  0  0  0  0  0  0  0  0  0  0
   18.4870    7.0064    2.0320 C   0  0  0  0  0  0  0  0  0  0  0  0
   18.4705    6.8064    3.5574 C   0  0  0  0  0  0  0  0  0  0  0  0
   18.4499    8.0953    4.1781 O   0  0  0  0  0  0  0  0  0  0  0  0
   18.3313    8.0845    5.5870 C   0  0  0  0  0  0  0  0  0  0  0  0
   19.5296    7.6214    6.2055 O   0  0  0  0  0  0  0  0  0  0  0  0
   17.0925    7.3075    6.0644 C   0  0  0  0  0  0  0  0  0  0  0  0
   17.0317    7.2702    7.4951 O   0  0  0  0  0  0  0  0  0  0  0  0
   17.1188    5.8861    5.4914 C   0  0  0  0  0  0  0  0  0  0  0  0
   15.9312    5.1543    5.8247 O   0  0  0  0  0  0  0  0  0  0  0  0
   17.2884    5.9158    3.9655 C   0  0  0  0  0  0  0  0  0  0  0  0
   17.5064    4.5940    3.4479 O   0  0  0  0  0  0  0  0  0  0  0  0
   19.6210    6.6706    6.0509 H   0  0  0  0  0  0  0  0  0  0  0  0
   17.9426    7.1572    7.8255 H   0  0  0  0  0  0  0  0  0  0  0  0
   15.1606    5.6722    5.5276 H   0  0  0  0  0  0  0  0  0  0  0  0
   17.6678    3.9906    4.1947 H   0  0  0  0  0  0  0  0  0  0  0  0
 14 15  1  0
 14 16  1  0
  2  3  1  0
  2  9  1  0
  2 15  1  0
  3  4  1  0
  4  5  1  0
  4  1  1  0
  1 17  1  0
 18 19  1  0
 18 26  1  0
 18 17  1  0
 19 20  1  0
 20 21  1  0
 20 22  1  0
 21 28  1  0
 22 23  1  0
 22 24  1  0
 23 29  1  0
 24 25  1  0
 24 26  1  0
 25 30  1  0
 26 27  1  0
 27 31  1  0
  5  6  1  0
  5  7  1  0
  6 11  1  0
  7  8  1  0
  7  9  1  0
  8 12  1  0
  9 10  1  0
 10 13  1  0
M  END
> <minimizedAffinity>
-4.67502

> <CNNscore>
0.4433985054

> <CNNaffinity>
3.3622052670

> <CNN_VS>
1.4907968044

> <CNNaffinity_variance>
0.3826793432

$$$$



 31 32  0  0  0  0  0  0  0  0999 V2000
   16.1398   11.4783    1.5356 O   0  0  0  0  0  0  0  0  0  0  0  0
   16.5149    7.8917    1.8688 C   0  0  0  0  0  0  0  0  0  0  0  0
   16.7342    9.2349    1.4305 O   0  0  0  0  0  0  0  0  0  0  0  0
   15.7868   10.1599    1.9536 C   0  0  0  0  0  0  0  0  0  0  0  0
   14.3756    9.8194    1.4145 C   0  0  0  0  0  0  0  0  0  0  0  0
   13.3738   10.6998    1.9483 O   0  0  0  0  0  0  0  0  0  0  0  0
   14.0490    8.3543    1.7629 C   0  0  0  0  0  0  0  0  0  0  0  0
   12.8018    7.9553    1.1780 O   0  0  0  0  0  0  0  0  0  0  0  0
   15.1714    7.3937    1.3277 C   0  0  0  0  0  0  0  0  0  0  0  0
   14.9196    6.0590    1.7760 O   0  0  0  0  0  0  0  0  0  0  0  0
   13.0430   10.3389    2.7869 H   0  0  0  0  0  0  0  0  0  0  0  0
   12.8662    8.0731    0.2119 H   0  0  0  0  0  0  0  0  0  0  0  0
   14.3410    6.0931    2.5586 H   0  0  0  0  0  0  0  0  0  0  0  0
   17.7481    5.8237    2.1093 O   0  0  0  0  0  0  0  0  0  0  0  0
   17.6775    7.0346    1.3537 C   0  0  0  0  0  0  0  0  0  0  0  0
   18.6389    5.4595    1.9694 H   0  0  0  0  0  0  0  0  0  0  0  0
   17.0957   11.4556    0.4590 C   0  0  0  0  0  0  0  0  0  0  0  0
   16.3914   11.8110   -0.8618 C   0  0  0  0  0  0  0  0  0  0  0  0
   16.0888   10.5937   -1.5499 O   0  0  0  0  0  0  0  0  0  0  0  0
   15.3456   10.7440   -2.7433 C   0  0  0  0  0  0  0  0  0  0  0  0
   16.1355   11.3272   -3.7771 O   0  0  0  0  0  0  0  0  0  0  0  0
   14.0269   11.5038   -2.5201 C   0  0  0  0  0  0  0  0  0  0  0  0
   13.3254   11.6855   -3.7557 O   0  0  0  0  0  0  0  0  0  0  0  0
   14.3133   12.8580   -1.8617 C   0  0  0  0  0  0  0  0  0  0  0  0
   13.1052   13.5606   -1.5390 O   0  0  0  0  0  0  0  0  0  0  0  0
   15.1548   12.6794   -0.5897 C   0  0  0  0  0  0  0  0  0  0  0  0
   15.5868   13.9499   -0.0780 O   0  0  0  0  0  0  0  0  0  0  0  0
   16.2894   12.2603   -3.5724 H   0  0  0  0  0  0  0  0  0  0  0  0
   13.9885   11.8770   -4.4452 H   0  0  0  0  0  0  0  0  0  0  0  0
   12.5512   12.9773   -0.9885 H   0  0  0  0  0  0  0  0  0  0  0  0
   15.3943   14.6344   -0.7430 H   0  0  0  0  0  0  0  0  0  0  0  0
 14 15  1  0
 14 16  1  0
  2  3  1  0
  2  9  1  0
  2 15  1  0
  3  4  1  0
  4  5  1  0
  4  1  1  0
  1 17  1  0
 18 19  1  0
 18 26  1  0
 18 17  1  0
 19 20  1  0
 20 21  1  0
 20 22  1  0
 21 28  1  0
 22 23  1  0
 22 24  1  0
 23 29  1  0
 24 25  1  0
 24 26  1  0
 25 30  1  0
 26 27  1  0
 27 31  1  0
  5  6  1  0
  5  7  1  0
  6 11  1  0
  7  8  1  0
  7  9  1  0
  8 12  1  0
  9 10  1  0
 10 13  1  0
M  END
> <minimizedAffinity>
-4.64345

> <CNNscore>
0.3693864048

> <CNNaffinity>
2.9752151966

> <CNN_VS>
1.0990040302

> <CNNaffinity_variance>
0.3352880776

$$$$



 31 32  0  0  0  0  0  0  0  0999 V2000
   14.6776    8.6829    0.8744 O   0  0  0  0  0  0  0  0  0  0  0  0
   15.1328    8.1955    4.4341 C   0  0  0  0  0  0  0  0  0  0  0  0
   15.1692    8.8061    3.1417 O   0  0  0  0  0  0  0  0  0  0  0  0
   14.6867    7.9587    2.1044 C   0  0  0  0  0  0  0  0  0  0  0  0
   15.6188    6.7304    1.9610 C   0  0  0  0  0  0  0  0  0  0  0  0
   15.1502    5.8198    0.9536 O   0  0  0  0  0  0  0  0  0  0  0  0
   15.7221    6.0210    3.3250 C   0  0  0  0  0  0  0  0  0  0  0  0
   16.6713    4.9472    3.2724 O   0  0  0  0  0  0  0  0  0  0  0  0
   16.0880    6.9986    4.4575 C   0  0  0  0  0  0  0  0  0  0  0  0
   16.0480    6.3564    5.7350 O   0  0  0  0  0  0  0  0  0  0  0  0
   14.5292    5.1898    1.3540 H   0  0  0  0  0  0  0  0  0  0  0  0
   17.5353    5.3160    3.0101 H   0  0  0  0  0  0  0  0  0  0  0  0
   15.4453    5.5930    5.6855 H   0  0  0  0  0  0  0  0  0  0  0  0
   14.9434    8.9459    6.7267 O   0  0  0  0  0  0  0  0  0  0  0  0
   15.5390    9.2554    5.4651 C   0  0  0  0  0  0  0  0  0  0  0  0
   14.9688    9.7621    7.2547 H   0  0  0  0  0  0  0  0  0  0  0  0
   13.3531    9.1335    0.5337 C   0  0  0  0  0  0  0  0  0  0  0  0
   13.3829   10.6436    0.2411 C   0  0  0  0  0  0  0  0  0  0  0  0
   12.4834   10.9085   -0.8395 O   0  0  0  0  0  0  0  0  0  0  0  0
   12.3188   12.2741   -1.1665 C   0  0  0  0  0  0  0  0  0  0  0  0
   13.4870   12.8034   -1.7894 O   0  0  0  0  0  0  0  0  0  0  0  0
   11.8715   13.1156    0.0410 C   0  0  0  0  0  0  0  0  0  0  0  0
   11.7666   14.5002   -0.3107 O   0  0  0  0  0  0  0  0  0  0  0  0
   12.8597   12.9294    1.1978 C   0  0  0  0  0  0  0  0  0  0  0  0
   12.4296   13.6141    2.3825 O   0  0  0  0  0  0  0  0  0  0  0  0
   13.0570   11.4396    1.5129 C   0  0  0  0  0  0  0  0  0  0  0  0
   14.1205   11.2519    2.4597 O   0  0  0  0  0  0  0  0  0  0  0  0
   14.1901   12.8861   -1.1297 H   0  0  0  0  0  0  0  0  0  0  0  0
   12.5056   14.7078   -0.9128 H   0  0  0  0  0  0  0  0  0  0  0  0
   11.5278   13.3133    2.5979 H   0  0  0  0  0  0  0  0  0  0  0  0
   14.5947   12.0956    2.5655 H   0  0  0  0  0  0  0  0  0  0  0  0
 14 15  1  0
 14 16  1  0
  2  3  1  0
  2  9  1  0
  2 15  1  0
  3  4  1  0
  4  5  1  0
  4  1  1  0
  1 17  1  0
 18 19  1  0
 18 26  1  0
 18 17  1  0
 19 20  1  0
 20 21  1  0
 20 22  1  0
 21 28  1  0
 22 23  1  0
 22 24  1  0
 23 29  1  0
 24 25  1  0
 24 26  1  0
 25 30  1  0
 26 27  1  0
 27 31  1  0
  5  6  1  0
  5  7  1  0
  6 11  1  0
  7  8  1  0
  7  9  1  0
  8 12  1  0
  9 10  1  0
 10 13  1  0
M  END
> <minimizedAffinity>
-5.23183

> <CNNscore>
0.3692138791

> <CNNaffinity>
2.5967276096

> <CNN_VS>
0.9587478638

> <CNNaffinity_variance>
0.8580317497

$$$$



 31 32  0  0  0  0  0  0  0  0999 V2000
   13.9702    7.5806    1.8887 O   0  0  0  0  0  0  0  0  0  0  0  0
   16.1710    6.1860    4.4040 C   0  0  0  0  0  0  0  0  0  0  0  0
   15.0479    6.3432    3.5333 O   0  0  0  0  0  0  0  0  0  0  0  0
   15.0774    7.5566    2.7892 C   0  0  0  0  0  0  0  0  0  0  0  0
   14.9693    8.7617    3.7557 C   0  0  0  0  0  0  0  0  0  0  0  0
   15.0381   10.0145    3.0561 O   0  0  0  0  0  0  0  0  0  0  0  0
   16.0963    8.6642    4.8020 C   0  0  0  0  0  0  0  0  0  0  0  0
   15.9645    9.6926    5.7930 O   0  0  0  0  0  0  0  0  0  0  0  0
   16.1402    7.2799    5.4755 C   0  0  0  0  0  0  0  0  0  0  0  0
   17.2705    7.1569    6.3433 O   0  0  0  0  0  0  0  0  0  0  0  0
   15.9672   10.2826    2.9681 H   0  0  0  0  0  0  0  0  0  0  0  0
   15.0916    9.5973    6.2176 H   0  0  0  0  0  0  0  0  0  0  0  0
   17.9637    7.7739    6.0478 H   0  0  0  0  0  0  0  0  0  0  0  0
   15.1406    4.8006    6.0993 O   0  0  0  0  0  0  0  0  0  0  0  0
   16.0877    4.7882    5.0292 C   0  0  0  0  0  0  0  0  0  0  0  0
   15.3271    4.0180    6.6456 H   0  0  0  0  0  0  0  0  0  0  0  0
   14.4003    7.5032    0.5167 C   0  0  0  0  0  0  0  0  0  0  0  0
   14.6583    8.9209   -0.0222 C   0  0  0  0  0  0  0  0  0  0  0  0
   15.3908    8.8086   -1.2461 O   0  0  0  0  0  0  0  0  0  0  0  0
   15.6224   10.0272   -1.9246 C   0  0  0  0  0  0  0  0  0  0  0  0
   16.5747   10.8331   -1.2345 O   0  0  0  0  0  0  0  0  0  0  0  0
   14.3195   10.7901   -2.2192 C   0  0  0  0  0  0  0  0  0  0  0  0
   14.5931   12.0427   -2.8578 O   0  0  0  0  0  0  0  0  0  0  0  0
   13.5415   11.0104   -0.9171 C   0  0  0  0  0  0  0  0  0  0  0  0
   12.2687   11.6278   -1.1538 O   0  0  0  0  0  0  0  0  0  0  0  0
   13.3341    9.6829   -0.1738 C   0  0  0  0  0  0  0  0  0  0  0  0
   12.7791    9.9073    1.1317 O   0  0  0  0  0  0  0  0  0  0  0  0
   16.1719   11.1804   -0.4261 H   0  0  0  0  0  0  0  0  0  0  0  0
   15.3951   12.4146   -2.4452 H   0  0  0  0  0  0  0  0  0  0  0  0
   11.7831   11.0859   -1.8024 H   0  0  0  0  0  0  0  0  0  0  0  0
   12.8139   10.8610    1.3244 H   0  0  0  0  0  0  0  0  0  0  0  0
 14 15  1  0
 14 16  1  0
  2  3  1  0
  2  9  1  0
  2 15  1  0
  3  4  1  0
  4  5  1  0
  4  1  1  0
  1 17  1  0
 18 19  1  0
 18 26  1  0
 18 17  1  0
 19 20  1  0
 20 21  1  0
 20 22  1  0
 21 28  1  0
 22 23  1  0
 22 24  1  0
 23 29  1  0
 24 25  1  0
 24 26  1  0
 25 30  1  0
 26 27  1  0
 27 31  1  0
  5  6  1  0
  5  7  1  0
  6 11  1  0
  7  8  1  0
  7  9  1  0
  8 12  1  0
  9 10  1  0
 10 13  1  0
M  END
> <minimizedAffinity>
-5.53877

> <CNNscore>
0.3486983776

> <CNNaffinity>
2.5919065475

> <CNN_VS>
0.9037936330

> <CNNaffinity_variance>
0.6612764001

$$$$



 31 32  0  0  0  0  0  0  0  0999 V2000
   13.8470    9.8001    1.9872 O   0  0  0  0  0  0  0  0  0  0  0  0
   14.1493   10.9473   -1.4346 C   0  0  0  0  0  0  0  0  0  0  0  0
   14.4724   10.3274   -0.1873 O   0  0  0  0  0  0  0  0  0  0  0  0
   13.4807   10.5269    0.8146 C   0  0  0  0  0  0  0  0  0  0  0  0
   13.3882   12.0332    1.1616 C   0  0  0  0  0  0  0  0  0  0  0  0
   12.3687   12.2937    2.1396 O   0  0  0  0  0  0  0  0  0  0  0  0
   13.1133   12.8266   -0.1304 C   0  0  0  0  0  0  0  0  0  0  0  0
   13.1402   14.2383    0.1207 O   0  0  0  0  0  0  0  0  0  0  0  0
   14.1072   12.4671   -1.2507 C   0  0  0  0  0  0  0  0  0  0  0  0
   13.7599   13.1068   -2.4820 O   0  0  0  0  0  0  0  0  0  0  0  0
   11.5206   12.4369    1.6890 H   0  0  0  0  0  0  0  0  0  0  0  0
   14.0156   14.4669    0.4851 H   0  0  0  0  0  0  0  0  0  0  0  0
   12.8057   13.3016   -2.4781 H   0  0  0  0  0  0  0  0  0  0  0  0
   16.2312   11.5439   -2.5139 O   0  0  0  0  0  0  0  0  0  0  0  0
   15.2193   10.5366   -2.4534 C   0  0  0  0  0  0  0  0  0  0  0  0
   16.7108   11.4073   -3.3487 H   0  0  0  0  0  0  0  0  0  0  0  0
   14.9333    8.8906    1.7301 C   0  0  0  0  0  0  0  0  0  0  0  0
   15.2891    8.1359    3.0227 C   0  0  0  0  0  0  0  0  0  0  0  0
   14.0787    7.8870    3.7439 O   0  0  0  0  0  0  0  0  0  0  0  0
   14.2236    7.1083    4.9151 C   0  0  0  0  0  0  0  0  0  0  0  0
   14.8840    7.8388    5.9461 O   0  0  0  0  0  0  0  0  0  0  0  0
   14.8984    5.7540    4.6380 C   0  0  0  0  0  0  0  0  0  0  0  0
   15.0784    5.0142    5.8513 O   0  0  0  0  0  0  0  0  0  0  0  0
   16.2453    5.9783    3.9416 C   0  0  0  0  0  0  0  0  0  0  0  0
   16.8664    4.7401    3.5695 O   0  0  0  0  0  0  0  0  0  0  0  0
   16.0754    6.8586    2.6950 C   0  0  0  0  0  0  0  0  0  0  0  0
   17.3519    7.2295    2.1512 O   0  0  0  0  0  0  0  0  0  0  0  0
   15.8175    7.9441    5.7141 H   0  0  0  0  0  0  0  0  0  0  0  0
   15.3297    5.6487    6.5485 H   0  0  0  0  0  0  0  0  0  0  0  0
   16.2349    4.2335    3.0266 H   0  0  0  0  0  0  0  0  0  0  0  0
   18.0449    6.9825    2.7889 H   0  0  0  0  0  0  0  0  0  0  0  0
 14 15  1  0
 14 16  1  0
  2  3  1  0
  2  9  1  0
  2 15  1  0
  3  4  1  0
  4  5  1  0
  4  1  1  0
  1 17  1  0
 18 19  1  0
 18 26  1  0
 18 17  1  0
 19 20  1  0
 20 21  1  0
 20 22  1  0
 21 28  1  0
 22 23  1  0
 22 24  1  0
 23 29  1  0
 24 25  1  0
 24 26  1  0
 25 30  1  0
 26 27  1  0
 27 31  1  0
  5  6  1  0
  5  7  1  0
  6 11  1  0
  7  8  1  0
  7  9  1  0
  8 12  1  0
  9 10  1  0
 10 13  1  0
M  END
> <minimizedAffinity>
-5.20144

> <CNNscore>
0.3172435760

> <CNNaffinity>
2.5671284199

> <CNN_VS>
0.8144050241

> <CNNaffinity_variance>
0.7881557941

$$$$



 31 32  0  0  0  0  0  0  0  0999 V2000
   14.0114    7.5939    0.3811 O   0  0  0  0  0  0  0  0  0  0  0  0
   15.2066    6.4289    3.5951 C   0  0  0  0  0  0  0  0  0  0  0  0
   14.6236    7.2729    2.5991 O   0  0  0  0  0  0  0  0  0  0  0  0
   14.6949    6.7271    1.2861 C   0  0  0  0  0  0  0  0  0  0  0  0
   16.1767    6.6094    0.8519 C   0  0  0  0  0  0  0  0  0  0  0  0
   16.3052    6.0221   -0.4529 O   0  0  0  0  0  0  0  0  0  0  0  0
   16.9380    5.7731    1.8985 C   0  0  0  0  0  0  0  0  0  0  0  0
   18.3410    5.7385    1.6032 O   0  0  0  0  0  0  0  0  0  0  0  0
   16.7089    6.2931    3.3300 C   0  0  0  0  0  0  0  0  0  0  0  0
   17.3086    5.4309    4.3010 O   0  0  0  0  0  0  0  0  0  0  0  0
   16.3464    5.0558   -0.3674 H   0  0  0  0  0  0  0  0  0  0  0  0
   18.6726    6.6556    1.5883 H   0  0  0  0  0  0  0  0  0  0  0  0
   17.3855    4.5363    3.9238 H   0  0  0  0  0  0  0  0  0  0  0  0
   13.5327    7.0310    5.2353 O   0  0  0  0  0  0  0  0  0  0  0  0
   14.9355    7.0632    4.9646 C   0  0  0  0  0  0  0  0  0  0  0  0
   13.3693    7.6838    5.9374 H   0  0  0  0  0  0  0  0  0  0  0  0
   13.5474    8.7881    1.0382 C   0  0  0  0  0  0  0  0  0  0  0  0
   14.0092   10.0235    0.2461 C   0  0  0  0  0  0  0  0  0  0  0  0
   14.3690    9.6014   -1.0728 O   0  0  0  0  0  0  0  0  0  0  0  0
   14.7225   10.6410   -1.9635 C   0  0  0  0  0  0  0  0  0  0  0  0
   15.9837   11.2114   -1.6218 O   0  0  0  0  0  0  0  0  0  0  0  0
   13.6182   11.7044   -2.0899 C   0  0  0  0  0  0  0  0  0  0  0  0
   14.0293   12.7686   -2.9562 O   0  0  0  0  0  0  0  0  0  0  0  0
   13.2616   12.2496   -0.7024 C   0  0  0  0  0  0  0  0  0  0  0  0
   12.1637   13.1709   -0.7570 O   0  0  0  0  0  0  0  0  0  0  0  0
   12.9196   11.1051    0.2624 C   0  0  0  0  0  0  0  0  0  0  0  0
   12.7739   11.5927    1.6055 O   0  0  0  0  0  0  0  0  0  0  0  0
   15.8897   11.7290   -0.8097 H   0  0  0  0  0  0  0  0  0  0  0  0
   14.9742   12.9400   -2.7841 H   0  0  0  0  0  0  0  0  0  0  0  0
   11.4156   12.7276   -1.1976 H   0  0  0  0  0  0  0  0  0  0  0  0
   13.0900   12.5130    1.6379 H   0  0  0  0  0  0  0  0  0  0  0  0
 14 15  1  0
 14 16  1  0
  2  3  1  0
  2  9  1  0
  2 15  1  0
  3  4  1  0
  4  5  1  0
  4  1  1  0
  1 17  1  0
 18 19  1  0
 18 26  1  0
 18 17  1  0
 19 20  1  0
 20 21  1  0
 20 22  1  0
 21 28  1  0
 22 23  1  0
 22 24  1  0
 23 29  1  0
 24 25  1  0
 24 26  1  0
 25 30  1  0
 26 27  1  0
 27 31  1  0
  5  6  1  0
  5  7  1  0
  6 11  1  0
  7  8  1  0
  7  9  1  0
  8 12  1  0
  9 10  1  0
 10 13  1  0
M  END
> <minimizedAffinity>
-5.56347

> <CNNscore>
0.2969862521

> <CNNaffinity>
2.5088875294

> <CNN_VS>
0.7451050878

> <CNNaffinity_variance>
0.9558901787

$$$$



 31 32  0  0  0  0  0  0  0  0999 V2000
   16.7869    8.7702    2.3644 O   0  0  0  0  0  0  0  0  0  0  0  0
   16.7686    5.7682    4.3900 C   0  0  0  0  0  0  0  0  0  0  0  0
   16.8934    6.6264    3.2533 O   0  0  0  0  0  0  0  0  0  0  0  0
   16.5453    7.9793    3.5278 C   0  0  0  0  0  0  0  0  0  0  0  0
   15.0432    8.0653    3.8946 C   0  0  0  0  0  0  0  0  0  0  0  0
   14.6504    9.4074    4.2235 O   0  0  0  0  0  0  0  0  0  0  0  0
   14.7632    7.1154    5.0752 C   0  0  0  0  0  0  0  0  0  0  0  0
   13.3610    7.0687    5.3725 O   0  0  0  0  0  0  0  0  0  0  0  0
   15.2983    5.6953    4.8125 C   0  0  0  0  0  0  0  0  0  0  0  0
   15.1537    4.8612    5.9655 O   0  0  0  0  0  0  0  0  0  0  0  0
   14.7989    9.5625    5.1705 H   0  0  0  0  0  0  0  0  0  0  0  0
   12.8890    6.7715    4.5724 H   0  0  0  0  0  0  0  0  0  0  0  0
   15.1250    5.4236    6.7600 H   0  0  0  0  0  0  0  0  0  0  0  0
   18.5879    4.5326    3.3808 O   0  0  0  0  0  0  0  0  0  0  0  0
   17.3065    4.3872    3.9964 C   0  0  0  0  0  0  0  0  0  0  0  0
   18.7566    3.7100    2.8904 H   0  0  0  0  0  0  0  0  0  0  0  0
   15.7713    8.5670    1.3642 C   0  0  0  0  0  0  0  0  0  0  0  0
   15.2183    9.9285    0.9086 C   0  0  0  0  0  0  0  0  0  0  0  0
   16.2392   10.6006    0.1650 O   0  0  0  0  0  0  0  0  0  0  0  0
   15.8530   11.8318   -0.4131 C   0  0  0  0  0  0  0  0  0  0  0  0
   15.6797   12.8401    0.5799 O   0  0  0  0  0  0  0  0  0  0  0  0
   14.6191   11.6909   -1.3207 C   0  0  0  0  0  0  0  0  0  0  0  0
   14.2226   12.9630   -1.8465 O   0  0  0  0  0  0  0  0  0  0  0  0
   13.4677   11.0525   -0.5357 C   0  0  0  0  0  0  0  0  0  0  0  0
   12.3264   10.8056   -1.3684 O   0  0  0  0  0  0  0  0  0  0  0  0
   13.9160    9.7375    0.1182 C   0  0  0  0  0  0  0  0  0  0  0  0
   12.9058    9.2365    1.0078 O   0  0  0  0  0  0  0  0  0  0  0  0
   14.8793   12.6510    1.0896 H   0  0  0  0  0  0  0  0  0  0  0  0
   14.3423   13.6242   -1.1391 H   0  0  0  0  0  0  0  0  0  0  0  0
   12.6146   10.2686   -2.1292 H   0  0  0  0  0  0  0  0  0  0  0  0
   12.2300    9.9265    1.1304 H   0  0  0  0  0  0  0  0  0  0  0  0
 14 15  1  0
 14 16  1  0
  2  3  1  0
  2  9  1  0
  2 15  1  0
  3  4  1  0
  4  5  1  0
  4  1  1  0
  1 17  1  0
 18 19  1  0
 18 26  1  0
 18 17  1  0
 19 20  1  0
 20 21  1  0
 20 22  1  0
 21 28  1  0
 22 23  1  0
 22 24  1  0
 23 29  1  0
 24 25  1  0
 24 26  1  0
 25 30  1  0
 26 27  1  0
 27 31  1  0
  5  6  1  0
  5  7  1  0
  6 11  1  0
  7  8  1  0
  7  9  1  0
  8 12  1  0
  9 10  1  0
 10 13  1  0
M  END
> <minimizedAffinity>
-5.17927

> <CNNscore>
0.2826478779

> <CNNaffinity>
2.9875500202

> <CNN_VS>
0.8444246650

> <CNNaffinity_variance>
0.5290769935

$$$$
