


 31 32  0  0  0  0  0  0  0  0999 V2000
   -7.0743   -4.9372  -15.9634 O   0  0  0  0  0  0  0  0  0  0  0  0
   -7.8753   -8.2714  -14.7987 C   0  0  0  0  0  0  0  0  0  0  0  0
   -7.3205   -7.2167  -15.5886 O   0  0  0  0  0  0  0  0  0  0  0  0
   -7.7471   -5.9217  -15.1790 C   0  0  0  0  0  0  0  0  0  0  0  0
   -9.2742   -5.7846  -15.3967 C   0  0  0  0  0  0  0  0  0  0  0  0
   -9.7632   -4.5073  -14.9573 O   0  0  0  0  0  0  0  0  0  0  0  0
   -9.9891   -6.9246  -14.6458 C   0  0  0  0  0  0  0  0  0  0  0  0
  -11.3973   -6.9115  -14.9173 O   0  0  0  0  0  0  0  0  0  0  0  0
   -9.3947   -8.3033  -14.9889 C   0  0  0  0  0  0  0  0  0  0  0  0
   -9.9739   -9.3361  -14.1865 O   0  0  0  0  0  0  0  0  0  0  0  0
   -9.9922   -4.5579  -14.0151 H   0  0  0  0  0  0  0  0  0  0  0  0
  -11.5234   -7.0016  -15.8802 H   0  0  0  0  0  0  0  0  0  0  0  0
  -10.3074   -8.9437  -13.3599 H   0  0  0  0  0  0  0  0  0  0  0  0
   -7.1186  -10.4716  -14.1338 O   0  0  0  0  0  0  0  0  0  0  0  0
   -7.2275   -9.5860  -15.2501 C   0  0  0  0  0  0  0  0  0  0  0  0
   -6.4582  -11.1435  -14.3745 H   0  0  0  0  0  0  0  0  0  0  0  0
   -5.6709   -5.2313  -16.0945 C   0  0  0  0  0  0  0  0  0  0  0  0
   -4.8593   -3.9298  -15.9755 C   0  0  0  0  0  0  0  0  0  0  0  0
   -4.8907   -3.5054  -14.6095 O   0  0  0  0  0  0  0  0  0  0  0  0
   -4.1027   -2.3697  -14.3123 C   0  0  0  0  0  0  0  0  0  0  0  0
   -4.6692   -1.1849  -14.8673 O   0  0  0  0  0  0  0  0  0  0  0  0
   -2.6307   -2.5560  -14.7179 C   0  0  0  0  0  0  0  0  0  0  0  0
   -1.8728   -1.3696  -14.4532 O   0  0  0  0  0  0  0  0  0  0  0  0
   -2.5446   -2.9273  -16.2026 C   0  0  0  0  0  0  0  0  0  0  0  0
   -1.1975   -3.2125  -16.6041 O   0  0  0  0  0  0  0  0  0  0  0  0
   -3.4370   -4.1371  -16.5153 C   0  0  0  0  0  0  0  0  0  0  0  0
   -3.5101   -4.3683  -17.9309 O   0  0  0  0  0  0  0  0  0  0  0  0
   -4.5613   -1.2004  -15.8288 H   0  0  0  0  0  0  0  0  0  0  0  0
   -2.4366   -0.6047  -14.6740 H   0  0  0  0  0  0  0  0  0  0  0  0
   -0.8441   -3.9046  -16.0157 H   0  0  0  0  0  0  0  0  0  0  0  0
   -3.1155   -3.6063  -18.3909 H   0  0  0  0  0  0  0  0  0  0  0  0
 14 15  1  0
 14 16  1  0
  2  3  1  0
  2  9  1  0
  2 15  1  0
  3  4  1  0
  4  5  1  0
  4  1  1  0
  1 17  1  0
 18 19  1  0
 18 26  1  0
 18 17  1  0
 19 20  1  0
 20 21  1  0
 20 22  1  0
 21 28  1  0
 22 23  1  0
 22 24  1  0
 23 29  1  0
 24 25  1  0
 24 26  1  0
 25 30  1  0
 26 27  1  0
 27 31  1  0
  5  6  1  0
  5  7  1  0
  6 11  1  0
  7  8  1  0
  7  9  1  0
  8 12  1  0
  9 10  1  0
 10 13  1  0
M  END
> <minimizedAffinity>
-4.64317

> <CNNscore>
0.9316294789

> <CNNaffinity>
3.0485541821

> <CNN_VS>
2.8401229382

> <CNNaffinity_variance>
0.3777402341

$$$$



 31 32  0  0  0  0  0  0  0  0999 V2000
   -6.1038   -5.3997  -16.0456 O   0  0  0  0  0  0  0  0  0  0  0  0
   -7.1810   -8.3166  -17.9022 C   0  0  0  0  0  0  0  0  0  0  0  0
   -6.7397   -6.9864  -17.6189 O   0  0  0  0  0  0  0  0  0  0  0  0
   -6.6343   -6.7125  -16.2258 C   0  0  0  0  0  0  0  0  0  0  0  0
   -8.0372   -6.7849  -15.5742 C   0  0  0  0  0  0  0  0  0  0  0  0
   -7.9795   -6.5580  -14.1569 O   0  0  0  0  0  0  0  0  0  0  0  0
   -8.6567   -8.1631  -15.8763 C   0  0  0  0  0  0  0  0  0  0  0  0
  -10.0065   -8.2333  -15.3966 O   0  0  0  0  0  0  0  0  0  0  0  0
   -8.6083   -8.5008  -17.3781 C   0  0  0  0  0  0  0  0  0  0  0  0
   -9.0608   -9.8344  -17.6284 O   0  0  0  0  0  0  0  0  0  0  0  0
   -7.8232   -7.4018  -13.7026 H   0  0  0  0  0  0  0  0  0  0  0  0
  -10.5202   -7.5237  -15.8256 H   0  0  0  0  0  0  0  0  0  0  0  0
   -8.9325  -10.3673  -16.8234 H   0  0  0  0  0  0  0  0  0  0  0  0
   -7.0778   -9.9185  -19.7128 O   0  0  0  0  0  0  0  0  0  0  0  0
   -7.1122   -8.5201  -19.4206 C   0  0  0  0  0  0  0  0  0  0  0  0
   -6.7414  -10.0052  -20.6211 H   0  0  0  0  0  0  0  0  0  0  0  0
   -4.7849   -5.2781  -16.6103 C   0  0  0  0  0  0  0  0  0  0  0  0
   -4.2302   -3.8721  -16.3233 C   0  0  0  0  0  0  0  0  0  0  0  0
   -4.4230   -3.5892  -14.9341 O   0  0  0  0  0  0  0  0  0  0  0  0
   -3.8727   -2.3666  -14.4853 C   0  0  0  0  0  0  0  0  0  0  0  0
   -4.6075   -1.2517  -14.9854 O   0  0  0  0  0  0  0  0  0  0  0  0
   -2.3688   -2.2551  -14.7884 C   0  0  0  0  0  0  0  0  0  0  0  0
   -1.8551   -0.9851  -14.3701 O   0  0  0  0  0  0  0  0  0  0  0  0
   -2.1244   -2.4654  -16.2869 C   0  0  0  0  0  0  0  0  0  0  0  0
   -0.7256   -2.4730  -16.6036 O   0  0  0  0  0  0  0  0  0  0  0  0
   -2.7629   -3.7774  -16.7652 C   0  0  0  0  0  0  0  0  0  0  0  0
   -2.7044   -3.8845  -18.1963 O   0  0  0  0  0  0  0  0  0  0  0  0
   -4.4387   -1.1584  -15.9336 H   0  0  0  0  0  0  0  0  0  0  0  0
   -2.5326   -0.3126  -14.5718 H   0  0  0  0  0  0  0  0  0  0  0  0
   -0.2908   -3.1451  -16.0473 H   0  0  0  0  0  0  0  0  0  0  0  0
   -2.4256   -3.0258  -18.5609 H   0  0  0  0  0  0  0  0  0  0  0  0
 14 15  1  0
 14 16  1  0
  2  3  1  0
  2  9  1  0
  2 15  1  0
  3  4  1  0
  4  5  1  0
  4  1  1  0
  1 17  1  0
 18 19  1  0
 18 26  1  0
 18 17  1  0
 19 20  1  0
 20 21  1  0
 20 22  1  0
 21 28  1  0
 22 23  1  0
 22 24  1  0
 23 29  1  0
 24 25  1  0
 24 26  1  0
 25 30  1  0
 26 27  1  0
 27 31  1  0
  5  6  1  0
  5  7  1  0
  6 11  1  0
  7  8  1  0
  7  9  1  0
  8 12  1  0
  9 10  1  0
 10 13  1  0
M  END
> <minimizedAffinity>
-4.17291

> <CNNscore>
0.9220163226

> <CNNaffinity>
3.0962476730

> <CNN_VS>
2.8547909260

> <CNNaffinity_variance>
0.4086333811

$$$$



 31 32  0  0  0  0  0  0  0  0999 V2000
   -4.3255   -2.3791  -14.9625 O   0  0  0  0  0  0  0  0  0  0  0  0
   -5.1445   -5.4759  -16.6520 C   0  0  0  0  0  0  0  0  0  0  0  0
   -4.7089   -4.1307  -16.4397 O   0  0  0  0  0  0  0  0  0  0  0  0
   -4.8680   -3.6928  -15.0944 C   0  0  0  0  0  0  0  0  0  0  0  0
   -6.3736   -3.6566  -14.7341 C   0  0  0  0  0  0  0  0  0  0  0  0
   -6.5863   -3.2613  -13.3695 O   0  0  0  0  0  0  0  0  0  0  0  0
   -6.9822   -5.0480  -14.9950 C   0  0  0  0  0  0  0  0  0  0  0  0
   -8.4018   -5.0316  -14.7916 O   0  0  0  0  0  0  0  0  0  0  0  0
   -6.6538   -5.5657  -16.4079 C   0  0  0  0  0  0  0  0  0  0  0  0
   -7.1071   -6.9100  -16.5900 O   0  0  0  0  0  0  0  0  0  0  0  0
   -6.5603   -4.0471  -12.7997 H   0  0  0  0  0  0  0  0  0  0  0  0
   -8.7887   -4.3686  -15.3932 H   0  0  0  0  0  0  0  0  0  0  0  0
   -7.1638   -7.3443  -15.7201 H   0  0  0  0  0  0  0  0  0  0  0  0
   -5.7421   -6.8054  -18.5834 O   0  0  0  0  0  0  0  0  0  0  0  0
   -4.7870   -5.8628  -18.0922 C   0  0  0  0  0  0  0  0  0  0  0  0
   -5.3339   -7.2415  -19.3509 H   0  0  0  0  0  0  0  0  0  0  0  0
   -3.2109   -2.1735  -15.8505 C   0  0  0  0  0  0  0  0  0  0  0  0
   -2.3626   -0.9932  -15.3465 C   0  0  0  0  0  0  0  0  0  0  0  0
   -1.2588   -0.8207  -16.2404 O   0  0  0  0  0  0  0  0  0  0  0  0
   -0.4331    0.2949  -15.9712 C   0  0  0  0  0  0  0  0  0  0  0  0
    0.3397    0.0960  -14.7896 O   0  0  0  0  0  0  0  0  0  0  0  0
   -1.2244    1.6135  -15.9336 C   0  0  0  0  0  0  0  0  0  0  0  0
   -0.3688    2.7147  -15.6059 O   0  0  0  0  0  0  0  0  0  0  0  0
   -2.3688    1.5032  -14.9199 C   0  0  0  0  0  0  0  0  0  0  0  0
   -3.1991    2.6727  -14.9231 O   0  0  0  0  0  0  0  0  0  0  0  0
   -3.2311    0.2647  -15.2029 C   0  0  0  0  0  0  0  0  0  0  0  0
   -4.1825    0.0503  -14.1485 O   0  0  0  0  0  0  0  0  0  0  0  0
   -0.2413    0.1438  -14.0172 H   0  0  0  0  0  0  0  0  0  0  0  0
    0.2635    2.4053  -14.9304 H   0  0  0  0  0  0  0  0  0  0  0  0
   -3.5091    2.8240  -15.8348 H   0  0  0  0  0  0  0  0  0  0  0  0
   -3.9593    0.6374  -13.4046 H   0  0  0  0  0  0  0  0  0  0  0  0
 14 15  1  0
 14 16  1  0
  2  3  1  0
  2  9  1  0
  2 15  1  0
  3  4  1  0
  4  5  1  0
  4  1  1  0
  1 17  1  0
 18 19  1  0
 18 26  1  0
 18 17  1  0
 19 20  1  0
 20 21  1  0
 20 22  1  0
 21 28  1  0
 22 23  1  0
 22 24  1  0
 23 29  1  0
 24 25  1  0
 24 26  1  0
 25 30  1  0
 26 27  1  0
 27 31  1  0
  5  6  1  0
  5  7  1  0
  6 11  1  0
  7  8  1  0
  7  9  1  0
  8 12  1  0
  9 10  1  0
 10 13  1  0
M  END
> <minimizedAffinity>
-6.13983

> <CNNscore>
0.9082381725

> <CNNaffinity>
3.0695674419

> <CNN_VS>
2.7878983021

> <CNNaffinity_variance>
0.5053337812

$$$$



 31 32  0  0  0  0  0  0  0  0999 V2000
   -6.2799   -5.3014  -16.0561 O   0  0  0  0  0  0  0  0  0  0  0  0
   -8.4182   -8.0594  -15.0883 C   0  0  0  0  0  0  0  0  0  0  0  0
   -7.2387   -7.2845  -15.3178 O   0  0  0  0  0  0  0  0  0  0  0  0
   -7.4987   -6.0369  -15.9523 C   0  0  0  0  0  0  0  0  0  0  0  0
   -8.0628   -6.2841  -17.3732 C   0  0  0  0  0  0  0  0  0  0  0  0
   -8.3832   -5.0534  -18.0415 O   0  0  0  0  0  0  0  0  0  0  0  0
   -9.3108   -7.1814  -17.2650 C   0  0  0  0  0  0  0  0  0  0  0  0
   -9.7982   -7.5385  -18.5657 O   0  0  0  0  0  0  0  0  0  0  0  0
   -9.0398   -8.4486  -16.4328 C   0  0  0  0  0  0  0  0  0  0  0  0
  -10.2370   -9.2036  -16.2262 O   0  0  0  0  0  0  0  0  0  0  0  0
   -9.2934   -4.7963  -17.8218 H   0  0  0  0  0  0  0  0  0  0  0  0
   -9.0836   -7.9991  -19.0436 H   0  0  0  0  0  0  0  0  0  0  0  0
  -11.0028   -8.6059  -16.2958 H   0  0  0  0  0  0  0  0  0  0  0  0
   -7.7319   -8.9152  -12.9315 O   0  0  0  0  0  0  0  0  0  0  0  0
   -8.0155   -9.2980  -14.2788 C   0  0  0  0  0  0  0  0  0  0  0  0
   -7.2095   -9.6365  -12.5410 H   0  0  0  0  0  0  0  0  0  0  0  0
   -6.0998   -4.4120  -14.9382 C   0  0  0  0  0  0  0  0  0  0  0  0
   -4.8033   -3.6054  -15.1261 C   0  0  0  0  0  0  0  0  0  0  0  0
   -4.4853   -3.5869  -16.5210 O   0  0  0  0  0  0  0  0  0  0  0  0
   -3.3680   -2.7959  -16.8746 C   0  0  0  0  0  0  0  0  0  0  0  0
   -2.1498   -3.3916  -16.4345 O   0  0  0  0  0  0  0  0  0  0  0  0
   -3.5081   -1.3394  -16.4000 C   0  0  0  0  0  0  0  0  0  0  0  0
   -2.3381   -0.5801  -16.7264 O   0  0  0  0  0  0  0  0  0  0  0  0
   -3.7635   -1.3083  -14.8890 C   0  0  0  0  0  0  0  0  0  0  0  0
   -4.0036    0.0241  -14.4156 O   0  0  0  0  0  0  0  0  0  0  0  0
   -4.9545   -2.2038  -14.5182 C   0  0  0  0  0  0  0  0  0  0  0  0
   -5.0771   -2.3300  -13.0928 O   0  0  0  0  0  0  0  0  0  0  0  0
   -2.0904   -3.3210  -15.4713 H   0  0  0  0  0  0  0  0  0  0  0  0
   -1.5641   -1.1573  -16.5868 H   0  0  0  0  0  0  0  0  0  0  0  0
   -4.7354    0.4048  -14.9351 H   0  0  0  0  0  0  0  0  0  0  0  0
   -4.2782   -1.9589  -12.6782 H   0  0  0  0  0  0  0  0  0  0  0  0
 14 15  1  0
 14 16  1  0
  2  3  1  0
  2  9  1  0
  2 15  1  0
  3  4  1  0
  4  5  1  0
  4  1  1  0
  1 17  1  0
 18 19  1  0
 18 26  1  0
 18 17  1  0
 19 20  1  0
 20 21  1  0
 20 22  1  0
 21 28  1  0
 22 23  1  0
 22 24  1  0
 23 29  1  0
 24 25  1  0
 24 26  1  0
 25 30  1  0
 26 27  1  0
 27 31  1  0
  5  6  1  0
  5  7  1  0
  6 11  1  0
  7  8  1  0
  7  9  1  0
  8 12  1  0
  9 10  1  0
 10 13  1  0
M  END
> <minimizedAffinity>
-4.55963

> <CNNscore>
0.9060255885

> <CNNaffinity>
3.2123057842

> <CNN_VS>
2.9104311466

> <CNNaffinity_variance>
0.2302705497

$$$$



 31 32  0  0  0  0  0  0  0  0999 V2000
   -5.3182   -3.6591  -15.0672 O   0  0  0  0  0  0  0  0  0  0  0  0
   -2.2336   -3.4739  -16.9559 C   0  0  0  0  0  0  0  0  0  0  0  0
   -3.3288   -4.0153  -16.2131 O   0  0  0  0  0  0  0  0  0  0  0  0
   -4.2164   -3.0211  -15.7125 C   0  0  0  0  0  0  0  0  0  0  0  0
   -3.4742   -2.1319  -14.6846 C   0  0  0  0  0  0  0  0  0  0  0  0
   -4.3163   -1.0829  -14.1803 O   0  0  0  0  0  0  0  0  0  0  0  0
   -2.2167   -1.5420  -15.3518 C   0  0  0  0  0  0  0  0  0  0  0  0
   -1.4305   -0.8086  -14.4026 O   0  0  0  0  0  0  0  0  0  0  0  0
   -1.3582   -2.6282  -16.0265 C   0  0  0  0  0  0  0  0  0  0  0  0
   -0.2692   -2.0550  -16.7556 O   0  0  0  0  0  0  0  0  0  0  0  0
   -4.2498   -0.3094  -14.7635 H   0  0  0  0  0  0  0  0  0  0  0  0
   -1.1840   -1.4133  -13.6782 H   0  0  0  0  0  0  0  0  0  0  0  0
   -0.5017   -1.1426  -17.0044 H   0  0  0  0  0  0  0  0  0  0  0  0
   -0.7382   -4.2048  -18.7122 O   0  0  0  0  0  0  0  0  0  0  0  0
   -1.4460   -4.6468  -17.5521 C   0  0  0  0  0  0  0  0  0  0  0  0
   -0.5059   -5.0024  -19.2177 H   0  0  0  0  0  0  0  0  0  0  0  0
   -5.6631   -4.9007  -15.7097 C   0  0  0  0  0  0  0  0  0  0  0  0
   -7.1906   -4.9906  -15.8687 C   0  0  0  0  0  0  0  0  0  0  0  0
   -7.5811   -4.1276  -16.9409 O   0  0  0  0  0  0  0  0  0  0  0  0
   -8.9524   -4.1723  -17.2825 C   0  0  0  0  0  0  0  0  0  0  0  0
   -9.7583   -3.5626  -16.2767 O   0  0  0  0  0  0  0  0  0  0  0  0
   -9.4250   -5.5961  -17.6226 C   0  0  0  0  0  0  0  0  0  0  0  0
  -10.8280   -5.6145  -17.9110 O   0  0  0  0  0  0  0  0  0  0  0  0
   -9.1041   -6.5411  -16.4592 C   0  0  0  0  0  0  0  0  0  0  0  0
   -9.4330   -7.9020  -16.7708 O   0  0  0  0  0  0  0  0  0  0  0  0
   -7.6201   -6.4501  -16.0754 C   0  0  0  0  0  0  0  0  0  0  0  0
   -7.3563   -7.1838  -14.8692 O   0  0  0  0  0  0  0  0  0  0  0  0
   -9.7754   -4.1314  -15.4941 H   0  0  0  0  0  0  0  0  0  0  0  0
  -11.2635   -4.9973  -17.2936 H   0  0  0  0  0  0  0  0  0  0  0  0
   -8.9766   -8.1443  -17.5973 H   0  0  0  0  0  0  0  0  0  0  0  0
   -8.2063   -7.4369  -14.4674 H   0  0  0  0  0  0  0  0  0  0  0  0
 14 15  1  0
 14 16  1  0
  2  3  1  0
  2  9  1  0
  2 15  1  0
  3  4  1  0
  4  5  1  0
  4  1  1  0
  1 17  1  0
 18 19  1  0
 18 26  1  0
 18 17  1  0
 19 20  1  0
 20 21  1  0
 20 22  1  0
 21 28  1  0
 22 23  1  0
 22 24  1  0
 23 29  1  0
 24 25  1  0
 24 26  1  0
 25 30  1  0
 26 27  1  0
 27 31  1  0
  5  6  1  0
  5  7  1  0
  6 11  1  0
  7  8  1  0
  7  9  1  0
  8 12  1  0
  9 10  1  0
 10 13  1  0
M  END
> <minimizedAffinity>
-4.54337

> <CNNscore>
0.9001991749

> <CNNaffinity>
3.1811988354

> <CNN_VS>
2.8637125492

> <CNNaffinity_variance>
0.2833595574

$$$$



 31 32  0  0  0  0  0  0  0  0999 V2000
   -2.8001   -2.1788  -16.2739 O   0  0  0  0  0  0  0  0  0  0  0  0
   -4.9270   -5.1098  -16.3085 C   0  0  0  0  0  0  0  0  0  0  0  0
   -4.1737   -3.9856  -16.7701 O   0  0  0  0  0  0  0  0  0  0  0  0
   -3.6022   -3.2190  -15.7153 C   0  0  0  0  0  0  0  0  0  0  0  0
   -4.7297   -2.5857  -14.8632 C   0  0  0  0  0  0  0  0  0  0  0  0
   -4.2045   -1.8350  -13.7567 O   0  0  0  0  0  0  0  0  0  0  0  0
   -5.6643   -3.7040  -14.3628 C   0  0  0  0  0  0  0  0  0  0  0  0
   -6.7935   -3.1548  -13.6699 O   0  0  0  0  0  0  0  0  0  0  0  0
   -6.1371   -4.6170  -15.5095 C   0  0  0  0  0  0  0  0  0  0  0  0
   -6.8916   -5.7273  -15.0157 O   0  0  0  0  0  0  0  0  0  0  0  0
   -4.0837   -2.4262  -12.9960 H   0  0  0  0  0  0  0  0  0  0  0  0
   -7.2661   -2.5590  -14.2805 H   0  0  0  0  0  0  0  0  0  0  0  0
   -6.6314   -5.9003  -14.0933 H   0  0  0  0  0  0  0  0  0  0  0  0
   -5.7834   -7.2211  -17.1235 O   0  0  0  0  0  0  0  0  0  0  0  0
   -5.3600   -5.9201  -17.5363 C   0  0  0  0  0  0  0  0  0  0  0  0
   -5.7616   -7.7855  -17.9151 H   0  0  0  0  0  0  0  0  0  0  0  0
   -1.3950   -2.4699  -16.1544 C   0  0  0  0  0  0  0  0  0  0  0  0
   -0.6670   -1.2541  -15.5554 C   0  0  0  0  0  0  0  0  0  0  0  0
    0.7255   -1.3693  -15.8631 O   0  0  0  0  0  0  0  0  0  0  0  0
    1.5239   -0.2720  -15.4662 C   0  0  0  0  0  0  0  0  0  0  0  0
    1.6705   -0.2221  -14.0489 O   0  0  0  0  0  0  0  0  0  0  0  0
    1.0180    1.0600  -16.0459 C   0  0  0  0  0  0  0  0  0  0  0  0
    1.8154    2.1558  -15.5818 O   0  0  0  0  0  0  0  0  0  0  0  0
   -0.4521    1.2670  -15.6645 C   0  0  0  0  0  0  0  0  0  0  0  0
   -0.9992    2.4471  -16.2689 O   0  0  0  0  0  0  0  0  0  0  0  0
   -1.2969    0.0495  -16.0665 C   0  0  0  0  0  0  0  0  0  0  0  0
   -2.6298    0.1543  -15.5419 O   0  0  0  0  0  0  0  0  0  0  0  0
    0.8302    0.0462  -13.6509 H   0  0  0  0  0  0  0  0  0  0  0  0
    2.0368    1.9838  -14.6473 H   0  0  0  0  0  0  0  0  0  0  0  0
   -0.8583    2.3896  -17.2317 H   0  0  0  0  0  0  0  0  0  0  0  0
   -2.6562    0.8907  -14.9056 H   0  0  0  0  0  0  0  0  0  0  0  0
 14 15  1  0
 14 16  1  0
  2  3  1  0
  2  9  1  0
  2 15  1  0
  3  4  1  0
  4  5  1  0
  4  1  1  0
  1 17  1  0
 18 19  1  0
 18 26  1  0
 18 17  1  0
 19 20  1  0
 20 21  1  0
 20 22  1  0
 21 28  1  0
 22 23  1  0
 22 24  1  0
 23 29  1  0
 24 25  1  0
 24 26  1  0
 25 30  1  0
 26 27  1  0
 27 31  1  0
  5  6  1  0
  5  7  1  0
  6 11  1  0
  7  8  1  0
  7  9  1  0
  8 12  1  0
  9 10  1  0
 10 13  1  0
M  END
> <minimizedAffinity>
-6.17847

> <CNNscore>
0.8830022812

> <CNNaffinity>
3.0107581615

> <CNN_VS>
2.6585063934

> <CNNaffinity_variance>
0.5089852214

$$$$



 31 32  0  0  0  0  0  0  0  0999 V2000
   -5.4570   -4.4110  -15.1765 O   0  0  0  0  0  0  0  0  0  0  0  0
   -6.0511   -6.0101  -18.3711 C   0  0  0  0  0  0  0  0  0  0  0  0
   -5.7255   -5.0068  -17.4059 O   0  0  0  0  0  0  0  0  0  0  0  0
   -5.8898   -5.4442  -16.0611 C   0  0  0  0  0  0  0  0  0  0  0  0
   -7.3845   -5.7471  -15.7920 C   0  0  0  0  0  0  0  0  0  0  0  0
   -7.5981   -6.2348  -14.4577 O   0  0  0  0  0  0  0  0  0  0  0  0
   -7.8796   -6.7740  -16.8287 C   0  0  0  0  0  0  0  0  0  0  0  0
   -9.2904   -6.9949  -16.6962 O   0  0  0  0  0  0  0  0  0  0  0  0
   -7.5414   -6.3481  -18.2696 C   0  0  0  0  0  0  0  0  0  0  0  0
   -7.8840   -7.3698  -19.2102 O   0  0  0  0  0  0  0  0  0  0  0  0
   -7.4929   -7.2000  -14.4479 H   0  0  0  0  0  0  0  0  0  0  0  0
   -9.7456   -6.1403  -16.8139 H   0  0  0  0  0  0  0  0  0  0  0  0
   -7.8839   -8.2307  -18.7547 H   0  0  0  0  0  0  0  0  0  0  0  0
   -4.8534   -4.3144  -19.6142 O   0  0  0  0  0  0  0  0  0  0  0  0
   -5.6956   -5.4600  -19.7576 C   0  0  0  0  0  0  0  0  0  0  0  0
   -4.8946   -3.8310  -20.4569 H   0  0  0  0  0  0  0  0  0  0  0  0
   -5.2412   -3.1704  -15.8747 C   0  0  0  0  0  0  0  0  0  0  0  0
   -3.7316   -2.9436  -16.0659 C   0  0  0  0  0  0  0  0  0  0  0  0
   -3.5053   -2.5555  -17.4243 O   0  0  0  0  0  0  0  0  0  0  0  0
   -2.1708   -2.2105  -17.7389 C   0  0  0  0  0  0  0  0  0  0  0  0
   -1.3265   -3.3593  -17.7515 O   0  0  0  0  0  0  0  0  0  0  0  0
   -1.6241   -1.0968  -16.8294 C   0  0  0  0  0  0  0  0  0  0  0  0
   -0.2552   -0.8094  -17.1386 O   0  0  0  0  0  0  0  0  0  0  0  0
   -1.7668   -1.5098  -15.3602 C   0  0  0  0  0  0  0  0  0  0  0  0
   -1.3650   -0.4600  -14.4693 O   0  0  0  0  0  0  0  0  0  0  0  0
   -3.2131   -1.9194  -15.0464 C   0  0  0  0  0  0  0  0  0  0  0  0
   -3.3113   -2.4877  -13.7310 O   0  0  0  0  0  0  0  0  0  0  0  0
   -1.1963   -3.6689  -16.8440 H   0  0  0  0  0  0  0  0  0  0  0  0
    0.1859   -1.6566  -17.3371 H   0  0  0  0  0  0  0  0  0  0  0  0
   -1.8740    0.3407  -14.6927 H   0  0  0  0  0  0  0  0  0  0  0  0
   -2.4120   -2.6441  -13.3923 H   0  0  0  0  0  0  0  0  0  0  0  0
 14 15  1  0
 14 16  1  0
  2  3  1  0
  2  9  1  0
  2 15  1  0
  3  4  1  0
  4  5  1  0
  4  1  1  0
  1 17  1  0
 18 19  1  0
 18 26  1  0
 18 17  1  0
 19 20  1  0
 20 21  1  0
 20 22  1  0
 21 28  1  0
 22 23  1  0
 22 24  1  0
 23 29  1  0
 24 25  1  0
 24 26  1  0
 25 30  1  0
 26 27  1  0
 27 31  1  0
  5  6  1  0
  5  7  1  0
  6 11  1  0
  7  8  1  0
  7  9  1  0
  8 12  1  0
  9 10  1  0
 10 13  1  0
M  END
> <minimizedAffinity>
-4.15479

> <CNNscore>
0.8752821684

> <CNNaffinity>
3.7167854309

> <CNN_VS>
3.2532360554

> <CNNaffinity_variance>
0.0206727516

$$$$



 31 32  0  0  0  0  0  0  0  0999 V2000
   -7.1796   -5.1308  -16.3538 O   0  0  0  0  0  0  0  0  0  0  0  0
   -3.9183   -3.5644  -16.5168 C   0  0  0  0  0  0  0  0  0  0  0  0
   -4.9343   -4.5697  -16.5569 O   0  0  0  0  0  0  0  0  0  0  0  0
   -6.2229   -4.0830  -16.1972 C   0  0  0  0  0  0  0  0  0  0  0  0
   -6.2115   -3.6257  -14.7177 C   0  0  0  0  0  0  0  0  0  0  0  0
   -7.4804   -3.0844  -14.3169 O   0  0  0  0  0  0  0  0  0  0  0  0
   -5.0940   -2.5820  -14.5272 C   0  0  0  0  0  0  0  0  0  0  0  0
   -4.9642   -2.2180  -13.1461 O   0  0  0  0  0  0  0  0  0  0  0  0
   -3.7426   -3.0770  -15.0755 C   0  0  0  0  0  0  0  0  0  0  0  0
   -2.7476   -2.0511  -15.0162 O   0  0  0  0  0  0  0  0  0  0  0  0
   -7.5021   -2.1346  -14.5172 H   0  0  0  0  0  0  0  0  0  0  0  0
   -4.7715   -3.0257  -12.6344 H   0  0  0  0  0  0  0  0  0  0  0  0
   -3.1889   -1.1830  -15.0223 H   0  0  0  0  0  0  0  0  0  0  0  0
   -2.9252   -5.4160  -17.7170 O   0  0  0  0  0  0  0  0  0  0  0  0
   -2.6245   -4.1833  -17.0595 C   0  0  0  0  0  0  0  0  0  0  0  0
   -2.0899   -5.9101  -17.7784 H   0  0  0  0  0  0  0  0  0  0  0  0
   -6.6208   -6.4143  -16.0169 C   0  0  0  0  0  0  0  0  0  0  0  0
   -7.7467   -7.3661  -15.5774 C   0  0  0  0  0  0  0  0  0  0  0  0
   -7.2093   -8.6898  -15.4989 O   0  0  0  0  0  0  0  0  0  0  0  0
   -8.0982   -9.6737  -15.0081 C   0  0  0  0  0  0  0  0  0  0  0  0
   -9.1231   -9.9664  -15.9551 O   0  0  0  0  0  0  0  0  0  0  0  0
   -8.6692   -9.3102  -13.6268 C   0  0  0  0  0  0  0  0  0  0  0  0
   -9.6054  -10.2996  -13.1834 O   0  0  0  0  0  0  0  0  0  0  0  0
   -9.3347   -7.9308  -13.6870 C   0  0  0  0  0  0  0  0  0  0  0  0
   -9.7923   -7.5022  -12.3970 O   0  0  0  0  0  0  0  0  0  0  0  0
   -8.3689   -6.8832  -14.2595 C   0  0  0  0  0  0  0  0  0  0  0  0
   -9.0445   -5.6384  -14.4973 O   0  0  0  0  0  0  0  0  0  0  0  0
   -9.7339   -9.2175  -16.0052 H   0  0  0  0  0  0  0  0  0  0  0  0
  -10.1212  -10.5858  -13.9605 H   0  0  0  0  0  0  0  0  0  0  0  0
   -9.0389   -7.5367  -11.7794 H   0  0  0  0  0  0  0  0  0  0  0  0
  -10.0028   -5.7820  -14.4028 H   0  0  0  0  0  0  0  0  0  0  0  0
 14 15  1  0
 14 16  1  0
  2  3  1  0
  2  9  1  0
  2 15  1  0
  3  4  1  0
  4  5  1  0
  4  1  1  0
  1 17  1  0
 18 19  1  0
 18 26  1  0
 18 17  1  0
 19 20  1  0
 20 21  1  0
 20 22  1  0
 21 28  1  0
 22 23  1  0
 22 24  1  0
 23 29  1  0
 24 25  1  0
 24 26  1  0
 25 30  1  0
 26 27  1  0
 27 31  1  0
  5  6  1  0
  5  7  1  0
  6 11  1  0
  7  8  1  0
  7  9  1  0
  8 12  1  0
  9 10  1  0
 10 13  1  0
M  END
> <minimizedAffinity>
-4.46628

> <CNNscore>
0.8739001751

> <CNNaffinity>
2.9804632664

> <CNN_VS>
2.6046273708

> <CNNaffinity_variance>
0.4645258486

$$$$



 31 32  0  0  0  0  0  0  0  0999 V2000
   -2.7162   -2.0960  -16.3140 O   0  0  0  0  0  0  0  0  0  0  0  0
   -4.7946   -5.0617  -16.3307 C   0  0  0  0  0  0  0  0  0  0  0  0
   -4.0524   -3.9333  -16.7999 O   0  0  0  0  0  0  0  0  0  0  0  0
   -3.5100   -3.1395  -15.7498 C   0  0  0  0  0  0  0  0  0  0  0  0
   -4.6607   -2.5105  -14.9262 C   0  0  0  0  0  0  0  0  0  0  0  0
   -4.1651   -1.7326  -13.8249 O   0  0  0  0  0  0  0  0  0  0  0  0
   -5.5848   -3.6354  -14.4210 C   0  0  0  0  0  0  0  0  0  0  0  0
   -6.7335   -3.0932  -13.7551 O   0  0  0  0  0  0  0  0  0  0  0  0
   -6.0248   -4.5754  -15.5589 C   0  0  0  0  0  0  0  0  0  0  0  0
   -6.7689   -5.6894  -15.0577 O   0  0  0  0  0  0  0  0  0  0  0  0
   -4.0467   -2.3087  -13.0523 H   0  0  0  0  0  0  0  0  0  0  0  0
   -7.2061   -2.5156  -14.3831 H   0  0  0  0  0  0  0  0  0  0  0  0
   -6.5204   -5.8424  -14.1286 H   0  0  0  0  0  0  0  0  0  0  0  0
   -5.5651   -7.2132  -17.1260 O   0  0  0  0  0  0  0  0  0  0  0  0
   -5.1952   -5.8998  -17.5507 C   0  0  0  0  0  0  0  0  0  0  0  0
   -5.5210   -7.7832  -17.9126 H   0  0  0  0  0  0  0  0  0  0  0  0
   -1.5080   -2.6091  -16.9059 C   0  0  0  0  0  0  0  0  0  0  0  0
   -0.4155   -1.5266  -16.8655 C   0  0  0  0  0  0  0  0  0  0  0  0
   -1.0147   -0.2724  -17.2044 O   0  0  0  0  0  0  0  0  0  0  0  0
   -0.1585    0.8492  -17.1143 C   0  0  0  0  0  0  0  0  0  0  0  0
    0.8156    0.8438  -18.1554 O   0  0  0  0  0  0  0  0  0  0  0  0
    0.4795    0.9884  -15.7216 C   0  0  0  0  0  0  0  0  0  0  0  0
    1.3809    2.1009  -15.6805 O   0  0  0  0  0  0  0  0  0  0  0  0
    1.2100   -0.3078  -15.3534 C   0  0  0  0  0  0  0  0  0  0  0  0
    1.7348   -0.2642  -14.0193 O   0  0  0  0  0  0  0  0  0  0  0  0
    0.2772   -1.5193  -15.4954 C   0  0  0  0  0  0  0  0  0  0  0  0
    1.0047   -2.7478  -15.3397 O   0  0  0  0  0  0  0  0  0  0  0  0
    1.4605    0.1429  -17.9846 H   0  0  0  0  0  0  0  0  0  0  0  0
    1.8534    2.1286  -16.5335 H   0  0  0  0  0  0  0  0  0  0  0  0
    1.0035   -0.0514  -13.4110 H   0  0  0  0  0  0  0  0  0  0  0  0
    1.9575   -2.5476  -15.3471 H   0  0  0  0  0  0  0  0  0  0  0  0
 14 15  1  0
 14 16  1  0
  2  3  1  0
  2  9  1  0
  2 15  1  0
  3  4  1  0
  4  5  1  0
  4  1  1  0
  1 17  1  0
 18 19  1  0
 18 26  1  0
 18 17  1  0
 19 20  1  0
 20 21  1  0
 20 22  1  0
 21 28  1  0
 22 23  1  0
 22 24  1  0
 23 29  1  0
 24 25  1  0
 24 26  1  0
 25 30  1  0
 26 27  1  0
 27 31  1  0
  5  6  1  0
  5  7  1  0
  6 11  1  0
  7  8  1  0
  7  9  1  0
  8 12  1  0
  9 10  1  0
 10 13  1  0
M  END
> <minimizedAffinity>
-6.02149

> <CNNscore>
0.8727437258

> <CNNaffinity>
2.9977445602

> <CNN_VS>
2.6162626743

> <CNNaffinity_variance>
0.6413822770

$$$$



 31 32  0  0  0  0  0  0  0  0999 V2000
   -5.4758   -3.6014  -14.5951 O   0  0  0  0  0  0  0  0  0  0  0  0
   -7.1295   -6.5633  -15.8631 C   0  0  0  0  0  0  0  0  0  0  0  0
   -6.1460   -5.5411  -15.6840 O   0  0  0  0  0  0  0  0  0  0  0  0
   -6.5516   -4.5218  -14.7766 C   0  0  0  0  0  0  0  0  0  0  0  0
   -7.7719   -3.7652  -15.3566 C   0  0  0  0  0  0  0  0  0  0  0  0
   -8.2481   -2.7516  -14.4568 O   0  0  0  0  0  0  0  0  0  0  0  0
   -8.8880   -4.7817  -15.6654 C   0  0  0  0  0  0  0  0  0  0  0  0
   -9.9944   -4.1439  -16.3181 O   0  0  0  0  0  0  0  0  0  0  0  0
   -8.3766   -5.9596  -16.5156 C   0  0  0  0  0  0  0  0  0  0  0  0
   -9.3846   -6.9609  -16.6808 O   0  0  0  0  0  0  0  0  0  0  0  0
   -8.8936   -3.1422  -13.8457 H   0  0  0  0  0  0  0  0  0  0  0  0
   -9.6678   -3.7315  -17.1394 H   0  0  0  0  0  0  0  0  0  0  0  0
  -10.0134   -6.9007  -15.9396 H   0  0  0  0  0  0  0  0  0  0  0  0
   -6.8646   -7.4276  -18.1077 O   0  0  0  0  0  0  0  0  0  0  0  0
   -6.5130   -7.6584  -16.7419 C   0  0  0  0  0  0  0  0  0  0  0  0
   -6.7225   -8.2669  -18.5777 H   0  0  0  0  0  0  0  0  0  0  0  0
   -4.6076   -3.5666  -15.7433 C   0  0  0  0  0  0  0  0  0  0  0  0
   -3.2651   -2.9242  -15.3537 C   0  0  0  0  0  0  0  0  0  0  0  0
   -2.2697   -3.3696  -16.2799 O   0  0  0  0  0  0  0  0  0  0  0  0
   -0.9916   -2.7868  -16.1186 C   0  0  0  0  0  0  0  0  0  0  0  0
   -0.3477   -3.2652  -14.9400 O   0  0  0  0  0  0  0  0  0  0  0  0
   -1.0377   -1.2502  -16.1734 C   0  0  0  0  0  0  0  0  0  0  0  0
    0.2626   -0.6910  -15.9532 O   0  0  0  0  0  0  0  0  0  0  0  0
   -2.0315   -0.7234  -15.1321 C   0  0  0  0  0  0  0  0  0  0  0  0
   -2.1865    0.7001  -15.2145 O   0  0  0  0  0  0  0  0  0  0  0  0
   -3.4020   -1.3961  -15.2963 C   0  0  0  0  0  0  0  0  0  0  0  0
   -4.2759   -1.0518  -14.2097 O   0  0  0  0  0  0  0  0  0  0  0  0
   -0.7870   -2.8916  -14.1630 H   0  0  0  0  0  0  0  0  0  0  0  0
    0.7016   -1.2280  -15.2671 H   0  0  0  0  0  0  0  0  0  0  0  0
   -2.4349    0.9271  -16.1294 H   0  0  0  0  0  0  0  0  0  0  0  0
   -3.7534   -0.6045  -13.5206 H   0  0  0  0  0  0  0  0  0  0  0  0
 14 15  1  0
 14 16  1  0
  2  3  1  0
  2  9  1  0
  2 15  1  0
  3  4  1  0
  4  5  1  0
  4  1  1  0
  1 17  1  0
 18 19  1  0
 18 26  1  0
 18 17  1  0
 19 20  1  0
 20 21  1  0
 20 22  1  0
 21 28  1  0
 22 23  1  0
 22 24  1  0
 23 29  1  0
 24 25  1  0
 24 26  1  0
 25 30  1  0
 26 27  1  0
 27 31  1  0
  5  6  1  0
  5  7  1  0
  6 11  1  0
  7  8  1  0
  7  9  1  0
  8 12  1  0
  9 10  1  0
 10 13  1  0
M  END
> <minimizedAffinity>
-5.01340

> <CNNscore>
0.8591173291

> <CNNaffinity>
2.9487330914

> <CNN_VS>
2.5333077908

> <CNNaffinity_variance>
0.4263885021

$$$$



 31 32  0  0  0  0  0  0  0  0999 V2000
   -3.5993   -2.7915  -17.1115 O   0  0  0  0  0  0  0  0  0  0  0  0
   -6.7430   -3.9521  -15.7383 C   0  0  0  0  0  0  0  0  0  0  0  0
   -5.4636   -3.3204  -15.8301 O   0  0  0  0  0  0  0  0  0  0  0  0
   -4.8202   -3.5304  -17.0826 C   0  0  0  0  0  0  0  0  0  0  0  0
   -4.5042   -5.0361  -17.2586 C   0  0  0  0  0  0  0  0  0  0  0  0
   -3.8916   -5.3077  -18.5293 O   0  0  0  0  0  0  0  0  0  0  0  0
   -5.8093   -5.8407  -17.1047 C   0  0  0  0  0  0  0  0  0  0  0  0
   -5.5480   -7.2505  -17.1385 O   0  0  0  0  0  0  0  0  0  0  0  0
   -6.5661   -5.4714  -15.8151 C   0  0  0  0  0  0  0  0  0  0  0  0
   -7.8377   -6.1232  -15.7510 O   0  0  0  0  0  0  0  0  0  0  0  0
   -4.5834   -5.4669  -19.1919 H   0  0  0  0  0  0  0  0  0  0  0  0
   -4.9258   -7.4630  -16.4181 H   0  0  0  0  0  0  0  0  0  0  0  0
   -8.1304   -6.3333  -16.6558 H   0  0  0  0  0  0  0  0  0  0  0  0
   -6.3541   -3.1670  -13.4827 O   0  0  0  0  0  0  0  0  0  0  0  0
   -7.3801   -3.5298  -14.4089 C   0  0  0  0  0  0  0  0  0  0  0  0
   -6.7547   -3.1970  -12.5971 H   0  0  0  0  0  0  0  0  0  0  0  0
   -2.7986   -3.0435  -15.9417 C   0  0  0  0  0  0  0  0  0  0  0  0
   -2.2602   -1.7120  -15.3902 C   0  0  0  0  0  0  0  0  0  0  0  0
   -1.2376   -1.2418  -16.2735 O   0  0  0  0  0  0  0  0  0  0  0  0
   -0.7070    0.0304  -15.9592 C   0  0  0  0  0  0  0  0  0  0  0  0
    0.0985   -0.0188  -14.7838 O   0  0  0  0  0  0  0  0  0  0  0  0
   -1.7955    1.1139  -15.8734 C   0  0  0  0  0  0  0  0  0  0  0  0
   -1.2321    2.3771  -15.5011 O   0  0  0  0  0  0  0  0  0  0  0  0
   -2.8720    0.6895  -14.8681 C   0  0  0  0  0  0  0  0  0  0  0  0
   -3.9623    1.6205  -14.8288 O   0  0  0  0  0  0  0  0  0  0  0  0
   -3.4082   -0.7103  -15.2010 C   0  0  0  0  0  0  0  0  0  0  0  0
   -4.2719   -1.1900  -14.1584 O   0  0  0  0  0  0  0  0  0  0  0  0
   -0.4715   -0.1434  -14.0119 H   0  0  0  0  0  0  0  0  0  0  0  0
   -0.5391    2.2058  -14.8360 H   0  0  0  0  0  0  0  0  0  0  0  0
   -4.3057    1.7261  -15.7350 H   0  0  0  0  0  0  0  0  0  0  0  0
   -4.1937   -0.5949  -13.3918 H   0  0  0  0  0  0  0  0  0  0  0  0
 14 15  1  0
 14 16  1  0
  2  3  1  0
  2  9  1  0
  2 15  1  0
  3  4  1  0
  4  5  1  0
  4  1  1  0
  1 17  1  0
 18 19  1  0
 18 26  1  0
 18 17  1  0
 19 20  1  0
 20 21  1  0
 20 22  1  0
 21 28  1  0
 22 23  1  0
 22 24  1  0
 23 29  1  0
 24 25  1  0
 24 26  1  0
 25 30  1  0
 26 27  1  0
 27 31  1  0
  5  6  1  0
  5  7  1  0
  6 11  1  0
  7  8  1  0
  7  9  1  0
  8 12  1  0
  9 10  1  0
 10 13  1  0
M  END
> <minimizedAffinity>
-5.86823

> <CNNscore>
0.8461423516

> <CNNaffinity>
3.1097896099

> <CNN_VS>
2.6313247681

> <CNNaffinity_variance>
0.4202322662

$$$$



 31 32  0  0  0  0  0  0  0  0999 V2000
   -4.4994   -3.8622  -15.9005 O   0  0  0  0  0  0  0  0  0  0  0  0
   -7.4414   -5.9601  -15.6568 C   0  0  0  0  0  0  0  0  0  0  0  0
   -6.3418   -5.1307  -15.2729 O   0  0  0  0  0  0  0  0  0  0  0  0
   -5.5097   -4.7568  -16.3659 C   0  0  0  0  0  0  0  0  0  0  0  0
   -4.8342   -6.0173  -16.9600 C   0  0  0  0  0  0  0  0  0  0  0  0
   -4.0153   -5.6983  -18.0963 O   0  0  0  0  0  0  0  0  0  0  0  0
   -5.9268   -7.0319  -17.3488 C   0  0  0  0  0  0  0  0  0  0  0  0
   -5.3448   -8.2658  -17.7914 O   0  0  0  0  0  0  0  0  0  0  0  0
   -6.9099   -7.2928  -16.1922 C   0  0  0  0  0  0  0  0  0  0  0  0
   -7.9937   -8.1291  -16.6067 O   0  0  0  0  0  0  0  0  0  0  0  0
   -4.5592   -5.7200  -18.9004 H   0  0  0  0  0  0  0  0  0  0  0  0
   -4.7897   -8.6173  -17.0705 H   0  0  0  0  0  0  0  0  0  0  0  0
   -8.1095   -8.0412  -17.5697 H   0  0  0  0  0  0  0  0  0  0  0  0
   -8.0664   -7.4542  -13.8590 O   0  0  0  0  0  0  0  0  0  0  0  0
   -8.3265   -6.1666  -14.4217 C   0  0  0  0  0  0  0  0  0  0  0  0
   -8.8243   -7.6672  -13.2882 H   0  0  0  0  0  0  0  0  0  0  0  0
   -4.4237   -2.6772  -16.7150 C   0  0  0  0  0  0  0  0  0  0  0  0
   -3.3449   -1.7351  -16.1533 C   0  0  0  0  0  0  0  0  0  0  0  0
   -2.6872   -1.1003  -17.2540 O   0  0  0  0  0  0  0  0  0  0  0  0
   -1.7296   -0.1216  -16.9016 C   0  0  0  0  0  0  0  0  0  0  0  0
   -0.5652   -0.7156  -16.3324 O   0  0  0  0  0  0  0  0  0  0  0  0
   -2.3201    0.9783  -16.0028 C   0  0  0  0  0  0  0  0  0  0  0  0
   -1.3130    1.9226  -15.6207 O   0  0  0  0  0  0  0  0  0  0  0  0
   -2.9610    0.3461  -14.7621 C   0  0  0  0  0  0  0  0  0  0  0  0
   -3.6165    1.3241  -13.9430 O   0  0  0  0  0  0  0  0  0  0  0  0
   -3.9681   -0.7417  -15.1623 C   0  0  0  0  0  0  0  0  0  0  0  0
   -4.4258   -1.4660  -14.0096 O   0  0  0  0  0  0  0  0  0  0  0  0
   -0.7771   -1.0495  -15.4493 H   0  0  0  0  0  0  0  0  0  0  0  0
   -0.4909    1.4246  -15.4535 H   0  0  0  0  0  0  0  0  0  0  0  0
   -4.2546    1.8085  -14.4983 H   0  0  0  0  0  0  0  0  0  0  0  0
   -3.8704   -1.2213  -13.2483 H   0  0  0  0  0  0  0  0  0  0  0  0
 14 15  1  0
 14 16  1  0
  2  3  1  0
  2  9  1  0
  2 15  1  0
  3  4  1  0
  4  5  1  0
  4  1  1  0
  1 17  1  0
 18 19  1  0
 18 26  1  0
 18 17  1  0
 19 20  1  0
 20 21  1  0
 20 22  1  0
 21 28  1  0
 22 23  1  0
 22 24  1  0
 23 29  1  0
 24 25  1  0
 24 26  1  0
 25 30  1  0
 26 27  1  0
 27 31  1  0
  5  6  1  0
  5  7  1  0
  6 11  1  0
  7  8  1  0
  7  9  1  0
  8 12  1  0
  9 10  1  0
 10 13  1  0
M  END
> <minimizedAffinity>
-4.81857

> <CNNscore>
0.8215502501

> <CNNaffinity>
3.3797876835

> <CNN_VS>
2.7766654491

> <CNNaffinity_variance>
0.1275091767

$$$$



 31 32  0  0  0  0  0  0  0  0999 V2000
   -3.4569   -2.8848  -17.8207 O   0  0  0  0  0  0  0  0  0  0  0  0
   -0.1404   -2.2087  -16.5327 C   0  0  0  0  0  0  0  0  0  0  0  0
   -1.3222   -2.9222  -16.9047 O   0  0  0  0  0  0  0  0  0  0  0  0
   -2.3596   -2.0783  -17.3931 C   0  0  0  0  0  0  0  0  0  0  0  0
   -2.8367   -1.1337  -16.2626 C   0  0  0  0  0  0  0  0  0  0  0  0
   -3.8561   -0.2295  -16.7175 O   0  0  0  0  0  0  0  0  0  0  0  0
   -1.6240   -0.3526  -15.7205 C   0  0  0  0  0  0  0  0  0  0  0  0
   -1.9947    0.4468  -14.5890 O   0  0  0  0  0  0  0  0  0  0  0  0
   -0.4549   -1.2852  -15.3521 C   0  0  0  0  0  0  0  0  0  0  0  0
    0.7088   -0.5416  -14.9796 O   0  0  0  0  0  0  0  0  0  0  0  0
   -3.4386    0.5666  -17.0847 H   0  0  0  0  0  0  0  0  0  0  0  0
   -2.3576   -0.1444  -13.9033 H   0  0  0  0  0  0  0  0  0  0  0  0
    0.6667    0.3387  -15.3941 H   0  0  0  0  0  0  0  0  0  0  0  0
    0.7494   -3.6582  -14.8115 O   0  0  0  0  0  0  0  0  0  0  0  0
    0.9338   -3.2397  -16.1654 C   0  0  0  0  0  0  0  0  0  0  0  0
    1.5879   -4.0607  -14.5276 H   0  0  0  0  0  0  0  0  0  0  0  0
   -3.6028   -4.0599  -17.0015 C   0  0  0  0  0  0  0  0  0  0  0  0
   -5.0951   -4.3116  -16.7244 C   0  0  0  0  0  0  0  0  0  0  0  0
   -5.3529   -5.7086  -16.8945 O   0  0  0  0  0  0  0  0  0  0  0  0
   -6.6669   -6.1227  -16.5764 C   0  0  0  0  0  0  0  0  0  0  0  0
   -7.6057   -5.6614  -17.5452 O   0  0  0  0  0  0  0  0  0  0  0  0
   -7.0719   -5.7359  -15.1437 C   0  0  0  0  0  0  0  0  0  0  0  0
   -8.4246   -6.1215  -14.8725 O   0  0  0  0  0  0  0  0  0  0  0  0
   -6.8939   -4.2267  -14.9437 C   0  0  0  0  0  0  0  0  0  0  0  0
   -7.1611   -3.8325  -13.5907 O   0  0  0  0  0  0  0  0  0  0  0  0
   -5.4744   -3.7883  -15.3318 C   0  0  0  0  0  0  0  0  0  0  0  0
   -5.3614   -2.3565  -15.3306 O   0  0  0  0  0  0  0  0  0  0  0  0
   -7.7177   -4.7050  -17.4500 H   0  0  0  0  0  0  0  0  0  0  0  0
   -8.9455   -5.9561  -15.6807 H   0  0  0  0  0  0  0  0  0  0  0  0
   -6.5971   -4.3656  -13.0009 H   0  0  0  0  0  0  0  0  0  0  0  0
   -6.2533   -1.9746  -15.2492 H   0  0  0  0  0  0  0  0  0  0  0  0
 14 15  1  0
 14 16  1  0
  2  3  1  0
  2  9  1  0
  2 15  1  0
  3  4  1  0
  4  5  1  0
  4  1  1  0
  1 17  1  0
 18 19  1  0
 18 26  1  0
 18 17  1  0
 19 20  1  0
 20 21  1  0
 20 22  1  0
 21 28  1  0
 22 23  1  0
 22 24  1  0
 23 29  1  0
 24 25  1  0
 24 26  1  0
 25 30  1  0
 26 27  1  0
 27 31  1  0
  5  6  1  0
  5  7  1  0
  6 11  1  0
  7  8  1  0
  7  9  1  0
  8 12  1  0
  9 10  1  0
 10 13  1  0
M  END
> <minimizedAffinity>
-5.07277

> <CNNscore>
0.8147836924

> <CNNaffinity>
2.8630478382

> <CNN_VS>
2.3327646255

> <CNNaffinity_variance>
0.5638324022

$$$$



 31 32  0  0  0  0  0  0  0  0999 V2000
   -3.9267   -2.6026  -17.0932 O   0  0  0  0  0  0  0  0  0  0  0  0
   -6.5930   -5.0271  -16.7357 C   0  0  0  0  0  0  0  0  0  0  0  0
   -5.2826   -4.4791  -16.8998 O   0  0  0  0  0  0  0  0  0  0  0  0
   -5.2767   -3.0610  -17.0255 C   0  0  0  0  0  0  0  0  0  0  0  0
   -6.0156   -2.6512  -18.3232 C   0  0  0  0  0  0  0  0  0  0  0  0
   -6.0753   -1.2239  -18.4751 O   0  0  0  0  0  0  0  0  0  0  0  0
   -7.4343   -3.2522  -18.3002 C   0  0  0  0  0  0  0  0  0  0  0  0
   -8.1160   -3.0018  -19.5369 O   0  0  0  0  0  0  0  0  0  0  0  0
   -7.4162   -4.7626  -17.9999 C   0  0  0  0  0  0  0  0  0  0  0  0
   -8.7407   -5.2807  -17.8473 O   0  0  0  0  0  0  0  0  0  0  0  0
   -6.8660   -0.8858  -18.0243 H   0  0  0  0  0  0  0  0  0  0  0  0
   -7.5893   -3.3905  -20.2600 H   0  0  0  0  0  0  0  0  0  0  0  0
   -9.3332   -4.5568  -17.5765 H   0  0  0  0  0  0  0  0  0  0  0  0
   -7.0632   -6.8584  -15.2256 O   0  0  0  0  0  0  0  0  0  0  0  0
   -6.4429   -6.5300  -16.4704 C   0  0  0  0  0  0  0  0  0  0  0  0
   -6.7017   -7.7188  -14.9524 H   0  0  0  0  0  0  0  0  0  0  0  0
   -3.2045   -2.8981  -15.8831 C   0  0  0  0  0  0  0  0  0  0  0  0
   -2.5571   -1.6111  -15.3432 C   0  0  0  0  0  0  0  0  0  0  0  0
   -1.5106   -1.2258  -16.2395 O   0  0  0  0  0  0  0  0  0  0  0  0
   -0.8781    0.0018  -15.9363 C   0  0  0  0  0  0  0  0  0  0  0  0
   -0.0660   -0.1065  -14.7695 O   0  0  0  0  0  0  0  0  0  0  0  0
   -1.8772    1.1678  -15.8434 C   0  0  0  0  0  0  0  0  0  0  0  0
   -1.2121    2.3841  -15.4827 O   0  0  0  0  0  0  0  0  0  0  0  0
   -2.9724    0.8329  -14.8248 C   0  0  0  0  0  0  0  0  0  0  0  0
   -3.9857    1.8469  -14.7778 O   0  0  0  0  0  0  0  0  0  0  0  0
   -3.6207   -0.5216  -15.1459 C   0  0  0  0  0  0  0  0  0  0  0  0
   -4.5077   -0.9283  -14.0920 O   0  0  0  0  0  0  0  0  0  0  0  0
   -0.6355   -0.1833  -13.9910 H   0  0  0  0  0  0  0  0  0  0  0  0
   -0.5274    2.1612  -14.8244 H   0  0  0  0  0  0  0  0  0  0  0  0
   -4.3298    1.9760  -15.6806 H   0  0  0  0  0  0  0  0  0  0  0  0
   -4.3745   -0.3386  -13.3289 H   0  0  0  0  0  0  0  0  0  0  0  0
 14 15  1  0
 14 16  1  0
  2  3  1  0
  2  9  1  0
  2 15  1  0
  3  4  1  0
  4  5  1  0
  4  1  1  0
  1 17  1  0
 18 19  1  0
 18 26  1  0
 18 17  1  0
 19 20  1  0
 20 21  1  0
 20 22  1  0
 21 28  1  0
 22 23  1  0
 22 24  1  0
 23 29  1  0
 24 25  1  0
 24 26  1  0
 25 30  1  0
 26 27  1  0
 27 31  1  0
  5  6  1  0
  5  7  1  0
  6 11  1  0
  7  8  1  0
  7  9  1  0
  8 12  1  0
  9 10  1  0
 10 13  1  0
M  END
> <minimizedAffinity>
-5.28001

> <CNNscore>
0.7873135805

> <CNNaffinity>
3.0322721004

> <CNN_VS>
2.3873488903

> <CNNaffinity_variance>
0.4216020405

$$$$



 31 32  0  0  0  0  0  0  0  0999 V2000
   -2.6442   -2.8550  -18.0955 O   0  0  0  0  0  0  0  0  0  0  0  0
   -3.2863    0.2618  -16.3666 C   0  0  0  0  0  0  0  0  0  0  0  0
   -2.6118   -0.7431  -17.1279 O   0  0  0  0  0  0  0  0  0  0  0  0
   -3.3545   -1.9517  -17.2488 C   0  0  0  0  0  0  0  0  0  0  0  0
   -3.5269   -2.5976  -15.8519 C   0  0  0  0  0  0  0  0  0  0  0  0
   -4.3089   -3.8012  -15.9136 O   0  0  0  0  0  0  0  0  0  0  0  0
   -4.1845   -1.5735  -14.9069 C   0  0  0  0  0  0  0  0  0  0  0  0
   -4.2539   -2.0838  -13.5683 O   0  0  0  0  0  0  0  0  0  0  0  0
   -3.4501   -0.2198  -14.9220 C   0  0  0  0  0  0  0  0  0  0  0  0
   -4.1463    0.7607  -14.1476 O   0  0  0  0  0  0  0  0  0  0  0  0
   -5.2498   -3.5775  -15.8277 H   0  0  0  0  0  0  0  0  0  0  0  0
   -3.3477   -2.2917  -13.2735 H   0  0  0  0  0  0  0  0  0  0  0  0
   -5.0880    0.5166  -14.1026 H   0  0  0  0  0  0  0  0  0  0  0  0
   -1.5991    1.6222  -15.2906 O   0  0  0  0  0  0  0  0  0  0  0  0
   -2.4489    1.5444  -16.4369 C   0  0  0  0  0  0  0  0  0  0  0  0
   -1.3185    2.5501  -15.2141 H   0  0  0  0  0  0  0  0  0  0  0  0
   -1.4395   -2.2606  -18.6137 C   0  0  0  0  0  0  0  0  0  0  0  0
   -0.2366   -3.1584  -18.2764 C   0  0  0  0  0  0  0  0  0  0  0  0
   -0.2294   -3.3859  -16.8638 O   0  0  0  0  0  0  0  0  0  0  0  0
    0.7630   -4.2808  -16.4019 C   0  0  0  0  0  0  0  0  0  0  0  0
    2.0632   -3.7015  -16.4835 O   0  0  0  0  0  0  0  0  0  0  0  0
    0.6904   -5.6481  -17.1028 C   0  0  0  0  0  0  0  0  0  0  0  0
    1.7410   -6.5110  -16.6515 O   0  0  0  0  0  0  0  0  0  0  0  0
    0.7681   -5.4574  -18.6217 C   0  0  0  0  0  0  0  0  0  0  0  0
    0.6009   -6.6966  -19.3244 O   0  0  0  0  0  0  0  0  0  0  0  0
   -0.2897   -4.4527  -19.1005 C   0  0  0  0  0  0  0  0  0  0  0  0
   -0.0968   -4.1258  -20.4857 O   0  0  0  0  0  0  0  0  0  0  0  0
    2.3282   -3.6429  -17.4123 H   0  0  0  0  0  0  0  0  0  0  0  0
    2.5420   -5.9655  -16.5389 H   0  0  0  0  0  0  0  0  0  0  0  0
   -0.2360   -7.1021  -19.0322 H   0  0  0  0  0  0  0  0  0  0  0  0
    0.7629   -4.4820  -20.7721 H   0  0  0  0  0  0  0  0  0  0  0  0
 14 15  1  0
 14 16  1  0
  2  3  1  0
  2  9  1  0
  2 15  1  0
  3  4  1  0
  4  5  1  0
  4  1  1  0
  1 17  1  0
 18 19  1  0
 18 26  1  0
 18 17  1  0
 19 20  1  0
 20 21  1  0
 20 22  1  0
 21 28  1  0
 22 23  1  0
 22 24  1  0
 23 29  1  0
 24 25  1  0
 24 26  1  0
 25 30  1  0
 26 27  1  0
 27 31  1  0
  5  6  1  0
  5  7  1  0
  6 11  1  0
  7  8  1  0
  7  9  1  0
  8 12  1  0
  9 10  1  0
 10 13  1  0
M  END
> <minimizedAffinity>
-4.17806

> <CNNscore>
0.7676557302

> <CNNaffinity>
3.4290819168

> <CNN_VS>
2.6323544979

> <CNNaffinity_variance>
0.1926596165

$$$$



 31 32  0  0  0  0  0  0  0  0999 V2000
   -5.1030   -3.2762  -15.9906 O   0  0  0  0  0  0  0  0  0  0  0  0
   -6.2506   -6.7002  -16.2640 C   0  0  0  0  0  0  0  0  0  0  0  0
   -5.7006   -5.4303  -16.6232 O   0  0  0  0  0  0  0  0  0  0  0  0
   -5.7526   -4.4751  -15.5688 C   0  0  0  0  0  0  0  0  0  0  0  0
   -7.2294   -4.1571  -15.2280 C   0  0  0  0  0  0  0  0  0  0  0  0
   -7.3371   -3.2281  -14.1375 O   0  0  0  0  0  0  0  0  0  0  0  0
   -7.9578   -5.4726  -14.8913 C   0  0  0  0  0  0  0  0  0  0  0  0
   -9.3588   -5.2438  -14.6873 O   0  0  0  0  0  0  0  0  0  0  0  0
   -7.7470   -6.5433  -15.9782 C   0  0  0  0  0  0  0  0  0  0  0  0
   -8.3129   -7.7987  -15.5913 O   0  0  0  0  0  0  0  0  0  0  0  0
   -7.3420   -3.7168  -13.2985 H   0  0  0  0  0  0  0  0  0  0  0  0
   -9.7245   -4.8460  -15.4994 H   0  0  0  0  0  0  0  0  0  0  0  0
   -8.3566   -7.8388  -14.6192 H   0  0  0  0  0  0  0  0  0  0  0  0
   -6.8502   -8.8073  -17.2915 O   0  0  0  0  0  0  0  0  0  0  0  0
   -6.0020   -7.6655  -17.4293 C   0  0  0  0  0  0  0  0  0  0  0  0
   -6.4688   -9.5067  -17.8492 H   0  0  0  0  0  0  0  0  0  0  0  0
   -4.0031   -2.9360  -15.1259 C   0  0  0  0  0  0  0  0  0  0  0  0
   -3.3741   -1.6112  -15.5906 C   0  0  0  0  0  0  0  0  0  0  0  0
   -4.1420   -0.5346  -15.0442 O   0  0  0  0  0  0  0  0  0  0  0  0
   -3.6319    0.7595  -15.2974 C   0  0  0  0  0  0  0  0  0  0  0  0
   -3.7902    1.1212  -16.6674 O   0  0  0  0  0  0  0  0  0  0  0  0
   -2.1794    0.9206  -14.8174 C   0  0  0  0  0  0  0  0  0  0  0  0
   -1.6762    2.2232  -15.1369 O   0  0  0  0  0  0  0  0  0  0  0  0
   -1.3004   -0.1640  -15.4501 C   0  0  0  0  0  0  0  0  0  0  0  0
    0.0441   -0.1189  -14.9527 O   0  0  0  0  0  0  0  0  0  0  0  0
   -1.8903   -1.5595  -15.1997 C   0  0  0  0  0  0  0  0  0  0  0  0
   -1.1808   -2.5583  -15.9493 O   0  0  0  0  0  0  0  0  0  0  0  0
   -3.1749    0.6044  -17.2065 H   0  0  0  0  0  0  0  0  0  0  0  0
   -2.0195    2.4633  -16.0180 H   0  0  0  0  0  0  0  0  0  0  0  0
    0.0111   -0.1726  -13.9799 H   0  0  0  0  0  0  0  0  0  0  0  0
   -0.5908   -2.1112  -16.5817 H   0  0  0  0  0  0  0  0  0  0  0  0
 14 15  1  0
 14 16  1  0
  2  3  1  0
  2  9  1  0
  2 15  1  0
  3  4  1  0
  4  5  1  0
  4  1  1  0
  1 17  1  0
 18 19  1  0
 18 26  1  0
 18 17  1  0
 19 20  1  0
 20 21  1  0
 20 22  1  0
 21 28  1  0
 22 23  1  0
 22 24  1  0
 23 29  1  0
 24 25  1  0
 24 26  1  0
 25 30  1  0
 26 27  1  0
 27 31  1  0
  5  6  1  0
  5  7  1  0
  6 11  1  0
  7  8  1  0
  7  9  1  0
  8 12  1  0
  9 10  1  0
 10 13  1  0
M  END
> <minimizedAffinity>
-5.03392

> <CNNscore>
0.7494895458

> <CNNaffinity>
2.6518633366

> <CNN_VS>
1.9875438213

> <CNNaffinity_variance>
0.8956281543

$$$$



 31 32  0  0  0  0  0  0  0  0999 V2000
   -4.6070   -5.4061  -16.8089 O   0  0  0  0  0  0  0  0  0  0  0  0
   -7.8738   -6.5387  -15.7315 C   0  0  0  0  0  0  0  0  0  0  0  0
   -6.5430   -6.0184  -15.6801 O   0  0  0  0  0  0  0  0  0  0  0  0
   -5.8870   -6.0232  -16.9436 C   0  0  0  0  0  0  0  0  0  0  0  0
   -5.6965   -7.4828  -17.4248 C   0  0  0  0  0  0  0  0  0  0  0  0
   -5.0760   -7.5411  -18.7191 O   0  0  0  0  0  0  0  0  0  0  0  0
   -7.0694   -8.1821  -17.4514 C   0  0  0  0  0  0  0  0  0  0  0  0
   -6.9290   -9.5724  -17.7741 O   0  0  0  0  0  0  0  0  0  0  0  0
   -7.8256   -8.0195  -16.1196 C   0  0  0  0  0  0  0  0  0  0  0  0
   -9.1496   -8.5544  -16.2022 O   0  0  0  0  0  0  0  0  0  0  0  0
   -5.7611   -7.4985  -19.4059 H   0  0  0  0  0  0  0  0  0  0  0  0
   -6.3465   -9.9830  -17.1082 H   0  0  0  0  0  0  0  0  0  0  0  0
   -9.4352   -8.5472  -17.1333 H   0  0  0  0  0  0  0  0  0  0  0  0
   -8.2738   -7.5045  -13.5492 O   0  0  0  0  0  0  0  0  0  0  0  0
   -8.5075   -6.3433  -14.3488 C   0  0  0  0  0  0  0  0  0  0  0  0
   -8.9186   -7.4763  -12.8218 H   0  0  0  0  0  0  0  0  0  0  0  0
   -4.5495   -4.1462  -17.5035 C   0  0  0  0  0  0  0  0  0  0  0  0
   -4.3399   -3.0087  -16.4891 C   0  0  0  0  0  0  0  0  0  0  0  0
   -3.2387   -3.3582  -15.6452 O   0  0  0  0  0  0  0  0  0  0  0  0
   -2.8510   -2.3648  -14.7167 C   0  0  0  0  0  0  0  0  0  0  0  0
   -3.8168   -2.2197  -13.6780 O   0  0  0  0  0  0  0  0  0  0  0  0
   -2.5219   -1.0247  -15.3964 C   0  0  0  0  0  0  0  0  0  0  0  0
   -2.1858   -0.0271  -14.4249 O   0  0  0  0  0  0  0  0  0  0  0  0
   -3.7133   -0.5669  -16.2452 C   0  0  0  0  0  0  0  0  0  0  0  0
   -3.4164    0.6277  -16.9813 O   0  0  0  0  0  0  0  0  0  0  0  0
   -4.1461   -1.6721  -17.2194 C   0  0  0  0  0  0  0  0  0  0  0  0
   -5.3744   -1.3237  -17.8773 O   0  0  0  0  0  0  0  0  0  0  0  0
   -4.6090   -1.7953  -14.0366 H   0  0  0  0  0  0  0  0  0  0  0  0
   -2.7761   -0.1522  -13.6582 H   0  0  0  0  0  0  0  0  0  0  0  0
   -2.6108    0.4696  -17.5068 H   0  0  0  0  0  0  0  0  0  0  0  0
   -5.7514   -0.5413  -17.4374 H   0  0  0  0  0  0  0  0  0  0  0  0
 14 15  1  0
 14 16  1  0
  2  3  1  0
  2  9  1  0
  2 15  1  0
  3  4  1  0
  4  5  1  0
  4  1  1  0
  1 17  1  0
 18 19  1  0
 18 26  1  0
 18 17  1  0
 19 20  1  0
 20 21  1  0
 20 22  1  0
 21 28  1  0
 22 23  1  0
 22 24  1  0
 23 29  1  0
 24 25  1  0
 24 26  1  0
 25 30  1  0
 26 27  1  0
 27 31  1  0
  5  6  1  0
  5  7  1  0
  6 11  1  0
  7  8  1  0
  7  9  1  0
  8 12  1  0
  9 10  1  0
 10 13  1  0
M  END
> <minimizedAffinity>
-4.69958

> <CNNscore>
0.7417740822

> <CNNaffinity>
3.3466053009

> <CNN_VS>
2.4824249744

> <CNNaffinity_variance>
0.1110176221

$$$$



 31 32  0  0  0  0  0  0  0  0999 V2000
   -1.5998   -2.9520  -15.5439 O   0  0  0  0  0  0  0  0  0  0  0  0
    1.0979   -0.5553  -15.8507 C   0  0  0  0  0  0  0  0  0  0  0  0
   -0.1868   -1.1079  -15.5530 O   0  0  0  0  0  0  0  0  0  0  0  0
   -0.3252   -2.4645  -15.9622 C   0  0  0  0  0  0  0  0  0  0  0  0
   -0.2312   -2.5539  -17.5054 C   0  0  0  0  0  0  0  0  0  0  0  0
   -0.3219   -3.9111  -17.9676 O   0  0  0  0  0  0  0  0  0  0  0  0
    1.0945   -1.9148  -17.9620 C   0  0  0  0  0  0  0  0  0  0  0  0
    1.1717   -1.8643  -19.3932 O   0  0  0  0  0  0  0  0  0  0  0  0
    1.2905   -0.5069  -17.3693 C   0  0  0  0  0  0  0  0  0  0  0  0
    2.5814    0.0195  -17.6895 O   0  0  0  0  0  0  0  0  0  0  0  0
    0.5650   -4.3061  -17.9799 H   0  0  0  0  0  0  0  0  0  0  0  0
    0.4107   -1.3503  -19.7220 H   0  0  0  0  0  0  0  0  0  0  0  0
    3.1911   -0.7210  -17.8576 H   0  0  0  0  0  0  0  0  0  0  0  0
    2.5026    1.1371  -14.8419 O   0  0  0  0  0  0  0  0  0  0  0  0
    1.1593    0.8474  -15.2342 C   0  0  0  0  0  0  0  0  0  0  0  0
    2.4552    1.8725  -14.2074 H   0  0  0  0  0  0  0  0  0  0  0  0
   -2.4442   -1.8881  -15.0660 C   0  0  0  0  0  0  0  0  0  0  0  0
   -3.8831   -2.1109  -15.5628 C   0  0  0  0  0  0  0  0  0  0  0  0
   -3.8216   -2.6504  -16.8865 O   0  0  0  0  0  0  0  0  0  0  0  0
   -5.0678   -3.0078  -17.4508 C   0  0  0  0  0  0  0  0  0  0  0  0
   -5.8400   -1.8545  -17.7772 O   0  0  0  0  0  0  0  0  0  0  0  0
   -5.8468   -3.9991  -16.5696 C   0  0  0  0  0  0  0  0  0  0  0  0
   -7.1252   -4.2981  -17.1427 O   0  0  0  0  0  0  0  0  0  0  0  0
   -6.0130   -3.4206  -15.1599 C   0  0  0  0  0  0  0  0  0  0  0  0
   -6.6441   -4.3531  -14.2714 O   0  0  0  0  0  0  0  0  0  0  0  0
   -4.6551   -3.0010  -14.5786 C   0  0  0  0  0  0  0  0  0  0  0  0
   -4.8245   -2.2855  -13.3448 O   0  0  0  0  0  0  0  0  0  0  0  0
   -6.1532   -1.4395  -16.9612 H   0  0  0  0  0  0  0  0  0  0  0  0
   -7.4762   -3.4726  -17.5261 H   0  0  0  0  0  0  0  0  0  0  0  0
   -6.1323   -5.1826  -14.2865 H   0  0  0  0  0  0  0  0  0  0  0  0
   -5.7688   -2.0760  -13.2343 H   0  0  0  0  0  0  0  0  0  0  0  0
 14 15  1  0
 14 16  1  0
  2  3  1  0
  2  9  1  0
  2 15  1  0
  3  4  1  0
  4  5  1  0
  4  1  1  0
  1 17  1  0
 18 19  1  0
 18 26  1  0
 18 17  1  0
 19 20  1  0
 20 21  1  0
 20 22  1  0
 21 28  1  0
 22 23  1  0
 22 24  1  0
 23 29  1  0
 24 25  1  0
 24 26  1  0
 25 30  1  0
 26 27  1  0
 27 31  1  0
  5  6  1  0
  5  7  1  0
  6 11  1  0
  7  8  1  0
  7  9  1  0
  8 12  1  0
  9 10  1  0
 10 13  1  0
M  END
> <minimizedAffinity>
-4.57817

> <CNNscore>
0.7265450358

> <CNNaffinity>
2.7407095432

> <CNN_VS>
1.9912489653

> <CNNaffinity_variance>
0.6774215698

$$$$



 31 32  0  0  0  0  0  0  0  0999 V2000
   -2.2756   -2.0504  -15.0826 O   0  0  0  0  0  0  0  0  0  0  0  0
    0.8250   -0.3070  -15.7629 C   0  0  0  0  0  0  0  0  0  0  0  0
   -0.1195   -1.1877  -15.1492 O   0  0  0  0  0  0  0  0  0  0  0  0
   -1.4306   -1.0749  -15.6925 C   0  0  0  0  0  0  0  0  0  0  0  0
   -1.9949    0.3371  -15.3994 C   0  0  0  0  0  0  0  0  0  0  0  0
   -3.3027    0.5171  -15.9660 O   0  0  0  0  0  0  0  0  0  0  0  0
   -1.0160    1.3901  -15.9537 C   0  0  0  0  0  0  0  0  0  0  0  0
   -1.4354    2.7150  -15.5991 O   0  0  0  0  0  0  0  0  0  0  0  0
    0.4274    1.1440  -15.4762 C   0  0  0  0  0  0  0  0  0  0  0  0
    1.3455    2.0436  -16.1034 O   0  0  0  0  0  0  0  0  0  0  0  0
   -3.2161    0.8385  -16.8781 H   0  0  0  0  0  0  0  0  0  0  0  0
   -1.4848    2.7694  -14.6265 H   0  0  0  0  0  0  0  0  0  0  0  0
    0.9678    2.3398  -16.9508 H   0  0  0  0  0  0  0  0  0  0  0  0
    2.0897   -0.9394  -13.7994 O   0  0  0  0  0  0  0  0  0  0  0  0
    2.2098   -0.6311  -15.1896 C   0  0  0  0  0  0  0  0  0  0  0  0
    2.9780   -0.8449  -13.4152 H   0  0  0  0  0  0  0  0  0  0  0  0
   -2.4643   -3.1960  -15.9342 C   0  0  0  0  0  0  0  0  0  0  0  0
   -3.9685   -3.4785  -16.0905 C   0  0  0  0  0  0  0  0  0  0  0  0
   -4.1313   -4.8541  -16.4486 O   0  0  0  0  0  0  0  0  0  0  0  0
   -5.4699   -5.3014  -16.5325 C   0  0  0  0  0  0  0  0  0  0  0  0
   -6.1300   -4.7540  -17.6715 O   0  0  0  0  0  0  0  0  0  0  0  0
   -6.2526   -5.0534  -15.2316 C   0  0  0  0  0  0  0  0  0  0  0  0
   -7.6169   -5.4680  -15.3683 O   0  0  0  0  0  0  0  0  0  0  0  0
   -6.1781   -3.5692  -14.8561 C   0  0  0  0  0  0  0  0  0  0  0  0
   -6.8070   -3.3058  -13.5942 O   0  0  0  0  0  0  0  0  0  0  0  0
   -4.7198   -3.0907  -14.8089 C   0  0  0  0  0  0  0  0  0  0  0  0
   -4.6527   -1.6650  -14.6484 O   0  0  0  0  0  0  0  0  0  0  0  0
   -6.2910   -3.8114  -17.5240 H   0  0  0  0  0  0  0  0  0  0  0  0
   -7.9085   -5.2289  -16.2681 H   0  0  0  0  0  0  0  0  0  0  0  0
   -6.4050   -3.8902  -12.9255 H   0  0  0  0  0  0  0  0  0  0  0  0
   -5.5448   -1.2959  -14.7747 H   0  0  0  0  0  0  0  0  0  0  0  0
 14 15  1  0
 14 16  1  0
  2  3  1  0
  2  9  1  0
  2 15  1  0
  3  4  1  0
  4  5  1  0
  4  1  1  0
  1 17  1  0
 18 19  1  0
 18 26  1  0
 18 17  1  0
 19 20  1  0
 20 21  1  0
 20 22  1  0
 21 28  1  0
 22 23  1  0
 22 24  1  0
 23 29  1  0
 24 25  1  0
 24 26  1  0
 25 30  1  0
 26 27  1  0
 27 31  1  0
  5  6  1  0
  5  7  1  0
  6 11  1  0
  7  8  1  0
  7  9  1  0
  8 12  1  0
  9 10  1  0
 10 13  1  0
M  END
> <minimizedAffinity>
-6.58884

> <CNNscore>
0.6941534281

> <CNNaffinity>
2.7986786366

> <CNN_VS>
1.9427124262

> <CNNaffinity_variance>
0.8384868503

$$$$



 31 32  0  0  0  0  0  0  0  0999 V2000
   -6.6215   -4.9611  -16.0964 O   0  0  0  0  0  0  0  0  0  0  0  0
  -10.1989   -4.5477  -15.7129 C   0  0  0  0  0  0  0  0  0  0  0  0
   -8.8020   -4.2438  -15.7382 O   0  0  0  0  0  0  0  0  0  0  0  0
   -7.9833   -5.3783  -16.0017 C   0  0  0  0  0  0  0  0  0  0  0  0
   -8.1203   -6.3981  -14.8444 C   0  0  0  0  0  0  0  0  0  0  0  0
   -7.3449   -7.5836  -15.0834 O   0  0  0  0  0  0  0  0  0  0  0  0
   -9.6092   -6.7528  -14.6662 C   0  0  0  0  0  0  0  0  0  0  0  0
   -9.7999   -7.6016  -13.5260 O   0  0  0  0  0  0  0  0  0  0  0  0
  -10.4914   -5.4960  -14.5464 C   0  0  0  0  0  0  0  0  0  0  0  0
  -11.8809   -5.8341  -14.5178 O   0  0  0  0  0  0  0  0  0  0  0  0
   -7.8777   -8.2195  -15.5879 H   0  0  0  0  0  0  0  0  0  0  0  0
   -9.4604   -7.1363  -12.7389 H   0  0  0  0  0  0  0  0  0  0  0  0
  -12.0056   -6.6934  -14.9588 H   0  0  0  0  0  0  0  0  0  0  0  0
  -10.6729   -2.3805  -16.6792 O   0  0  0  0  0  0  0  0  0  0  0  0
  -10.9636   -3.2267  -15.5650 C   0  0  0  0  0  0  0  0  0  0  0  0
  -10.9186   -1.4775  -16.4150 H   0  0  0  0  0  0  0  0  0  0  0  0
   -6.1820   -4.3062  -14.8918 C   0  0  0  0  0  0  0  0  0  0  0  0
   -4.9269   -3.4682  -15.1904 C   0  0  0  0  0  0  0  0  0  0  0  0
   -4.7896   -3.3572  -16.6102 O   0  0  0  0  0  0  0  0  0  0  0  0
   -3.7332   -2.5273  -17.0512 C   0  0  0  0  0  0  0  0  0  0  0  0
   -2.4638   -3.1292  -16.8081 O   0  0  0  0  0  0  0  0  0  0  0  0
   -3.8237   -1.1059  -16.4702 C   0  0  0  0  0  0  0  0  0  0  0  0
   -2.7114   -0.3084  -16.8929 O   0  0  0  0  0  0  0  0  0  0  0  0
   -3.8846   -1.1736  -14.9401 C   0  0  0  0  0  0  0  0  0  0  0  0
   -4.0736    0.1225  -14.3557 O   0  0  0  0  0  0  0  0  0  0  0  0
   -5.0111   -2.1100  -14.4796 C   0  0  0  0  0  0  0  0  0  0  0  0
   -4.9498   -2.3271  -13.0612 O   0  0  0  0  0  0  0  0  0  0  0  0
   -2.2827   -3.1181  -15.8577 H   0  0  0  0  0  0  0  0  0  0  0  0
   -1.9211   -0.8805  -16.8898 H   0  0  0  0  0  0  0  0  0  0  0  0
   -4.8688    0.5229  -14.7527 H   0  0  0  0  0  0  0  0  0  0  0  0
   -4.1076   -1.9695  -12.7282 H   0  0  0  0  0  0  0  0  0  0  0  0
 14 15  1  0
 14 16  1  0
  2  3  1  0
  2  9  1  0
  2 15  1  0
  3  4  1  0
  4  5  1  0
  4  1  1  0
  1 17  1  0
 18 19  1  0
 18 26  1  0
 18 17  1  0
 19 20  1  0
 20 21  1  0
 20 22  1  0
 21 28  1  0
 22 23  1  0
 22 24  1  0
 23 29  1  0
 24 25  1  0
 24 26  1  0
 25 30  1  0
 26 27  1  0
 27 31  1  0
  5  6  1  0
  5  7  1  0
  6 11  1  0
  7  8  1  0
  7  9  1  0
  8 12  1  0
  9 10  1  0
 10 13  1  0
M  END
> <minimizedAffinity>
-4.42339

> <CNNscore>
0.6891266108

> <CNNaffinity>
3.0708439350

> <CNN_VS>
2.1162002087

> <CNNaffinity_variance>
0.3329700232

$$$$
