


 31 32  0  0  0  0  0  0  0  0999 V2000
    5.6743  -16.4030    7.6238 O   0  0  0  0  0  0  0  0  0  0  0  0
    8.3023  -15.5003    9.9464 C   0  0  0  0  0  0  0  0  0  0  0  0
    7.6455  -16.0507    8.8018 O   0  0  0  0  0  0  0  0  0  0  0  0
    6.2295  -15.9083    8.8421 C   0  0  0  0  0  0  0  0  0  0  0  0
    5.6584  -16.7260   10.0268 C   0  0  0  0  0  0  0  0  0  0  0  0
    4.2335  -16.5805   10.1377 O   0  0  0  0  0  0  0  0  0  0  0  0
    6.3510  -16.2715   11.3261 C   0  0  0  0  0  0  0  0  0  0  0  0
    5.9430  -17.0849   12.4346 O   0  0  0  0  0  0  0  0  0  0  0  0
    7.8856  -16.2818   11.1959 C   0  0  0  0  0  0  0  0  0  0  0  0
    8.5119  -15.7309   12.3579 O   0  0  0  0  0  0  0  0  0  0  0  0
    4.0316  -15.8078   10.6899 H   0  0  0  0  0  0  0  0  0  0  0  0
    6.1669  -18.0122   12.2315 H   0  0  0  0  0  0  0  0  0  0  0  0
    7.8867  -15.1268   12.7968 H   0  0  0  0  0  0  0  0  0  0  0  0
   10.3132  -14.3108    9.3167 O   0  0  0  0  0  0  0  0  0  0  0  0
    9.8144  -15.5915    9.7082 C   0  0  0  0  0  0  0  0  0  0  0  0
   11.1768  -14.4645    8.8969 H   0  0  0  0  0  0  0  0  0  0  0  0
    6.6973  -16.8784    6.7289 C   0  0  0  0  0  0  0  0  0  0  0  0
    6.1622  -16.8725    5.2865 C   0  0  0  0  0  0  0  0  0  0  0  0
    6.5408  -18.1034    4.6631 O   0  0  0  0  0  0  0  0  0  0  0  0
    6.0359  -18.2985    3.3569 C   0  0  0  0  0  0  0  0  0  0  0  0
    6.6738  -17.4344    2.4192 O   0  0  0  0  0  0  0  0  0  0  0  0
    4.5027  -18.1888    3.2994 C   0  0  0  0  0  0  0  0  0  0  0  0
    4.0290  -18.3375    1.9558 O   0  0  0  0  0  0  0  0  0  0  0  0
    4.0566  -16.8419    3.8795 C   0  0  0  0  0  0  0  0  0  0  0  0
    2.6277  -16.7349    3.9424 O   0  0  0  0  0  0  0  0  0  0  0  0
    4.6463  -16.6291    5.2812 C   0  0  0  0  0  0  0  0  0  0  0  0
    4.3918  -15.2948    5.7475 O   0  0  0  0  0  0  0  0  0  0  0  0
    6.3734  -16.5265    2.5671 H   0  0  0  0  0  0  0  0  0  0  0  0
    4.6596  -17.8794    1.3689 H   0  0  0  0  0  0  0  0  0  0  0  0
    2.2867  -17.4986    4.4430 H   0  0  0  0  0  0  0  0  0  0  0  0
    4.0495  -14.7662    5.0050 H   0  0  0  0  0  0  0  0  0  0  0  0
 14 15  1  0
 14 16  1  0
  2  3  1  0
  2  9  1  0
  2 15  1  0
  3  4  1  0
  4  5  1  0
  4  1  1  0
  1 17  1  0
 18 19  1  0
 18 26  1  0
 18 17  1  0
 19 20  1  0
 20 21  1  0
 20 22  1  0
 21 28  1  0
 22 23  1  0
 22 24  1  0
 23 29  1  0
 24 25  1  0
 24 26  1  0
 25 30  1  0
 26 27  1  0
 27 31  1  0
  5  6  1  0
  5  7  1  0
  6 11  1  0
  7  8  1  0
  7  9  1  0
  8 12  1  0
  9 10  1  0
 10 13  1  0
M  END
> <minimizedAffinity>
-5.63248

> <CNNscore>
0.9486470222

> <CNNaffinity>
3.1200923920

> <CNN_VS>
2.9598662853

> <CNNaffinity_variance>
0.5619502068

$$$$



 31 32  0  0  0  0  0  0  0  0999 V2000
    4.9242  -18.2021    4.2746 O   0  0  0  0  0  0  0  0  0  0  0  0
    7.8177  -17.6521    6.3819 C   0  0  0  0  0  0  0  0  0  0  0  0
    6.8039  -18.3283    5.6341 O   0  0  0  0  0  0  0  0  0  0  0  0
    5.8365  -17.4478    5.0722 C   0  0  0  0  0  0  0  0  0  0  0  0
    5.0531  -16.7438    6.2074 C   0  0  0  0  0  0  0  0  0  0  0  0
    4.0912  -15.8095    5.6919 O   0  0  0  0  0  0  0  0  0  0  0  0
    6.0546  -16.0312    7.1367 C   0  0  0  0  0  0  0  0  0  0  0  0
    5.3856  -15.4661    8.2725 O   0  0  0  0  0  0  0  0  0  0  0  0
    7.1831  -16.9720    7.5986 C   0  0  0  0  0  0  0  0  0  0  0  0
    8.1769  -16.2670    8.3478 O   0  0  0  0  0  0  0  0  0  0  0  0
    4.5164  -14.9450    5.5704 H   0  0  0  0  0  0  0  0  0  0  0  0
    4.9283  -16.1855    8.7464 H   0  0  0  0  0  0  0  0  0  0  0  0
    8.1588  -15.3279    8.0903 H   0  0  0  0  0  0  0  0  0  0  0  0
    9.1001  -19.5951    5.7220 O   0  0  0  0  0  0  0  0  0  0  0  0
    8.8617  -18.6929    6.8043 C   0  0  0  0  0  0  0  0  0  0  0  0
    9.5168  -20.3859    6.1050 H   0  0  0  0  0  0  0  0  0  0  0  0
    4.5855  -17.5104    3.0580 C   0  0  0  0  0  0  0  0  0  0  0  0
    4.3226  -18.5343    1.9403 C   0  0  0  0  0  0  0  0  0  0  0  0
    5.4121  -18.4769    1.0147 O   0  0  0  0  0  0  0  0  0  0  0  0
    5.3712  -19.4338   -0.0254 C   0  0  0  0  0  0  0  0  0  0  0  0
    4.3399  -19.1369   -0.9640 O   0  0  0  0  0  0  0  0  0  0  0  0
    5.2759  -20.8738    0.5073 C   0  0  0  0  0  0  0  0  0  0  0  0
    5.1822  -21.8129   -0.5702 O   0  0  0  0  0  0  0  0  0  0  0  0
    4.0656  -21.0035    1.4388 C   0  0  0  0  0  0  0  0  0  0  0  0
    3.9935  -22.3025    2.0424 O   0  0  0  0  0  0  0  0  0  0  0  0
    4.1053  -19.9318    2.5378 C   0  0  0  0  0  0  0  0  0  0  0  0
    2.8834  -19.9258    3.2927 O   0  0  0  0  0  0  0  0  0  0  0  0
    3.4794  -19.3130   -0.5581 H   0  0  0  0  0  0  0  0  0  0  0  0
    4.6146  -21.4166   -1.2576 H   0  0  0  0  0  0  0  0  0  0  0  0
    4.8413  -22.4779    2.4904 H   0  0  0  0  0  0  0  0  0  0  0  0
    2.2325  -20.4865    2.8346 H   0  0  0  0  0  0  0  0  0  0  0  0
 14 15  1  0
 14 16  1  0
  2  3  1  0
  2  9  1  0
  2 15  1  0
  3  4  1  0
  4  5  1  0
  4  1  1  0
  1 17  1  0
 18 19  1  0
 18 26  1  0
 18 17  1  0
 19 20  1  0
 20 21  1  0
 20 22  1  0
 21 28  1  0
 22 23  1  0
 22 24  1  0
 23 29  1  0
 24 25  1  0
 24 26  1  0
 25 30  1  0
 26 27  1  0
 27 31  1  0
  5  6  1  0
  5  7  1  0
  6 11  1  0
  7  8  1  0
  7  9  1  0
  8 12  1  0
  9 10  1  0
 10 13  1  0
M  END
> <minimizedAffinity>
-4.66956

> <CNNscore>
0.9255706668

> <CNNaffinity>
2.9180042744

> <CNN_VS>
2.7008192539

> <CNNaffinity_variance>
0.6464591622

$$$$



 31 32  0  0  0  0  0  0  0  0999 V2000
    5.4148  -18.4226    3.8989 O   0  0  0  0  0  0  0  0  0  0  0  0
    7.8517  -17.4560    6.3974 C   0  0  0  0  0  0  0  0  0  0  0  0
    7.0729  -18.2724    5.5192 O   0  0  0  0  0  0  0  0  0  0  0  0
    6.0752  -17.5450    4.8105 C   0  0  0  0  0  0  0  0  0  0  0  0
    5.0365  -16.9789    5.8098 C   0  0  0  0  0  0  0  0  0  0  0  0
    4.0292  -16.1979    5.1471 O   0  0  0  0  0  0  0  0  0  0  0  0
    5.7712  -16.1300    6.8652 C   0  0  0  0  0  0  0  0  0  0  0  0
    4.8654  -15.6838    7.8837 O   0  0  0  0  0  0  0  0  0  0  0  0
    6.9502  -16.8916    7.4993 C   0  0  0  0  0  0  0  0  0  0  0  0
    7.7048  -16.0498    8.3756 O   0  0  0  0  0  0  0  0  0  0  0  0
    4.3308  -15.2776    5.0771 H   0  0  0  0  0  0  0  0  0  0  0  0
    4.4587  -16.4687    8.2958 H   0  0  0  0  0  0  0  0  0  0  0  0
    7.5817  -15.1223    8.1055 H   0  0  0  0  0  0  0  0  0  0  0  0
    9.2932  -19.3696    6.0573 O   0  0  0  0  0  0  0  0  0  0  0  0
    8.9691  -18.3289    6.9815 C   0  0  0  0  0  0  0  0  0  0  0  0
    9.7660  -20.0532    6.5619 H   0  0  0  0  0  0  0  0  0  0  0  0
    6.2942  -19.4629    3.4323 C   0  0  0  0  0  0  0  0  0  0  0  0
    7.2753  -18.8822    2.3994 C   0  0  0  0  0  0  0  0  0  0  0  0
    8.4004  -19.7611    2.3066 O   0  0  0  0  0  0  0  0  0  0  0  0
    9.3535  -19.4189    1.3199 C   0  0  0  0  0  0  0  0  0  0  0  0
   10.0847  -18.2512    1.6870 O   0  0  0  0  0  0  0  0  0  0  0  0
    8.7288  -19.2976   -0.0805 C   0  0  0  0  0  0  0  0  0  0  0  0
    9.7091  -18.8979   -1.0454 O   0  0  0  0  0  0  0  0  0  0  0  0
    7.5697  -18.2952   -0.0466 C   0  0  0  0  0  0  0  0  0  0  0  0
    6.8884  -18.2244   -1.3068 O   0  0  0  0  0  0  0  0  0  0  0  0
    6.5654  -18.6592    1.0565 C   0  0  0  0  0  0  0  0  0  0  0  0
    5.5848  -17.6225    1.2197 O   0  0  0  0  0  0  0  0  0  0  0  0
    9.5065  -17.4784    1.6179 H   0  0  0  0  0  0  0  0  0  0  0  0
   10.2923  -18.2427   -0.6185 H   0  0  0  0  0  0  0  0  0  0  0  0
    6.6080  -19.1250   -1.5527 H   0  0  0  0  0  0  0  0  0  0  0  0
    5.8708  -16.8419    0.7130 H   0  0  0  0  0  0  0  0  0  0  0  0
 14 15  1  0
 14 16  1  0
  2  3  1  0
  2  9  1  0
  2 15  1  0
  3  4  1  0
  4  5  1  0
  4  1  1  0
  1 17  1  0
 18 19  1  0
 18 26  1  0
 18 17  1  0
 19 20  1  0
 20 21  1  0
 20 22  1  0
 21 28  1  0
 22 23  1  0
 22 24  1  0
 23 29  1  0
 24 25  1  0
 24 26  1  0
 25 30  1  0
 26 27  1  0
 27 31  1  0
  5  6  1  0
  5  7  1  0
  6 11  1  0
  7  8  1  0
  7  9  1  0
  8 12  1  0
  9 10  1  0
 10 13  1  0
M  END
> <minimizedAffinity>
-4.57797

> <CNNscore>
0.9233058095

> <CNNaffinity>
2.8866508007

> <CNN_VS>
2.6652615070

> <CNNaffinity_variance>
0.6867135167

$$$$



 31 32  0  0  0  0  0  0  0  0999 V2000
    7.7078  -17.7887    8.5895 O   0  0  0  0  0  0  0  0  0  0  0  0
    6.2985  -18.1102    5.2689 C   0  0  0  0  0  0  0  0  0  0  0  0
    7.2623  -17.9951    6.3187 O   0  0  0  0  0  0  0  0  0  0  0  0
    6.6772  -17.8012    7.6020 C   0  0  0  0  0  0  0  0  0  0  0  0
    5.9305  -16.4449    7.6332 C   0  0  0  0  0  0  0  0  0  0  0  0
    5.2841  -16.2207    8.8964 O   0  0  0  0  0  0  0  0  0  0  0  0
    4.9015  -16.4158    6.4866 C   0  0  0  0  0  0  0  0  0  0  0  0
    4.2694  -15.1314    6.3991 O   0  0  0  0  0  0  0  0  0  0  0  0
    5.5347  -16.7897    5.1334 C   0  0  0  0  0  0  0  0  0  0  0  0
    4.5463  -16.8912    4.1045 O   0  0  0  0  0  0  0  0  0  0  0  0
    4.3942  -16.6086    8.8751 H   0  0  0  0  0  0  0  0  0  0  0  0
    4.9620  -14.4595    6.2570 H   0  0  0  0  0  0  0  0  0  0  0  0
    3.6853  -17.0921    4.5130 H   0  0  0  0  0  0  0  0  0  0  0  0
    8.4513  -18.5352    4.2489 O   0  0  0  0  0  0  0  0  0  0  0  0
    7.0503  -18.4564    3.9780 C   0  0  0  0  0  0  0  0  0  0  0  0
    8.9055  -18.4570    3.3927 H   0  0  0  0  0  0  0  0  0  0  0  0
    9.0139  -17.6856    7.9922 C   0  0  0  0  0  0  0  0  0  0  0  0
    9.8295  -16.6046    8.7223 C   0  0  0  0  0  0  0  0  0  0  0  0
    8.9321  -15.8324    9.5257 O   0  0  0  0  0  0  0  0  0  0  0  0
    9.5437  -14.8543   10.3431 C   0  0  0  0  0  0  0  0  0  0  0  0
   10.0469  -13.7695    9.5668 O   0  0  0  0  0  0  0  0  0  0  0  0
   10.6157  -15.4528   11.2699 C   0  0  0  0  0  0  0  0  0  0  0  0
   11.2521  -14.4293   12.0442 O   0  0  0  0  0  0  0  0  0  0  0  0
   11.6512  -16.2187   10.4389 C   0  0  0  0  0  0  0  0  0  0  0  0
   12.6155  -16.8822   11.2677 O   0  0  0  0  0  0  0  0  0  0  0  0
   10.9668  -17.2483    9.5282 C   0  0  0  0  0  0  0  0  0  0  0  0
   11.9086  -17.8300    8.6132 O   0  0  0  0  0  0  0  0  0  0  0  0
   10.8241  -14.0653    9.0720 H   0  0  0  0  0  0  0  0  0  0  0  0
   11.3618  -13.6497   11.4681 H   0  0  0  0  0  0  0  0  0  0  0  0
   12.1360  -17.4498   11.8986 H   0  0  0  0  0  0  0  0  0  0  0  0
   12.7381  -17.3221    8.6566 H   0  0  0  0  0  0  0  0  0  0  0  0
 14 15  1  0
 14 16  1  0
  2  3  1  0
  2  9  1  0
  2 15  1  0
  3  4  1  0
  4  5  1  0
  4  1  1  0
  1 17  1  0
 18 19  1  0
 18 26  1  0
 18 17  1  0
 19 20  1  0
 20 21  1  0
 20 22  1  0
 21 28  1  0
 22 23  1  0
 22 24  1  0
 23 29  1  0
 24 25  1  0
 24 26  1  0
 25 30  1  0
 26 27  1  0
 27 31  1  0
  5  6  1  0
  5  7  1  0
  6 11  1  0
  7  8  1  0
  7  9  1  0
  8 12  1  0
  9 10  1  0
 10 13  1  0
M  END
> <minimizedAffinity>
-4.30514

> <CNNscore>
0.9141904116

> <CNNaffinity>
3.1152896881

> <CNN_VS>
2.8479678631

> <CNNaffinity_variance>
0.4763077199

$$$$



 31 32  0  0  0  0  0  0  0  0999 V2000
    5.2364  -17.7821    3.9302 O   0  0  0  0  0  0  0  0  0  0  0  0
    7.8536  -17.5075    6.4183 C   0  0  0  0  0  0  0  0  0  0  0  0
    6.9439  -18.0822    5.4767 O   0  0  0  0  0  0  0  0  0  0  0  0
    6.0383  -17.1360    4.9185 C   0  0  0  0  0  0  0  0  0  0  0  0
    5.1173  -16.5787    6.0318 C   0  0  0  0  0  0  0  0  0  0  0  0
    4.2111  -15.5851    5.5267 O   0  0  0  0  0  0  0  0  0  0  0  0
    5.9929  -15.9907    7.1552 C   0  0  0  0  0  0  0  0  0  0  0  0
    5.1872  -15.5716    8.2653 O   0  0  0  0  0  0  0  0  0  0  0  0
    7.0710  -16.9844    7.6265 C   0  0  0  0  0  0  0  0  0  0  0  0
    7.9602  -16.3813    8.5707 O   0  0  0  0  0  0  0  0  0  0  0  0
    4.6364  -14.7131    5.5657 H   0  0  0  0  0  0  0  0  0  0  0  0
    4.6865  -16.3440    8.5878 H   0  0  0  0  0  0  0  0  0  0  0  0
    7.9605  -15.4173    8.4324 H   0  0  0  0  0  0  0  0  0  0  0  0
    9.8682  -18.0224    7.6557 O   0  0  0  0  0  0  0  0  0  0  0  0
    8.8537  -18.5952    6.8281 C   0  0  0  0  0  0  0  0  0  0  0  0
   10.6178  -18.6418    7.6467 H   0  0  0  0  0  0  0  0  0  0  0  0
    5.4729  -19.2021    3.9001 C   0  0  0  0  0  0  0  0  0  0  0  0
    5.9442  -19.6154    2.4952 C   0  0  0  0  0  0  0  0  0  0  0  0
    5.0803  -19.0013    1.5341 O   0  0  0  0  0  0  0  0  0  0  0  0
    5.4422  -19.2024    0.1822 C   0  0  0  0  0  0  0  0  0  0  0  0
    5.2101  -20.5496   -0.2227 O   0  0  0  0  0  0  0  0  0  0  0  0
    6.8813  -18.7461   -0.1127 C   0  0  0  0  0  0  0  0  0  0  0  0
    7.2337  -19.0129   -1.4753 O   0  0  0  0  0  0  0  0  0  0  0  0
    7.8543  -19.4492    0.8404 C   0  0  0  0  0  0  0  0  0  0  0  0
    9.1988  -18.9789    0.6731 O   0  0  0  0  0  0  0  0  0  0  0  0
    7.4237  -19.2542    2.3014 C   0  0  0  0  0  0  0  0  0  0  0  0
    8.2159  -20.0662    3.1823 O   0  0  0  0  0  0  0  0  0  0  0  0
    5.8627  -21.1260    0.1993 H   0  0  0  0  0  0  0  0  0  0  0  0
    6.8436  -19.8738   -1.7171 H   0  0  0  0  0  0  0  0  0  0  0  0
    9.1975  -18.0094    0.7747 H   0  0  0  0  0  0  0  0  0  0  0  0
    8.7379  -20.6886    2.6456 H   0  0  0  0  0  0  0  0  0  0  0  0
 14 15  1  0
 14 16  1  0
  2  3  1  0
  2  9  1  0
  2 15  1  0
  3  4  1  0
  4  5  1  0
  4  1  1  0
  1 17  1  0
 18 19  1  0
 18 26  1  0
 18 17  1  0
 19 20  1  0
 20 21  1  0
 20 22  1  0
 21 28  1  0
 22 23  1  0
 22 24  1  0
 23 29  1  0
 24 25  1  0
 24 26  1  0
 25 30  1  0
 26 27  1  0
 27 31  1  0
  5  6  1  0
  5  7  1  0
  6 11  1  0
  7  8  1  0
  7  9  1  0
  8 12  1  0
  9 10  1  0
 10 13  1  0
M  END
> <minimizedAffinity>
-4.14386

> <CNNscore>
0.9062516093

> <CNNaffinity>
2.8905069828

> <CNN_VS>
2.6195266247

> <CNNaffinity_variance>
0.5746436119

$$$$



 31 32  0  0  0  0  0  0  0  0999 V2000
    5.5730  -17.3496    7.4316 O   0  0  0  0  0  0  0  0  0  0  0  0
    5.7557  -18.8033    4.1197 C   0  0  0  0  0  0  0  0  0  0  0  0
    6.1147  -18.4475    5.4571 O   0  0  0  0  0  0  0  0  0  0  0  0
    5.1780  -17.5737    6.0784 C   0  0  0  0  0  0  0  0  0  0  0  0
    5.1536  -16.2194    5.3278 C   0  0  0  0  0  0  0  0  0  0  0  0
    4.1900  -15.3148    5.8907 O   0  0  0  0  0  0  0  0  0  0  0  0
    4.8466  -16.4793    3.8403 C   0  0  0  0  0  0  0  0  0  0  0  0
    4.9337  -15.2660    3.0806 O   0  0  0  0  0  0  0  0  0  0  0  0
    5.7746  -17.5509    3.2383 C   0  0  0  0  0  0  0  0  0  0  0  0
    5.3929  -17.8800    1.8997 O   0  0  0  0  0  0  0  0  0  0  0  0
    3.3274  -15.4619    5.4700 H   0  0  0  0  0  0  0  0  0  0  0  0
    5.8323  -14.9024    3.1880 H   0  0  0  0  0  0  0  0  0  0  0  0
    4.4472  -17.6790    1.7829 H   0  0  0  0  0  0  0  0  0  0  0  0
    7.7628  -20.0566    4.6259 O   0  0  0  0  0  0  0  0  0  0  0  0
    6.7626  -19.8495    3.6264 C   0  0  0  0  0  0  0  0  0  0  0  0
    8.5187  -20.4765    4.1810 H   0  0  0  0  0  0  0  0  0  0  0  0
    5.5914  -15.9463    7.7536 C   0  0  0  0  0  0  0  0  0  0  0  0
    6.3601  -15.7303    9.0686 C   0  0  0  0  0  0  0  0  0  0  0  0
    5.4276  -15.8089   10.1508 O   0  0  0  0  0  0  0  0  0  0  0  0
    5.9953  -15.7305   11.4433 C   0  0  0  0  0  0  0  0  0  0  0  0
    6.4661  -14.4145   11.7249 O   0  0  0  0  0  0  0  0  0  0  0  0
    7.0795  -16.7975   11.6722 C   0  0  0  0  0  0  0  0  0  0  0  0
    7.6708  -16.6563   12.9693 O   0  0  0  0  0  0  0  0  0  0  0  0
    8.1501  -16.6920   10.5804 C   0  0  0  0  0  0  0  0  0  0  0  0
    9.1300  -17.7334   10.6914 O   0  0  0  0  0  0  0  0  0  0  0  0
    7.5123  -16.7384    9.1843 C   0  0  0  0  0  0  0  0  0  0  0  0
    8.4834  -16.4477    8.1669 O   0  0  0  0  0  0  0  0  0  0  0  0
    7.2582  -14.2399   11.1973 H   0  0  0  0  0  0  0  0  0  0  0  0
    7.7575  -15.7017   13.1509 H   0  0  0  0  0  0  0  0  0  0  0  0
    8.6655  -18.5904   10.6899 H   0  0  0  0  0  0  0  0  0  0  0  0
    9.2935  -16.1189    8.5954 H   0  0  0  0  0  0  0  0  0  0  0  0
 14 15  1  0
 14 16  1  0
  2  3  1  0
  2  9  1  0
  2 15  1  0
  3  4  1  0
  4  5  1  0
  4  1  1  0
  1 17  1  0
 18 19  1  0
 18 26  1  0
 18 17  1  0
 19 20  1  0
 20 21  1  0
 20 22  1  0
 21 28  1  0
 22 23  1  0
 22 24  1  0
 23 29  1  0
 24 25  1  0
 24 26  1  0
 25 30  1  0
 26 27  1  0
 27 31  1  0
  5  6  1  0
  5  7  1  0
  6 11  1  0
  7  8  1  0
  7  9  1  0
  8 12  1  0
  9 10  1  0
 10 13  1  0
M  END
> <minimizedAffinity>
-5.07234

> <CNNscore>
0.9019390345

> <CNNaffinity>
3.4908304214

> <CNN_VS>
3.1485161781

> <CNNaffinity_variance>
0.3029366732

$$$$



 31 32  0  0  0  0  0  0  0  0999 V2000
    6.0307  -18.7857    2.3823 O   0  0  0  0  0  0  0  0  0  0  0  0
    2.5921  -19.6819    1.6835 C   0  0  0  0  0  0  0  0  0  0  0  0
    3.8833  -19.6682    2.2974 O   0  0  0  0  0  0  0  0  0  0  0  0
    4.8065  -18.8003    1.6484 C   0  0  0  0  0  0  0  0  0  0  0  0
    5.0829  -19.3144    0.2140 C   0  0  0  0  0  0  0  0  0  0  0  0
    5.9779  -18.4470   -0.5004 O   0  0  0  0  0  0  0  0  0  0  0  0
    3.7430  -19.4447   -0.5357 C   0  0  0  0  0  0  0  0  0  0  0  0
    3.9359  -20.0335   -1.8291 O   0  0  0  0  0  0  0  0  0  0  0  0
    2.7086  -20.2548    0.2680 C   0  0  0  0  0  0  0  0  0  0  0  0
    1.4309  -20.2538   -0.3748 O   0  0  0  0  0  0  0  0  0  0  0  0
    5.4654  -17.7519   -0.9443 H   0  0  0  0  0  0  0  0  0  0  0  0
    4.3487  -20.9088   -1.7077 H   0  0  0  0  0  0  0  0  0  0  0  0
    1.3621  -19.4627   -0.9387 H   0  0  0  0  0  0  0  0  0  0  0  0
    2.2683  -20.7329    3.8389 O   0  0  0  0  0  0  0  0  0  0  0  0
    1.6661  -20.5360    2.5580 C   0  0  0  0  0  0  0  0  0  0  0  0
    1.8200  -21.4952    4.2434 H   0  0  0  0  0  0  0  0  0  0  0  0
    6.2570  -17.5107    3.0118 C   0  0  0  0  0  0  0  0  0  0  0  0
    6.2064  -17.6756    4.5405 C   0  0  0  0  0  0  0  0  0  0  0  0
    7.5496  -17.7134    5.0319 O   0  0  0  0  0  0  0  0  0  0  0  0
    7.6760  -17.7611    6.4393 C   0  0  0  0  0  0  0  0  0  0  0  0
    7.2752  -19.0288    6.9541 O   0  0  0  0  0  0  0  0  0  0  0  0
    6.9493  -16.5958    7.1323 C   0  0  0  0  0  0  0  0  0  0  0  0
    7.0515  -16.7037    8.5570 O   0  0  0  0  0  0  0  0  0  0  0  0
    5.4789  -16.5708    6.7003 C   0  0  0  0  0  0  0  0  0  0  0  0
    4.7831  -15.4389    7.2404 O   0  0  0  0  0  0  0  0  0  0  0  0
    5.3599  -16.5598    5.1694 C   0  0  0  0  0  0  0  0  0  0  0  0
    3.9939  -16.7306    4.7599 O   0  0  0  0  0  0  0  0  0  0  0  0
    6.3138  -19.1123    6.8824 H   0  0  0  0  0  0  0  0  0  0  0  0
    6.9710  -17.6484    8.7871 H   0  0  0  0  0  0  0  0  0  0  0  0
    5.2696  -14.6330    6.9876 H   0  0  0  0  0  0  0  0  0  0  0  0
    3.4661  -16.9853    5.5373 H   0  0  0  0  0  0  0  0  0  0  0  0
 14 15  1  0
 14 16  1  0
  2  3  1  0
  2  9  1  0
  2 15  1  0
  3  4  1  0
  4  5  1  0
  4  1  1  0
  1 17  1  0
 18 19  1  0
 18 26  1  0
 18 17  1  0
 19 20  1  0
 20 21  1  0
 20 22  1  0
 21 28  1  0
 22 23  1  0
 22 24  1  0
 23 29  1  0
 24 25  1  0
 24 26  1  0
 25 30  1  0
 26 27  1  0
 27 31  1  0
  5  6  1  0
  5  7  1  0
  6 11  1  0
  7  8  1  0
  7  9  1  0
  8 12  1  0
  9 10  1  0
 10 13  1  0
M  END
> <minimizedAffinity>
-5.13091

> <CNNscore>
0.8954316974

> <CNNaffinity>
2.8279564381

> <CNN_VS>
2.5322418213

> <CNNaffinity_variance>
0.6732015014

$$$$



 31 32  0  0  0  0  0  0  0  0999 V2000
    5.6985  -19.3305    2.3323 O   0  0  0  0  0  0  0  0  0  0  0  0
    3.4179  -19.8797   -0.4268 C   0  0  0  0  0  0  0  0  0  0  0  0
    4.4232  -19.2759    0.3912 O   0  0  0  0  0  0  0  0  0  0  0  0
    4.6207  -19.9490    1.6300 C   0  0  0  0  0  0  0  0  0  0  0  0
    3.3348  -19.8482    2.4871 C   0  0  0  0  0  0  0  0  0  0  0  0
    3.4678  -20.5506    3.7332 O   0  0  0  0  0  0  0  0  0  0  0  0
    2.1498  -20.4065    1.6756 C   0  0  0  0  0  0  0  0  0  0  0  0
    0.9149  -20.2226    2.3813 O   0  0  0  0  0  0  0  0  0  0  0  0
    2.0606  -19.7731    0.2746 C   0  0  0  0  0  0  0  0  0  0  0  0
    1.0431  -20.3946   -0.5157 O   0  0  0  0  0  0  0  0  0  0  0  0
    3.2054  -21.4772    3.6091 H   0  0  0  0  0  0  0  0  0  0  0  0
    0.7982  -19.2689    2.5489 H   0  0  0  0  0  0  0  0  0  0  0  0
    0.8949  -21.2986   -0.1848 H   0  0  0  0  0  0  0  0  0  0  0  0
    2.2742  -18.2840   -1.8413 O   0  0  0  0  0  0  0  0  0  0  0  0
    3.4094  -19.1494   -1.7752 C   0  0  0  0  0  0  0  0  0  0  0  0
    2.1358  -18.0770   -2.7813 H   0  0  0  0  0  0  0  0  0  0  0  0
    5.3792  -17.9783    2.7101 C   0  0  0  0  0  0  0  0  0  0  0  0
    5.3832  -17.8582    4.2439 C   0  0  0  0  0  0  0  0  0  0  0  0
    6.7415  -17.8895    4.6923 O   0  0  0  0  0  0  0  0  0  0  0  0
    6.9236  -17.6875    6.0798 C   0  0  0  0  0  0  0  0  0  0  0  0
    6.4745  -18.8126    6.8317 O   0  0  0  0  0  0  0  0  0  0  0  0
    6.2924  -16.3723    6.5678 C   0  0  0  0  0  0  0  0  0  0  0  0
    6.4476  -16.2249    7.9842 O   0  0  0  0  0  0  0  0  0  0  0  0
    4.8089  -16.3349    6.1840 C   0  0  0  0  0  0  0  0  0  0  0  0
    4.2004  -15.0823    6.5272 O   0  0  0  0  0  0  0  0  0  0  0  0
    4.6271  -16.5957    4.6817 C   0  0  0  0  0  0  0  0  0  0  0  0
    3.2378  -16.7528    4.3529 O   0  0  0  0  0  0  0  0  0  0  0  0
    5.5079  -18.8476    6.8062 H   0  0  0  0  0  0  0  0  0  0  0  0
    6.3244  -17.1048    8.3870 H   0  0  0  0  0  0  0  0  0  0  0  0
    4.7201  -14.3679    6.1152 H   0  0  0  0  0  0  0  0  0  0  0  0
    2.7295  -16.8281    5.1799 H   0  0  0  0  0  0  0  0  0  0  0  0
 14 15  1  0
 14 16  1  0
  2  3  1  0
  2  9  1  0
  2 15  1  0
  3  4  1  0
  4  5  1  0
  4  1  1  0
  1 17  1  0
 18 19  1  0
 18 26  1  0
 18 17  1  0
 19 20  1  0
 20 21  1  0
 20 22  1  0
 21 28  1  0
 22 23  1  0
 22 24  1  0
 23 29  1  0
 24 25  1  0
 24 26  1  0
 25 30  1  0
 26 27  1  0
 27 31  1  0
  5  6  1  0
  5  7  1  0
  6 11  1  0
  7  8  1  0
  7  9  1  0
  8 12  1  0
  9 10  1  0
 10 13  1  0
M  END
> <minimizedAffinity>
-5.17888

> <CNNscore>
0.8930898309

> <CNNaffinity>
3.3590090275

> <CNN_VS>
2.9998967648

> <CNNaffinity_variance>
0.2346947938

$$$$



 31 32  0  0  0  0  0  0  0  0999 V2000
    5.4859  -17.3732    7.4677 O   0  0  0  0  0  0  0  0  0  0  0  0
    5.5633  -18.8715    4.1715 C   0  0  0  0  0  0  0  0  0  0  0  0
    5.9486  -18.5257    5.5043 O   0  0  0  0  0  0  0  0  0  0  0  0
    5.0733  -17.5854    6.1178 C   0  0  0  0  0  0  0  0  0  0  0  0
    5.1362  -16.2406    5.3525 C   0  0  0  0  0  0  0  0  0  0  0  0
    4.2359  -15.2684    5.9074 O   0  0  0  0  0  0  0  0  0  0  0  0
    4.8086  -16.4957    3.8685 C   0  0  0  0  0  0  0  0  0  0  0  0
    4.9735  -15.2991    3.0954 O   0  0  0  0  0  0  0  0  0  0  0  0
    5.6623  -17.6327    3.2765 C   0  0  0  0  0  0  0  0  0  0  0  0
    5.2560  -17.9504    1.9423 O   0  0  0  0  0  0  0  0  0  0  0  0
    3.3643  -15.3627    5.4900 H   0  0  0  0  0  0  0  0  0  0  0  0
    5.8945  -14.9945    3.1970 H   0  0  0  0  0  0  0  0  0  0  0  0
    4.3253  -17.6886    1.8252 H   0  0  0  0  0  0  0  0  0  0  0  0
    5.8865  -20.6816    2.5985 O   0  0  0  0  0  0  0  0  0  0  0  0
    6.4976  -19.9871    3.6877 C   0  0  0  0  0  0  0  0  0  0  0  0
    6.3462  -21.5348    2.5189 H   0  0  0  0  0  0  0  0  0  0  0  0
    5.0446  -18.4376    8.3311 C   0  0  0  0  0  0  0  0  0  0  0  0
    4.1985  -17.8540    9.4758 C   0  0  0  0  0  0  0  0  0  0  0  0
    3.5102  -18.9312   10.1185 O   0  0  0  0  0  0  0  0  0  0  0  0
    2.7622  -18.5716   11.2632 C   0  0  0  0  0  0  0  0  0  0  0  0
    1.6028  -17.8203   10.9111 O   0  0  0  0  0  0  0  0  0  0  0  0
    3.6193  -17.8567   12.3218 C   0  0  0  0  0  0  0  0  0  0  0  0
    2.8212  -17.4590   13.4429 O   0  0  0  0  0  0  0  0  0  0  0  0
    4.3089  -16.6395   11.6955 C   0  0  0  0  0  0  0  0  0  0  0  0
    5.2014  -15.9988   12.6175 O   0  0  0  0  0  0  0  0  0  0  0  0
    5.0832  -17.0411   10.4317 C   0  0  0  0  0  0  0  0  0  0  0  0
    5.5684  -15.8814    9.7373 O   0  0  0  0  0  0  0  0  0  0  0  0
    1.8716  -16.9380   10.6187 H   0  0  0  0  0  0  0  0  0  0  0  0
    1.9613  -17.1529   13.0984 H   0  0  0  0  0  0  0  0  0  0  0  0
    5.8300  -16.6668   12.9474 H   0  0  0  0  0  0  0  0  0  0  0  0
    5.1562  -15.0904   10.1277 H   0  0  0  0  0  0  0  0  0  0  0  0
 14 15  1  0
 14 16  1  0
  2  3  1  0
  2  9  1  0
  2 15  1  0
  3  4  1  0
  4  5  1  0
  4  1  1  0
  1 17  1  0
 18 19  1  0
 18 26  1  0
 18 17  1  0
 19 20  1  0
 20 21  1  0
 20 22  1  0
 21 28  1  0
 22 23  1  0
 22 24  1  0
 23 29  1  0
 24 25  1  0
 24 26  1  0
 25 30  1  0
 26 27  1  0
 27 31  1  0
  5  6  1  0
  5  7  1  0
  6 11  1  0
  7  8  1  0
  7  9  1  0
  8 12  1  0
  9 10  1  0
 10 13  1  0
M  END
> <minimizedAffinity>
-4.80689

> <CNNscore>
0.8922725916

> <CNNaffinity>
3.1294724941

> <CNN_VS>
2.7923424244

> <CNNaffinity_variance>
0.4600814879

$$$$



 31 32  0  0  0  0  0  0  0  0999 V2000
    5.1806  -18.3926    4.1230 O   0  0  0  0  0  0  0  0  0  0  0  0
    7.8794  -17.6076    6.4068 C   0  0  0  0  0  0  0  0  0  0  0  0
    6.9633  -18.3653    5.6125 O   0  0  0  0  0  0  0  0  0  0  0  0
    5.9875  -17.5619    4.9574 C   0  0  0  0  0  0  0  0  0  0  0  0
    5.0849  -16.8767    6.0129 C   0  0  0  0  0  0  0  0  0  0  0  0
    4.1080  -16.0180    5.4028 O   0  0  0  0  0  0  0  0  0  0  0  0
    5.9737  -16.0785    6.9862 C   0  0  0  0  0  0  0  0  0  0  0  0
    5.1933  -15.5248    8.0545 O   0  0  0  0  0  0  0  0  0  0  0  0
    7.1206  -16.9348    7.5546 C   0  0  0  0  0  0  0  0  0  0  0  0
    8.0149  -16.1496    8.3480 O   0  0  0  0  0  0  0  0  0  0  0  0
    4.4884  -15.1326    5.2837 H   0  0  0  0  0  0  0  0  0  0  0  0
    4.7471  -16.2578    8.5183 H   0  0  0  0  0  0  0  0  0  0  0  0
    7.9592  -15.2209    8.0603 H   0  0  0  0  0  0  0  0  0  0  0  0
   10.0623  -18.5831    6.0349 O   0  0  0  0  0  0  0  0  0  0  0  0
    8.9510  -18.5700    6.9332 C   0  0  0  0  0  0  0  0  0  0  0  0
   10.5663  -19.3924    6.2268 H   0  0  0  0  0  0  0  0  0  0  0  0
    5.4596  -18.1737    2.7275 C   0  0  0  0  0  0  0  0  0  0  0  0
    4.1925  -18.4504    1.9000 C   0  0  0  0  0  0  0  0  0  0  0  0
    4.3899  -19.6655    1.1709 O   0  0  0  0  0  0  0  0  0  0  0  0
    3.2706  -20.1151    0.4332 C   0  0  0  0  0  0  0  0  0  0  0  0
    3.0245  -19.2815   -0.6969 O   0  0  0  0  0  0  0  0  0  0  0  0
    2.0204  -20.2868    1.3128 C   0  0  0  0  0  0  0  0  0  0  0  0
    0.8931  -20.6906    0.5266 O   0  0  0  0  0  0  0  0  0  0  0  0
    1.7195  -18.9761    2.0484 C   0  0  0  0  0  0  0  0  0  0  0  0
    0.6219  -19.1162    2.9610 O   0  0  0  0  0  0  0  0  0  0  0  0
    2.9571  -18.4817    2.8111 C   0  0  0  0  0  0  0  0  0  0  0  0
    2.7409  -17.1642    3.3405 O   0  0  0  0  0  0  0  0  0  0  0  0
    2.6786  -18.4296   -0.3951 H   0  0  0  0  0  0  0  0  0  0  0  0
    0.9372  -20.2086   -0.3205 H   0  0  0  0  0  0  0  0  0  0  0  0
    0.8193  -19.8564    3.5638 H   0  0  0  0  0  0  0  0  0  0  0  0
    1.9213  -16.8057    2.9564 H   0  0  0  0  0  0  0  0  0  0  0  0
 14 15  1  0
 14 16  1  0
  2  3  1  0
  2  9  1  0
  2 15  1  0
  3  4  1  0
  4  5  1  0
  4  1  1  0
  1 17  1  0
 18 19  1  0
 18 26  1  0
 18 17  1  0
 19 20  1  0
 20 21  1  0
 20 22  1  0
 21 28  1  0
 22 23  1  0
 22 24  1  0
 23 29  1  0
 24 25  1  0
 24 26  1  0
 25 30  1  0
 26 27  1  0
 27 31  1  0
  5  6  1  0
  5  7  1  0
  6 11  1  0
  7  8  1  0
  7  9  1  0
  8 12  1  0
  9 10  1  0
 10 13  1  0
M  END
> <minimizedAffinity>
-5.24599

> <CNNscore>
0.8704187274

> <CNNaffinity>
2.9363336563

> <CNN_VS>
2.5558397770

> <CNNaffinity_variance>
0.5716370940

$$$$



 31 32  0  0  0  0  0  0  0  0999 V2000
    6.6703  -16.1241    7.5765 O   0  0  0  0  0  0  0  0  0  0  0  0
    6.6084  -18.6871    5.0186 C   0  0  0  0  0  0  0  0  0  0  0  0
    7.1081  -17.7250    5.9508 O   0  0  0  0  0  0  0  0  0  0  0  0
    6.0805  -16.9896    6.6067 C   0  0  0  0  0  0  0  0  0  0  0  0
    5.3095  -16.1361    5.5697 C   0  0  0  0  0  0  0  0  0  0  0  0
    4.2311  -15.4059    6.1760 O   0  0  0  0  0  0  0  0  0  0  0  0
    4.7780  -17.0619    4.4584 C   0  0  0  0  0  0  0  0  0  0  0  0
    4.1608  -16.3013    3.4109 O   0  0  0  0  0  0  0  0  0  0  0  0
    5.8849  -17.9628    3.8796 C   0  0  0  0  0  0  0  0  0  0  0  0
    5.3540  -18.9089    2.9475 O   0  0  0  0  0  0  0  0  0  0  0  0
    3.4326  -15.9584    6.1822 H   0  0  0  0  0  0  0  0  0  0  0  0
    4.8227  -15.6801    3.0540 H   0  0  0  0  0  0  0  0  0  0  0  0
    4.4140  -19.0603    3.1525 H   0  0  0  0  0  0  0  0  0  0  0  0
    8.9497  -18.6530    4.4084 O   0  0  0  0  0  0  0  0  0  0  0  0
    7.8008  -19.4983    4.4974 C   0  0  0  0  0  0  0  0  0  0  0  0
    9.5779  -19.0982    3.8145 H   0  0  0  0  0  0  0  0  0  0  0  0
    6.2803  -16.4832    8.9152 C   0  0  0  0  0  0  0  0  0  0  0  0
    7.4715  -17.1315    9.6416 C   0  0  0  0  0  0  0  0  0  0  0  0
    7.3366  -18.5525    9.5438 O   0  0  0  0  0  0  0  0  0  0  0  0
    8.4118  -19.2988   10.0785 C   0  0  0  0  0  0  0  0  0  0  0  0
    8.4333  -19.2317   11.5025 O   0  0  0  0  0  0  0  0  0  0  0  0
    9.7632  -18.9062    9.4572 C   0  0  0  0  0  0  0  0  0  0  0  0
   10.8356  -19.6414   10.0581 O   0  0  0  0  0  0  0  0  0  0  0  0
    9.9899  -17.3988    9.6182 C   0  0  0  0  0  0  0  0  0  0  0  0
   11.1905  -16.9668    8.9632 O   0  0  0  0  0  0  0  0  0  0  0  0
    8.7954  -16.6055    9.0690 C   0  0  0  0  0  0  0  0  0  0  0  0
    8.9149  -15.2107    9.3899 O   0  0  0  0  0  0  0  0  0  0  0  0
    8.7095  -18.3454   11.7755 H   0  0  0  0  0  0  0  0  0  0  0  0
   10.6426  -19.7173   11.0114 H   0  0  0  0  0  0  0  0  0  0  0  0
   11.1480  -17.2498    8.0313 H   0  0  0  0  0  0  0  0  0  0  0  0
    9.6400  -15.1002   10.0302 H   0  0  0  0  0  0  0  0  0  0  0  0
 14 15  1  0
 14 16  1  0
  2  3  1  0
  2  9  1  0
  2 15  1  0
  3  4  1  0
  4  5  1  0
  4  1  1  0
  1 17  1  0
 18 19  1  0
 18 26  1  0
 18 17  1  0
 19 20  1  0
 20 21  1  0
 20 22  1  0
 21 28  1  0
 22 23  1  0
 22 24  1  0
 23 29  1  0
 24 25  1  0
 24 26  1  0
 25 30  1  0
 26 27  1  0
 27 31  1  0
  5  6  1  0
  5  7  1  0
  6 11  1  0
  7  8  1  0
  7  9  1  0
  8 12  1  0
  9 10  1  0
 10 13  1  0
M  END
> <minimizedAffinity>
-4.08330

> <CNNscore>
0.8673354387

> <CNNaffinity>
3.1782531738

> <CNN_VS>
2.7566115856

> <CNNaffinity_variance>
0.3051419258

$$$$



 31 32  0  0  0  0  0  0  0  0999 V2000
    5.7901  -16.0437    7.5612 O   0  0  0  0  0  0  0  0  0  0  0  0
    4.3664  -17.0728   10.7282 C   0  0  0  0  0  0  0  0  0  0  0  0
    4.4619  -16.5683    9.3938 O   0  0  0  0  0  0  0  0  0  0  0  0
    5.8022  -16.4676    8.9241 C   0  0  0  0  0  0  0  0  0  0  0  0
    6.5727  -15.4250    9.7711 C   0  0  0  0  0  0  0  0  0  0  0  0
    7.9462  -15.3170    9.3641 O   0  0  0  0  0  0  0  0  0  0  0  0
    6.4789  -15.8223   11.2570 C   0  0  0  0  0  0  0  0  0  0  0  0
    7.0745  -14.8206   12.0928 O   0  0  0  0  0  0  0  0  0  0  0  0
    5.0252  -16.0832   11.6938 C   0  0  0  0  0  0  0  0  0  0  0  0
    4.9637  -16.5809   13.0333 O   0  0  0  0  0  0  0  0  0  0  0  0
    8.4769  -15.9704    9.8481 H   0  0  0  0  0  0  0  0  0  0  0  0
    6.6136  -13.9760   11.9327 H   0  0  0  0  0  0  0  0  0  0  0  0
    5.8095  -17.0133   13.2483 H   0  0  0  0  0  0  0  0  0  0  0  0
    2.3447  -16.0460   11.5729 O   0  0  0  0  0  0  0  0  0  0  0  0
    2.8798  -17.2643   11.0518 C   0  0  0  0  0  0  0  0  0  0  0  0
    1.5195  -16.2780   12.0321 H   0  0  0  0  0  0  0  0  0  0  0  0
    6.6271  -16.8778    6.7385 C   0  0  0  0  0  0  0  0  0  0  0  0
    6.1054  -16.8619    5.2913 C   0  0  0  0  0  0  0  0  0  0  0  0
    6.5040  -18.0812    4.6578 O   0  0  0  0  0  0  0  0  0  0  0  0
    6.0136  -18.2673    3.3448 C   0  0  0  0  0  0  0  0  0  0  0  0
    6.6500  -17.3854    2.4229 O   0  0  0  0  0  0  0  0  0  0  0  0
    4.4798  -18.1747    3.2741 C   0  0  0  0  0  0  0  0  0  0  0  0
    4.0203  -18.3137    1.9245 O   0  0  0  0  0  0  0  0  0  0  0  0
    4.0127  -16.8397    3.8650 C   0  0  0  0  0  0  0  0  0  0  0  0
    2.5822  -16.7499    3.9157 O   0  0  0  0  0  0  0  0  0  0  0  0
    4.5869  -16.6360    5.2745 C   0  0  0  0  0  0  0  0  0  0  0  0
    4.3125  -15.3100    5.7533 O   0  0  0  0  0  0  0  0  0  0  0  0
    6.3377  -16.4828    2.5780 H   0  0  0  0  0  0  0  0  0  0  0  0
    4.6509  -17.8418    1.3488 H   0  0  0  0  0  0  0  0  0  0  0  0
    2.2454  -17.5232    4.4045 H   0  0  0  0  0  0  0  0  0  0  0  0
    3.9710  -14.7770    5.0135 H   0  0  0  0  0  0  0  0  0  0  0  0
 14 15  1  0
 14 16  1  0
  2  3  1  0
  2  9  1  0
  2 15  1  0
  3  4  1  0
  4  5  1  0
  4  1  1  0
  1 17  1  0
 18 19  1  0
 18 26  1  0
 18 17  1  0
 19 20  1  0
 20 21  1  0
 20 22  1  0
 21 28  1  0
 22 23  1  0
 22 24  1  0
 23 29  1  0
 24 25  1  0
 24 26  1  0
 25 30  1  0
 26 27  1  0
 27 31  1  0
  5  6  1  0
  5  7  1  0
  6 11  1  0
  7  8  1  0
  7  9  1  0
  8 12  1  0
  9 10  1  0
 10 13  1  0
M  END
> <minimizedAffinity>
-5.78243

> <CNNscore>
0.8663786650

> <CNNaffinity>
3.2949078083

> <CNN_VS>
2.8546378613

> <CNNaffinity_variance>
0.4592142105

$$$$



 31 32  0  0  0  0  0  0  0  0999 V2000
    4.9888  -18.6159    3.7797 O   0  0  0  0  0  0  0  0  0  0  0  0
    7.6789  -17.7504    6.0447 C   0  0  0  0  0  0  0  0  0  0  0  0
    6.7719  -18.5356    5.2668 O   0  0  0  0  0  0  0  0  0  0  0  0
    5.7856  -17.7581    4.5963 C   0  0  0  0  0  0  0  0  0  0  0  0
    4.8751  -17.0629    5.6383 C   0  0  0  0  0  0  0  0  0  0  0  0
    3.8872  -16.2292    5.0116 O   0  0  0  0  0  0  0  0  0  0  0  0
    5.7544  -16.2337    6.5942 C   0  0  0  0  0  0  0  0  0  0  0  0
    4.9677  -15.6682    7.6517 O   0  0  0  0  0  0  0  0  0  0  0  0
    6.9124  -17.0638    7.1790 C   0  0  0  0  0  0  0  0  0  0  0  0
    7.7973  -16.2513    7.9555 O   0  0  0  0  0  0  0  0  0  0  0  0
    4.2563  -15.3417    4.8741 H   0  0  0  0  0  0  0  0  0  0  0  0
    4.5312  -16.3971    8.1308 H   0  0  0  0  0  0  0  0  0  0  0  0
    7.7297  -15.3294    7.6488 H   0  0  0  0  0  0  0  0  0  0  0  0
   10.0375  -18.2897    6.0811 O   0  0  0  0  0  0  0  0  0  0  0  0
    8.7628  -18.6882    6.5896 C   0  0  0  0  0  0  0  0  0  0  0  0
   10.6326  -19.0505    6.1934 H   0  0  0  0  0  0  0  0  0  0  0  0
    5.6852  -19.0047    2.5809 C   0  0  0  0  0  0  0  0  0  0  0  0
    4.7276  -19.7777    1.6576 C   0  0  0  0  0  0  0  0  0  0  0  0
    3.5700  -20.1411    2.4158 O   0  0  0  0  0  0  0  0  0  0  0  0
    2.5418  -20.7747    1.6807 C   0  0  0  0  0  0  0  0  0  0  0  0
    2.9140  -22.0977    1.3015 O   0  0  0  0  0  0  0  0  0  0  0  0
    2.0778  -19.9340    0.4789 C   0  0  0  0  0  0  0  0  0  0  0  0
    1.0755  -20.6271   -0.2741 O   0  0  0  0  0  0  0  0  0  0  0  0
    3.2785  -19.5945   -0.4114 C   0  0  0  0  0  0  0  0  0  0  0  0
    2.9130  -18.7243   -1.4913 O   0  0  0  0  0  0  0  0  0  0  0  0
    4.4008  -18.9441    0.4104 C   0  0  0  0  0  0  0  0  0  0  0  0
    5.5948  -18.8013   -0.3749 O   0  0  0  0  0  0  0  0  0  0  0  0
    3.5917  -22.0528    0.6122 H   0  0  0  0  0  0  0  0  0  0  0  0
    1.3229  -21.5706   -0.2949 H   0  0  0  0  0  0  0  0  0  0  0  0
    2.4813  -17.9357   -1.1145 H   0  0  0  0  0  0  0  0  0  0  0  0
    5.4839  -19.3018   -1.2026 H   0  0  0  0  0  0  0  0  0  0  0  0
 14 15  1  0
 14 16  1  0
  2  3  1  0
  2  9  1  0
  2 15  1  0
  3  4  1  0
  4  5  1  0
  4  1  1  0
  1 17  1  0
 18 19  1  0
 18 26  1  0
 18 17  1  0
 19 20  1  0
 20 21  1  0
 20 22  1  0
 21 28  1  0
 22 23  1  0
 22 24  1  0
 23 29  1  0
 24 25  1  0
 24 26  1  0
 25 30  1  0
 26 27  1  0
 27 31  1  0
  5  6  1  0
  5  7  1  0
  6 11  1  0
  7  8  1  0
  7  9  1  0
  8 12  1  0
  9 10  1  0
 10 13  1  0
M  END
> <minimizedAffinity>
-5.05228

> <CNNscore>
0.8507329226

> <CNNaffinity>
2.8099639416

> <CNN_VS>
2.3905289173

> <CNNaffinity_variance>
0.7809584737

$$$$



 31 32  0  0  0  0  0  0  0  0999 V2000
    4.8907  -18.4308    2.5244 O   0  0  0  0  0  0  0  0  0  0  0  0
    5.9336  -18.7257    5.9800 C   0  0  0  0  0  0  0  0  0  0  0  0
    5.3340  -19.0428    4.7213 O   0  0  0  0  0  0  0  0  0  0  0  0
    5.4334  -17.9895    3.7686 C   0  0  0  0  0  0  0  0  0  0  0  0
    4.6290  -16.7626    4.2645 C   0  0  0  0  0  0  0  0  0  0  0  0
    4.7330  -15.6541    3.3566 O   0  0  0  0  0  0  0  0  0  0  0  0
    5.1378  -16.3652    5.6636 C   0  0  0  0  0  0  0  0  0  0  0  0
    4.3408  -15.3088    6.2166 O   0  0  0  0  0  0  0  0  0  0  0  0
    5.1718  -17.5657    6.6277 C   0  0  0  0  0  0  0  0  0  0  0  0
    5.7714  -17.2146    7.8780 O   0  0  0  0  0  0  0  0  0  0  0  0
    5.5129  -15.1232    3.5861 H   0  0  0  0  0  0  0  0  0  0  0  0
    3.4160  -15.6155    6.2611 H   0  0  0  0  0  0  0  0  0  0  0  0
    6.3668  -16.4563    7.7403 H   0  0  0  0  0  0  0  0  0  0  0  0
    4.6565  -20.0081    7.5862 O   0  0  0  0  0  0  0  0  0  0  0  0
    5.8834  -19.9849    6.8537 C   0  0  0  0  0  0  0  0  0  0  0  0
    4.7839  -20.6290    8.3237 H   0  0  0  0  0  0  0  0  0  0  0  0
    5.1829  -19.8195    2.2807 C   0  0  0  0  0  0  0  0  0  0  0  0
    6.1489  -19.9405    1.0895 C   0  0  0  0  0  0  0  0  0  0  0  0
    5.9518  -18.8093    0.2359 O   0  0  0  0  0  0  0  0  0  0  0  0
    6.8399  -18.7188   -0.8605 C   0  0  0  0  0  0  0  0  0  0  0  0
    6.5596  -19.7165   -1.8397 O   0  0  0  0  0  0  0  0  0  0  0  0
    8.3144  -18.7319   -0.4223 C   0  0  0  0  0  0  0  0  0  0  0  0
    9.1862  -18.6933   -1.5582 O   0  0  0  0  0  0  0  0  0  0  0  0
    8.5927  -19.9782    0.4255 C   0  0  0  0  0  0  0  0  0  0  0  0
    9.9298  -19.9831    0.9443 O   0  0  0  0  0  0  0  0  0  0  0  0
    7.5943  -20.0820    1.5875 C   0  0  0  0  0  0  0  0  0  0  0  0
    7.7269  -21.3405    2.2668 O   0  0  0  0  0  0  0  0  0  0  0  0
    6.8243  -20.5820   -1.4974 H   0  0  0  0  0  0  0  0  0  0  0  0
    8.7891  -19.2510   -2.2532 H   0  0  0  0  0  0  0  0  0  0  0  0
   10.0710  -19.1503    1.4309 H   0  0  0  0  0  0  0  0  0  0  0  0
    8.3032  -21.9200    1.7376 H   0  0  0  0  0  0  0  0  0  0  0  0
 14 15  1  0
 14 16  1  0
  2  3  1  0
  2  9  1  0
  2 15  1  0
  3  4  1  0
  4  5  1  0
  4  1  1  0
  1 17  1  0
 18 19  1  0
 18 26  1  0
 18 17  1  0
 19 20  1  0
 20 21  1  0
 20 22  1  0
 21 28  1  0
 22 23  1  0
 22 24  1  0
 23 29  1  0
 24 25  1  0
 24 26  1  0
 25 30  1  0
 26 27  1  0
 27 31  1  0
  5  6  1  0
  5  7  1  0
  6 11  1  0
  7  8  1  0
  7  9  1  0
  8 12  1  0
  9 10  1  0
 10 13  1  0
M  END
> <minimizedAffinity>
-4.23355

> <CNNscore>
0.8237506151

> <CNNaffinity>
3.0737609863

> <CNN_VS>
2.5320124626

> <CNNaffinity_variance>
0.4508874416

$$$$



 31 32  0  0  0  0  0  0  0  0999 V2000
    5.5455  -15.7013    8.4308 O   0  0  0  0  0  0  0  0  0  0  0  0
    8.7786  -15.5087   10.0511 C   0  0  0  0  0  0  0  0  0  0  0  0
    7.7693  -15.8301    9.0908 O   0  0  0  0  0  0  0  0  0  0  0  0
    6.4644  -15.4205    9.4863 C   0  0  0  0  0  0  0  0  0  0  0  0
    6.0353  -16.2032   10.7518 C   0  0  0  0  0  0  0  0  0  0  0  0
    4.7394  -15.7945   11.2180 O   0  0  0  0  0  0  0  0  0  0  0  0
    7.0956  -15.9947   11.8503 C   0  0  0  0  0  0  0  0  0  0  0  0
    6.8041  -16.7986   13.0017 O   0  0  0  0  0  0  0  0  0  0  0  0
    8.5190  -16.2908   11.3421 C   0  0  0  0  0  0  0  0  0  0  0  0
    9.5036  -15.9644   12.3269 O   0  0  0  0  0  0  0  0  0  0  0  0
    4.8388  -15.0432   11.8251 H   0  0  0  0  0  0  0  0  0  0  0  0
    6.7768  -17.7328   12.7227 H   0  0  0  0  0  0  0  0  0  0  0  0
    9.1394  -15.2874   12.9248 H   0  0  0  0  0  0  0  0  0  0  0  0
   10.7560  -14.6926    8.9202 O   0  0  0  0  0  0  0  0  0  0  0  0
   10.1383  -15.8711    9.4416 C   0  0  0  0  0  0  0  0  0  0  0  0
   11.4426  -14.9895    8.2988 H   0  0  0  0  0  0  0  0  0  0  0  0
    5.4124  -17.1172    8.2056 C   0  0  0  0  0  0  0  0  0  0  0  0
    4.9647  -17.3676    6.7552 C   0  0  0  0  0  0  0  0  0  0  0  0
    5.0356  -16.1281    6.0441 O   0  0  0  0  0  0  0  0  0  0  0  0
    4.7501  -16.2085    4.6617 C   0  0  0  0  0  0  0  0  0  0  0  0
    3.3646  -16.4533    4.4309 O   0  0  0  0  0  0  0  0  0  0  0  0
    5.6490  -17.2244    3.9363 C   0  0  0  0  0  0  0  0  0  0  0  0
    5.2982  -17.3204    2.5508 O   0  0  0  0  0  0  0  0  0  0  0  0
    5.5361  -18.5943    4.6144 C   0  0  0  0  0  0  0  0  0  0  0  0
    6.4350  -19.5513    4.0372 O   0  0  0  0  0  0  0  0  0  0  0  0
    5.8096  -18.4817    6.1212 C   0  0  0  0  0  0  0  0  0  0  0  0
    5.5176  -19.7190    6.7894 O   0  0  0  0  0  0  0  0  0  0  0  0
    3.1552  -17.3632    4.6851 H   0  0  0  0  0  0  0  0  0  0  0  0
    4.3260  -17.2674    2.4889 H   0  0  0  0  0  0  0  0  0  0  0  0
    7.3363  -19.1814    4.0703 H   0  0  0  0  0  0  0  0  0  0  0  0
    5.0500  -20.3048    6.1680 H   0  0  0  0  0  0  0  0  0  0  0  0
 14 15  1  0
 14 16  1  0
  2  3  1  0
  2  9  1  0
  2 15  1  0
  3  4  1  0
  4  5  1  0
  4  1  1  0
  1 17  1  0
 18 19  1  0
 18 26  1  0
 18 17  1  0
 19 20  1  0
 20 21  1  0
 20 22  1  0
 21 28  1  0
 22 23  1  0
 22 24  1  0
 23 29  1  0
 24 25  1  0
 24 26  1  0
 25 30  1  0
 26 27  1  0
 27 31  1  0
  5  6  1  0
  5  7  1  0
  6 11  1  0
  7  8  1  0
  7  9  1  0
  8 12  1  0
  9 10  1  0
 10 13  1  0
M  END
> <minimizedAffinity>
-5.17657

> <CNNscore>
0.8219406605

> <CNNaffinity>
3.3364648819

> <CNN_VS>
2.7423760891

> <CNNaffinity_variance>
0.2519122660

$$$$



 31 32  0  0  0  0  0  0  0  0999 V2000
    7.8278  -16.3307    7.9109 O   0  0  0  0  0  0  0  0  0  0  0  0
    6.8980  -18.3698    5.0660 C   0  0  0  0  0  0  0  0  0  0  0  0
    7.6679  -17.5237    5.9238 O   0  0  0  0  0  0  0  0  0  0  0  0
    6.9537  -17.0905    7.0767 C   0  0  0  0  0  0  0  0  0  0  0  0
    5.7635  -16.1983    6.6460 C   0  0  0  0  0  0  0  0  0  0  0  0
    4.9830  -15.7695    7.7732 O   0  0  0  0  0  0  0  0  0  0  0  0
    4.8880  -16.9821    5.6491 C   0  0  0  0  0  0  0  0  0  0  0  0
    3.8397  -16.1537    5.1279 O   0  0  0  0  0  0  0  0  0  0  0  0
    5.7180  -17.5770    4.4962 C   0  0  0  0  0  0  0  0  0  0  0  0
    4.9187  -18.4127    3.6544 O   0  0  0  0  0  0  0  0  0  0  0  0
    4.3007  -16.4338    7.9629 H   0  0  0  0  0  0  0  0  0  0  0  0
    4.2480  -15.3814    4.6940 H   0  0  0  0  0  0  0  0  0  0  0  0
    4.1613  -18.7457    4.1682 H   0  0  0  0  0  0  0  0  0  0  0  0
    8.7966  -19.7615    4.5060 O   0  0  0  0  0  0  0  0  0  0  0  0
    7.8230  -18.8743    3.9518 C   0  0  0  0  0  0  0  0  0  0  0  0
    9.5203  -19.8203    3.8590 H   0  0  0  0  0  0  0  0  0  0  0  0
    7.9189  -16.8912    9.2340 C   0  0  0  0  0  0  0  0  0  0  0  0
    8.3671  -15.8023   10.2242 C   0  0  0  0  0  0  0  0  0  0  0  0
    9.6065  -15.2580    9.7609 O   0  0  0  0  0  0  0  0  0  0  0  0
   10.1053  -14.1687   10.5117 C   0  0  0  0  0  0  0  0  0  0  0  0
   10.5766  -14.5910   11.7893 O   0  0  0  0  0  0  0  0  0  0  0  0
    9.0909  -13.0172   10.6174 C   0  0  0  0  0  0  0  0  0  0  0  0
    9.6059  -11.9543   11.4279 O   0  0  0  0  0  0  0  0  0  0  0  0
    7.7705  -13.5401   11.1942 C   0  0  0  0  0  0  0  0  0  0  0  0
    6.7583  -12.5242   11.2162 O   0  0  0  0  0  0  0  0  0  0  0  0
    7.2643  -14.7473   10.3914 C   0  0  0  0  0  0  0  0  0  0  0  0
    6.1367  -15.3573   11.0388 O   0  0  0  0  0  0  0  0  0  0  0  0
    9.8209  -14.8287   12.3450 H   0  0  0  0  0  0  0  0  0  0  0  0
   10.0937  -12.3593   12.1694 H   0  0  0  0  0  0  0  0  0  0  0  0
    6.6664  -12.1660   10.3143 H   0  0  0  0  0  0  0  0  0  0  0  0
    6.0462  -14.9758   11.9299 H   0  0  0  0  0  0  0  0  0  0  0  0
 14 15  1  0
 14 16  1  0
  2  3  1  0
  2  9  1  0
  2 15  1  0
  3  4  1  0
  4  5  1  0
  4  1  1  0
  1 17  1  0
 18 19  1  0
 18 26  1  0
 18 17  1  0
 19 20  1  0
 20 21  1  0
 20 22  1  0
 21 28  1  0
 22 23  1  0
 22 24  1  0
 23 29  1  0
 24 25  1  0
 24 26  1  0
 25 30  1  0
 26 27  1  0
 27 31  1  0
  5  6  1  0
  5  7  1  0
  6 11  1  0
  7  8  1  0
  7  9  1  0
  8 12  1  0
  9 10  1  0
 10 13  1  0
M  END
> <minimizedAffinity>
-4.91829

> <CNNscore>
0.7736462355

> <CNNaffinity>
2.9481956959

> <CNN_VS>
2.2808604240

> <CNNaffinity_variance>
0.5410709381

$$$$



 31 32  0  0  0  0  0  0  0  0999 V2000
    4.9440  -17.6993    7.4265 O   0  0  0  0  0  0  0  0  0  0  0  0
    6.7002  -18.8839    4.4891 C   0  0  0  0  0  0  0  0  0  0  0  0
    6.4496  -18.4740    5.8358 O   0  0  0  0  0  0  0  0  0  0  0  0
    5.1241  -17.9974    6.0422 C   0  0  0  0  0  0  0  0  0  0  0  0
    4.9004  -16.7081    5.2141 C   0  0  0  0  0  0  0  0  0  0  0  0
    3.5604  -16.2098    5.3543 O   0  0  0  0  0  0  0  0  0  0  0  0
    5.2149  -17.0048    3.7350 C   0  0  0  0  0  0  0  0  0  0  0  0
    5.1397  -15.8093    2.9464 O   0  0  0  0  0  0  0  0  0  0  0  0
    6.5926  -17.6708    3.5604 C   0  0  0  0  0  0  0  0  0  0  0  0
    6.8146  -18.0634    2.2030 O   0  0  0  0  0  0  0  0  0  0  0  0
    2.9906  -16.6290    4.6892 H   0  0  0  0  0  0  0  0  0  0  0  0
    5.7736  -15.1634    3.3101 H   0  0  0  0  0  0  0  0  0  0  0  0
    5.9533  -18.1952    1.7680 H   0  0  0  0  0  0  0  0  0  0  0  0
    9.0094  -18.6869    5.1848 O   0  0  0  0  0  0  0  0  0  0  0  0
    8.1025  -19.5027    4.4405 C   0  0  0  0  0  0  0  0  0  0  0  0
    9.9051  -18.9287    4.8936 H   0  0  0  0  0  0  0  0  0  0  0  0
    5.5819  -18.6785    8.2676 C   0  0  0  0  0  0  0  0  0  0  0  0
    6.5115  -17.9700    9.2679 C   0  0  0  0  0  0  0  0  0  0  0  0
    7.8644  -18.2033    8.8651 O   0  0  0  0  0  0  0  0  0  0  0  0
    8.8459  -17.5310    9.6291 C   0  0  0  0  0  0  0  0  0  0  0  0
    8.9622  -18.0923   10.9346 O   0  0  0  0  0  0  0  0  0  0  0  0
    8.6174  -16.0103    9.6680 C   0  0  0  0  0  0  0  0  0  0  0  0
    9.5959  -15.3667   10.4929 O   0  0  0  0  0  0  0  0  0  0  0  0
    7.2039  -15.7108   10.1796 C   0  0  0  0  0  0  0  0  0  0  0  0
    6.9068  -14.3083   10.1366 O   0  0  0  0  0  0  0  0  0  0  0  0
    6.1541  -16.4800    9.3646 C   0  0  0  0  0  0  0  0  0  0  0  0
    4.8521  -16.3555    9.9580 O   0  0  0  0  0  0  0  0  0  0  0  0
    8.1781  -17.8605   11.4520 H   0  0  0  0  0  0  0  0  0  0  0  0
    9.7561  -15.9429   11.2636 H   0  0  0  0  0  0  0  0  0  0  0  0
    7.0592  -13.9923    9.2271 H   0  0  0  0  0  0  0  0  0  0  0  0
    4.9493  -15.9521   10.8387 H   0  0  0  0  0  0  0  0  0  0  0  0
 14 15  1  0
 14 16  1  0
  2  3  1  0
  2  9  1  0
  2 15  1  0
  3  4  1  0
  4  5  1  0
  4  1  1  0
  1 17  1  0
 18 19  1  0
 18 26  1  0
 18 17  1  0
 19 20  1  0
 20 21  1  0
 20 22  1  0
 21 28  1  0
 22 23  1  0
 22 24  1  0
 23 29  1  0
 24 25  1  0
 24 26  1  0
 25 30  1  0
 26 27  1  0
 27 31  1  0
  5  6  1  0
  5  7  1  0
  6 11  1  0
  7  8  1  0
  7  9  1  0
  8 12  1  0
  9 10  1  0
 10 13  1  0
M  END
> <minimizedAffinity>
-4.28380

> <CNNscore>
0.7733686566

> <CNNaffinity>
2.9133806229

> <CNN_VS>
2.2531173229

> <CNNaffinity_variance>
0.5371316671

$$$$



 31 32  0  0  0  0  0  0  0  0999 V2000
    5.1451  -18.4906    7.7262 O   0  0  0  0  0  0  0  0  0  0  0  0
    5.8028  -16.1104   10.3753 C   0  0  0  0  0  0  0  0  0  0  0  0
    5.9835  -16.8993    9.1966 O   0  0  0  0  0  0  0  0  0  0  0  0
    4.9205  -17.8174    8.9647 C   0  0  0  0  0  0  0  0  0  0  0  0
    4.8771  -18.8617   10.1073 C   0  0  0  0  0  0  0  0  0  0  0  0
    3.7915  -19.7881    9.9424 O   0  0  0  0  0  0  0  0  0  0  0  0
    4.7572  -18.1225   11.4540 C   0  0  0  0  0  0  0  0  0  0  0  0
    4.8360  -19.0427   12.5513 O   0  0  0  0  0  0  0  0  0  0  0  0
    5.8245  -17.0225   11.6054 C   0  0  0  0  0  0  0  0  0  0  0  0
    5.6193  -16.2561   12.7955 O   0  0  0  0  0  0  0  0  0  0  0  0
    2.9943  -19.4267   10.3629 H   0  0  0  0  0  0  0  0  0  0  0  0
    5.6871  -19.5154   12.4928 H   0  0  0  0  0  0  0  0  0  0  0  0
    4.6799  -16.3090   13.0467 H   0  0  0  0  0  0  0  0  0  0  0  0
    7.9104  -15.3895    9.4299 O   0  0  0  0  0  0  0  0  0  0  0  0
    6.9343  -15.0766   10.4257 C   0  0  0  0  0  0  0  0  0  0  0  0
    8.7238  -14.9185    9.6793 H   0  0  0  0  0  0  0  0  0  0  0  0
    6.3954  -18.0996    7.1287 C   0  0  0  0  0  0  0  0  0  0  0  0
    6.1712  -17.7533    5.6466 C   0  0  0  0  0  0  0  0  0  0  0  0
    6.4063  -18.9320    4.8705 O   0  0  0  0  0  0  0  0  0  0  0  0
    6.1428  -18.8059    3.4871 C   0  0  0  0  0  0  0  0  0  0  0  0
    7.1177  -17.9872    2.8452 O   0  0  0  0  0  0  0  0  0  0  0  0
    4.7073  -18.3303    3.2055 C   0  0  0  0  0  0  0  0  0  0  0  0
    4.4906  -18.1615    1.7996 O   0  0  0  0  0  0  0  0  0  0  0  0
    4.4399  -17.0179    3.9508 C   0  0  0  0  0  0  0  0  0  0  0  0
    3.0798  -16.5874    3.8022 O   0  0  0  0  0  0  0  0  0  0  0  0
    4.7693  -17.1611    5.4437 C   0  0  0  0  0  0  0  0  0  0  0  0
    4.7054  -15.8890    6.1074 O   0  0  0  0  0  0  0  0  0  0  0  0
    6.9861  -17.0664    3.1121 H   0  0  0  0  0  0  0  0  0  0  0  0
    5.3056  -17.7832    1.4195 H   0  0  0  0  0  0  0  0  0  0  0  0
    2.4970  -17.3148    4.0874 H   0  0  0  0  0  0  0  0  0  0  0  0
    4.6335  -15.1902    5.4333 H   0  0  0  0  0  0  0  0  0  0  0  0
 14 15  1  0
 14 16  1  0
  2  3  1  0
  2  9  1  0
  2 15  1  0
  3  4  1  0
  4  5  1  0
  4  1  1  0
  1 17  1  0
 18 19  1  0
 18 26  1  0
 18 17  1  0
 19 20  1  0
 20 21  1  0
 20 22  1  0
 21 28  1  0
 22 23  1  0
 22 24  1  0
 23 29  1  0
 24 25  1  0
 24 26  1  0
 25 30  1  0
 26 27  1  0
 27 31  1  0
  5  6  1  0
  5  7  1  0
  6 11  1  0
  7  8  1  0
  7  9  1  0
  8 12  1  0
  9 10  1  0
 10 13  1  0
M  END
> <minimizedAffinity>
-4.35280

> <CNNscore>
0.7728301883

> <CNNaffinity>
2.9656469822

> <CNN_VS>
2.2919414043

> <CNNaffinity_variance>
0.3911243975

$$$$



 31 32  0  0  0  0  0  0  0  0999 V2000
    6.4451  -16.3034    8.8935 O   0  0  0  0  0  0  0  0  0  0  0  0
    8.3487  -13.8703   10.7835 C   0  0  0  0  0  0  0  0  0  0  0  0
    8.0461  -14.9743    9.9268 O   0  0  0  0  0  0  0  0  0  0  0  0
    6.6526  -15.2508    9.8350 C   0  0  0  0  0  0  0  0  0  0  0  0
    6.1191  -15.6974   11.2185 C   0  0  0  0  0  0  0  0  0  0  0  0
    4.7048  -15.9476   11.1896 O   0  0  0  0  0  0  0  0  0  0  0  0
    6.4546  -14.6097   12.2571 C   0  0  0  0  0  0  0  0  0  0  0  0
    6.0881  -15.0328   13.5775 O   0  0  0  0  0  0  0  0  0  0  0  0
    7.9429  -14.2154   12.2194 C   0  0  0  0  0  0  0  0  0  0  0  0
    8.2135  -13.1135   13.0903 O   0  0  0  0  0  0  0  0  0  0  0  0
    4.2287  -15.1212   11.3723 H   0  0  0  0  0  0  0  0  0  0  0  0
    6.5670  -15.8587   13.7773 H   0  0  0  0  0  0  0  0  0  0  0  0
    7.3941  -12.6024   13.2162 H   0  0  0  0  0  0  0  0  0  0  0  0
   10.3381  -14.0663    9.4200 O   0  0  0  0  0  0  0  0  0  0  0  0
    9.8534  -13.5940   10.6787 C   0  0  0  0  0  0  0  0  0  0  0  0
   11.3030  -14.1499    9.5065 H   0  0  0  0  0  0  0  0  0  0  0  0
    5.6535  -15.8651    7.7734 C   0  0  0  0  0  0  0  0  0  0  0  0
    6.0813  -16.6317    6.5100 C   0  0  0  0  0  0  0  0  0  0  0  0
    6.7706  -17.8175    6.9173 O   0  0  0  0  0  0  0  0  0  0  0  0
    7.1439  -18.6887    5.8681 C   0  0  0  0  0  0  0  0  0  0  0  0
    8.2043  -18.1394    5.0894 O   0  0  0  0  0  0  0  0  0  0  0  0
    5.9444  -19.1103    5.0023 C   0  0  0  0  0  0  0  0  0  0  0  0
    6.3645  -19.9477    3.9187 O   0  0  0  0  0  0  0  0  0  0  0  0
    5.2253  -17.8655    4.4706 C   0  0  0  0  0  0  0  0  0  0  0  0
    4.0380  -18.2057    3.7413 O   0  0  0  0  0  0  0  0  0  0  0  0
    4.8631  -16.9122    5.6186 C   0  0  0  0  0  0  0  0  0  0  0  0
    4.3657  -15.6640    5.1113 O   0  0  0  0  0  0  0  0  0  0  0  0
    7.8644  -17.4014    4.5638 H   0  0  0  0  0  0  0  0  0  0  0  0
    7.2151  -19.6002    3.5908 H   0  0  0  0  0  0  0  0  0  0  0  0
    3.4750  -18.7566    4.3155 H   0  0  0  0  0  0  0  0  0  0  0  0
    4.5261  -15.6328    4.1515 H   0  0  0  0  0  0  0  0  0  0  0  0
 14 15  1  0
 14 16  1  0
  2  3  1  0
  2  9  1  0
  2 15  1  0
  3  4  1  0
  4  5  1  0
  4  1  1  0
  1 17  1  0
 18 19  1  0
 18 26  1  0
 18 17  1  0
 19 20  1  0
 20 21  1  0
 20 22  1  0
 21 28  1  0
 22 23  1  0
 22 24  1  0
 23 29  1  0
 24 25  1  0
 24 26  1  0
 25 30  1  0
 26 27  1  0
 27 31  1  0
  5  6  1  0
  5  7  1  0
  6 11  1  0
  7  8  1  0
  7  9  1  0
  8 12  1  0
  9 10  1  0
 10 13  1  0
M  END
> <minimizedAffinity>
-4.86739

> <CNNscore>
0.6985269785

> <CNNaffinity>
3.2836253643

> <CNN_VS>
2.2937009335

> <CNNaffinity_variance>
0.1844236851

$$$$



 31 32  0  0  0  0  0  0  0  0999 V2000
    7.7175  -16.5453    7.9715 O   0  0  0  0  0  0  0  0  0  0  0  0
    6.3067  -19.0536    5.7729 C   0  0  0  0  0  0  0  0  0  0  0  0
    7.2625  -18.1951    6.4003 O   0  0  0  0  0  0  0  0  0  0  0  0
    6.6810  -17.2929    7.3356 C   0  0  0  0  0  0  0  0  0  0  0  0
    5.7341  -16.3161    6.5958 C   0  0  0  0  0  0  0  0  0  0  0  0
    5.0870  -15.4101    7.5036 O   0  0  0  0  0  0  0  0  0  0  0  0
    4.6895  -17.1330    5.8110 C   0  0  0  0  0  0  0  0  0  0  0  0
    3.8644  -16.2745    5.0115 O   0  0  0  0  0  0  0  0  0  0  0  0
    5.3449  -18.2121    4.9289 C   0  0  0  0  0  0  0  0  0  0  0  0
    4.3630  -19.0494    4.3119 O   0  0  0  0  0  0  0  0  0  0  0  0
    4.2677  -15.8149    7.8318 H   0  0  0  0  0  0  0  0  0  0  0  0
    4.4414  -15.7776    4.4020 H   0  0  0  0  0  0  0  0  0  0  0  0
    3.5522  -19.0349    4.8513 H   0  0  0  0  0  0  0  0  0  0  0  0
    7.1178  -19.5929    3.5579 O   0  0  0  0  0  0  0  0  0  0  0  0
    7.0762  -20.0593    4.9080 C   0  0  0  0  0  0  0  0  0  0  0  0
    7.3351  -20.3620    3.0039 H   0  0  0  0  0  0  0  0  0  0  0  0
    7.6097  -16.6029    9.4062 C   0  0  0  0  0  0  0  0  0  0  0  0
    7.9175  -15.2180   10.0012 C   0  0  0  0  0  0  0  0  0  0  0  0
    7.0868  -15.0294   11.1507 O   0  0  0  0  0  0  0  0  0  0  0  0
    7.3211  -13.8382   11.8754 C   0  0  0  0  0  0  0  0  0  0  0  0
    6.8692  -12.6942   11.1545 O   0  0  0  0  0  0  0  0  0  0  0  0
    8.7871  -13.7030   12.3215 C   0  0  0  0  0  0  0  0  0  0  0  0
    9.0017  -12.4625   13.0050 O   0  0  0  0  0  0  0  0  0  0  0  0
    9.7120  -13.8117   11.1041 C   0  0  0  0  0  0  0  0  0  0  0  0
   11.0956  -13.7946   11.4818 O   0  0  0  0  0  0  0  0  0  0  0  0
    9.4167  -15.0903   10.3067 C   0  0  0  0  0  0  0  0  0  0  0  0
   10.1425  -15.1010    9.0674 O   0  0  0  0  0  0  0  0  0  0  0  0
    7.4594  -12.5370   10.4039 H   0  0  0  0  0  0  0  0  0  0  0  0
    8.4755  -11.7798   12.5480 H   0  0  0  0  0  0  0  0  0  0  0  0
   11.2413  -14.5013   12.1371 H   0  0  0  0  0  0  0  0  0  0  0  0
   10.5306  -14.2191    8.9270 H   0  0  0  0  0  0  0  0  0  0  0  0
 14 15  1  0
 14 16  1  0
  2  3  1  0
  2  9  1  0
  2 15  1  0
  3  4  1  0
  4  5  1  0
  4  1  1  0
  1 17  1  0
 18 19  1  0
 18 26  1  0
 18 17  1  0
 19 20  1  0
 20 21  1  0
 20 22  1  0
 21 28  1  0
 22 23  1  0
 22 24  1  0
 23 29  1  0
 24 25  1  0
 24 26  1  0
 25 30  1  0
 26 27  1  0
 27 31  1  0
  5  6  1  0
  5  7  1  0
  6 11  1  0
  7  8  1  0
  7  9  1  0
  8 12  1  0
  9 10  1  0
 10 13  1  0
M  END
> <minimizedAffinity>
-4.86950

> <CNNscore>
0.6981744766

> <CNNaffinity>
3.1604449749

> <CNN_VS>
2.2065420151

> <CNNaffinity_variance>
0.2119676620

$$$$
