@<TRIPOS>MOLECULE
GDU
 43 45 0 0 0
SMALL
GASTEIGER

@<TRIPOS>ATOM
      1 P          21.0570   70.9044   -3.3978 P.3     1  UNL1        0.2189
      2 O          20.6515   69.6365   -4.0440 O.2     1  UNL1       -0.5170
      3 O          22.0789   71.6940   -4.3596 O.3     1  UNL1       -0.4371
      4 O          19.7562   71.8132   -3.1352 O.3     1  UNL1       -0.3112
      5 C          18.7682   70.9627   -2.5513 C.3     1  UNL1        0.1811
      6 C          17.0728   70.5968   -5.7008 C.3     1  UNL1        0.2383
      7 C          17.0726   69.1717   -5.0909 C.3     1  UNL1        0.1895
      8 O          15.9172   68.4395   -5.5060 O.3     1  UNL1       -0.3779
      9 C          17.0216   69.4693   -3.5696 C.3     1  UNL1        0.1713
     10 C          17.5342   70.9169   -3.4542 C.3     1  UNL1        0.1764
     11 O          17.8811   71.3579   -4.7783 O.3     1  UNL1       -0.3308
     12 O          15.6814   69.3659   -3.0850 O.3     1  UNL1       -0.3794
     13 H          15.9777   67.5662   -5.0944 H       1  UNL1        0.2106
     14 H          15.3975   68.4546   -3.2386 H       1  UNL1        0.2105
     15 N          17.6789   70.5898   -7.0332 N.ar    1  UNL1       -0.2551
     16 C          16.8968   70.4739   -8.1210 C.ar    1  UNL1        0.3323
     17 N          17.4285   70.4684   -9.3576 N.ar    1  UNL1       -0.2743
     18 C          18.7611   70.5695   -9.5252 C.ar    1  UNL1        0.2626
     19 C          19.5978   70.6864   -8.3883 C.ar    1  UNL1        0.0795
     20 C          19.0381   70.6936   -7.1598 C.ar    1  UNL1        0.0869
     21 O          15.6929   70.3823   -7.9856 O.2     1  UNL1       -0.2464
     22 O          19.2437   70.5598  -10.6439 O.2     1  UNL1       -0.2670
     23 H          16.8487   70.3882  -10.1316 H       1  UNL1        0.1734
     24 O          21.7809   70.5835   -1.9959 O.3     1  UNL1       -0.2703
     25 P          23.1268   71.4649   -1.9532 P.3     1  UNL1        0.2208
     26 O          23.7420   71.3608   -0.6117 O.2     1  UNL1       -0.5170
     27 O          24.1607   70.9192   -3.0611 O.3     1  UNL1       -0.4371
     28 O          22.7719   73.0036   -2.2640 O.3     1  UNL1       -0.2858
     29 C          23.5136   73.7961   -1.3358 C.3     1  UNL1        0.2704
     30 C          22.5459   74.5960   -0.4622 C.3     1  UNL1        0.1967
     31 C          21.6804   75.4842   -1.3612 C.3     1  UNL1        0.1715
     32 C          22.6016   76.3249   -2.2525 C.3     1  UNL1        0.1694
     33 C          23.5644   75.3929   -2.9924 C.3     1  UNL1        0.1761
     34 O          21.7116   73.6989    0.2729 O.3     1  UNL1       -0.3775
     35 O          20.8742   76.3444   -0.5533 O.3     1  UNL1       -0.3794
     36 O          23.3419   77.2412   -1.4449 O.3     1  UNL1       -0.3794
     37 O          24.3690   74.6854   -2.0500 O.3     1  UNL1       -0.3258
     38 H          22.2975   73.1563    0.8179 H       1  UNL1        0.2106
     39 H          20.3220   75.7748   -0.0030 H       1  UNL1        0.2105
     40 H          22.6968   77.8021   -0.9949 H       1  UNL1        0.2105
     41 C          24.4664   76.2197   -3.9116 C.3     1  UNL1        0.1693
     42 O          25.2470   75.3429   -4.7258 O.3     1  UNL1       -0.3794
     43 H          25.7994   75.9020   -5.2893 H       1  UNL1        0.2105
@<TRIPOS>BOND
     1    15    16   ar
     2    15    20   ar
     3    15     6    1
     4    16    17   ar
     5    16    21    2
     6    17    18   ar
     7    17    23    1
     8    18    19   ar
     9    18    22    2
    10    19    20   ar
    11     6     7    1
    12     6    11    1
    13     7     8    1
    14     7     9    1
    15     8    13    1
    16     9    10    1
    17     9    12    1
    18    10    11    1
    19    10     5    1
    20    12    14    1
    21     5     4    1
    22     4     1    1
    23     1     2    2
    24     1     3    1
    25     1    24    1
    26    24    25    1
    27    25    26    2
    28    25    27    1
    29    25    28    1
    30    28    29    1
    31    29    30    1
    32    29    37    1
    33    30    31    1
    34    30    34    1
    35    31    32    1
    36    31    35    1
    37    32    33    1
    38    32    36    1
    39    33    41    1
    40    33    37    1
    41    41    42    1
    42    34    38    1
    43    35    39    1
    44    36    40    1
    45    42    43    1
@<TRIPOS>MOLECULE
GDU
 43 45 0 0 0
SMALL
GASTEIGER

@<TRIPOS>ATOM
      1 P          20.6531   71.3965   -2.9680 P.3     1  UNL1        0.2189
      2 O          20.7730   72.0819   -4.2739 O.2     1  UNL1       -0.5170
      3 O          20.3803   72.4855   -1.8135 O.3     1  UNL1       -0.4371
      4 O          19.4312   70.3519   -3.0198 O.3     1  UNL1       -0.3112
      5 C          18.2925   71.0197   -2.4740 C.3     1  UNL1        0.1811
      6 C          16.8334   70.5767   -5.7301 C.3     1  UNL1        0.2383
      7 C          16.8238   69.1590   -5.1033 C.3     1  UNL1        0.1895
      8 O          15.7184   68.3941   -5.5893 O.3     1  UNL1       -0.3779
      9 C          16.6583   69.4725   -3.5934 C.3     1  UNL1        0.1713
     10 C          17.1269   70.9334   -3.4610 C.3     1  UNL1        0.1764
     11 O          17.5561   71.3678   -4.7630 O.3     1  UNL1       -0.3308
     12 O          15.2899   69.3416   -3.2031 O.3     1  UNL1       -0.3794
     13 H          15.7703   67.5272   -5.1630 H       1  UNL1        0.2106
     14 H          15.0393   68.4219   -3.3644 H       1  UNL1        0.2105
     15 N          17.5322   70.5696   -7.0164 N.ar    1  UNL1       -0.2551
     16 C          16.8274   70.4759   -8.1577 C.ar    1  UNL1        0.3323
     17 N          17.4453   70.4707   -9.3536 N.ar    1  UNL1       -0.2743
     18 C          18.7880   70.5499   -9.4255 C.ar    1  UNL1        0.2626
     19 C          19.5438   70.6432   -8.2313 C.ar    1  UNL1        0.0795
     20 C          18.8985   70.6506   -7.0455 C.ar    1  UNL1        0.0869
     21 O          15.6156   70.4043   -8.1087 O.2     1  UNL1       -0.2464
     22 O          19.3485   70.5404  -10.5073 O.2     1  UNL1       -0.2670
     23 H          16.9206   70.4068  -10.1674 H       1  UNL1        0.1734
     24 O          22.0208   70.6091   -2.6487 O.3     1  UNL1       -0.2703
     25 P          23.1110   71.7174   -2.2327 P.3     1  UNL1        0.2208
     26 O          24.4550   71.0995   -2.2016 O.2     1  UNL1       -0.5170
     27 O          23.0963   72.9151   -3.3095 O.3     1  UNL1       -0.4371
     28 O          22.7545   72.3024   -0.7764 O.3     1  UNL1       -0.2858
     29 C          23.2375   71.3579    0.1799 C.3     1  UNL1        0.2704
     30 C          22.1087   70.9848    1.1420 C.3     1  UNL1        0.1967
     31 C          21.6085   72.2534    1.8398 C.3     1  UNL1        0.1715
     32 C          22.8054   72.9634    2.4825 C.3     1  UNL1        0.1694
     33 C          23.8814   73.1884    1.4173 C.3     1  UNL1        0.1761
     34 O          21.0372   70.3839    0.4126 O.3     1  UNL1       -0.3775
     35 O          20.6569   71.9039    2.8472 O.3     1  UNL1       -0.3794
     36 O          23.3310   72.1551    3.5362 O.3     1  UNL1       -0.3794
     37 O          24.3223   71.9316    0.9056 O.3     1  UNL1       -0.3258
     38 H          21.3984   69.5954   -0.0148 H       1  UNL1        0.2106
     39 H          19.9304   71.4510    2.4008 H       1  UNL1        0.2105
     40 H          22.6194   72.0353    4.1786 H       1  UNL1        0.2105
     41 C          25.0673   73.9277    2.0410 C.3     1  UNL1        0.1693
     42 O          25.4852   74.9783    1.1677 O.3     1  UNL1       -0.3794
     43 H          26.2317   75.4186    1.5968 H       1  UNL1        0.2105
@<TRIPOS>BOND
     1    15    16   ar
     2    15    20   ar
     3    15     6    1
     4    16    17   ar
     5    16    21    2
     6    17    18   ar
     7    17    23    1
     8    18    19   ar
     9    18    22    2
    10    19    20   ar
    11     6     7    1
    12     6    11    1
    13     7     8    1
    14     7     9    1
    15     8    13    1
    16     9    10    1
    17     9    12    1
    18    10    11    1
    19    10     5    1
    20    12    14    1
    21     5     4    1
    22     4     1    1
    23     1     2    2
    24     1     3    1
    25     1    24    1
    26    24    25    1
    27    25    26    2
    28    25    27    1
    29    25    28    1
    30    28    29    1
    31    29    30    1
    32    29    37    1
    33    30    31    1
    34    30    34    1
    35    31    32    1
    36    31    35    1
    37    32    33    1
    38    32    36    1
    39    33    41    1
    40    33    37    1
    41    41    42    1
    42    34    38    1
    43    35    39    1
    44    36    40    1
    45    42    43    1
@<TRIPOS>MOLECULE
GDU
 43 45 0 0 0
SMALL
GASTEIGER

@<TRIPOS>ATOM
      1 P          20.7694   71.2764   -1.0870 P.3     1  UNL1        0.2189
      2 O          21.6560   70.8677   -2.1989 O.2     1  UNL1       -0.5170
      3 O          20.8001   72.8795   -0.9377 O.3     1  UNL1       -0.4371
      4 O          19.2658   70.7949   -1.3941 O.3     1  UNL1       -0.3112
      5 C          19.3045   70.0809   -2.6307 C.3     1  UNL1        0.1811
      6 C          17.3872   70.3943   -5.6562 C.3     1  UNL1        0.2383
      7 C          17.1263   68.9428   -5.1787 C.3     1  UNL1        0.1895
      8 O          15.8214   68.5057   -5.5652 O.3     1  UNL1       -0.3779
      9 C          17.2283   69.0844   -3.6377 C.3     1  UNL1        0.1713
     10 C          18.0368   70.3790   -3.4335 C.3     1  UNL1        0.1764
     11 O          18.3892   70.8766   -4.7360 O.3     1  UNL1       -0.3308
     12 O          15.9268   69.2030   -3.0597 O.3     1  UNL1       -0.3794
     13 H          15.7229   67.6000   -5.2399 H       1  UNL1        0.2106
     14 H          15.4509   68.3885   -3.2716 H       1  UNL1        0.2105
     15 N          17.8988   70.4044   -7.0276 N.ar    1  UNL1       -0.2551
     16 C          17.0378   70.4137   -8.0605 C.ar    1  UNL1        0.3323
     17 N          17.4821   70.4266   -9.3311 N.ar    1  UNL1       -0.2743
     18 C          18.8040   70.4204   -9.5892 C.ar    1  UNL1        0.2626
     19 C          19.7227   70.4048   -8.5112 C.ar    1  UNL1        0.0795
     20 C          19.2501   70.3964   -7.2467 C.ar    1  UNL1        0.0869
     21 O          15.8425   70.4198   -7.8433 O.2     1  UNL1       -0.2464
     22 O          19.2072   70.4273  -10.7390 O.2     1  UNL1       -0.2670
     23 H          16.8465   70.4375  -10.0643 H       1  UNL1        0.1734
     24 O          21.2813   70.6015    0.2823 O.3     1  UNL1       -0.2703
     25 P          22.8060   71.0715    0.4926 P.3     1  UNL1        0.2208
     26 O          23.5619   70.0006    1.1788 O.2     1  UNL1       -0.5170
     27 O          23.4784   71.3685   -0.9406 O.3     1  UNL1       -0.4371
     28 O          22.8378   72.4095    1.3864 O.3     1  UNL1       -0.2858
     29 C          22.9476   71.9958    2.7490 C.3     1  UNL1        0.2704
     30 C          21.8080   72.6124    3.5617 C.3     1  UNL1        0.1967
     31 C          21.8861   74.1382    3.4518 C.3     1  UNL1        0.1715
     32 C          23.2942   74.5874    3.8579 C.3     1  UNL1        0.1694
     33 C          24.3218   73.8218    3.0206 C.3     1  UNL1        0.1761
     34 O          20.5543   72.1576    3.0494 O.3     1  UNL1       -0.3775
     35 O          20.9204   74.7323    4.3218 O.3     1  UNL1       -0.3794
     36 O          23.5016   74.3143    5.2444 O.3     1  UNL1       -0.3794
     37 O          24.2026   72.4227    3.2737 O.3     1  UNL1       -0.3258
     38 H          20.5522   71.1942    3.1317 H       1  UNL1        0.2106
     39 H          20.0543   74.4136    4.0379 H       1  UNL1        0.2105
     40 H          22.8309   74.8110    5.7309 H       1  UNL1        0.2105
     41 C          25.7307   74.2879    3.3943 C.3     1  UNL1        0.1693
     42 O          26.6705   73.2579    3.0828 O.3     1  UNL1       -0.3794
     43 H          27.5436   73.5909    3.3320 H       1  UNL1        0.2105
@<TRIPOS>BOND
     1    15    16   ar
     2    15    20   ar
     3    15     6    1
     4    16    17   ar
     5    16    21    2
     6    17    18   ar
     7    17    23    1
     8    18    19   ar
     9    18    22    2
    10    19    20   ar
    11     6     7    1
    12     6    11    1
    13     7     8    1
    14     7     9    1
    15     8    13    1
    16     9    10    1
    17     9    12    1
    18    10    11    1
    19    10     5    1
    20    12    14    1
    21     5     4    1
    22     4     1    1
    23     1     2    2
    24     1     3    1
    25     1    24    1
    26    24    25    1
    27    25    26    2
    28    25    27    1
    29    25    28    1
    30    28    29    1
    31    29    30    1
    32    29    37    1
    33    30    31    1
    34    30    34    1
    35    31    32    1
    36    31    35    1
    37    32    33    1
    38    32    36    1
    39    33    41    1
    40    33    37    1
    41    41    42    1
    42    34    38    1
    43    35    39    1
    44    36    40    1
    45    42    43    1
@<TRIPOS>MOLECULE
GDU
 43 45 0 0 0
SMALL
GASTEIGER

@<TRIPOS>ATOM
      1 P          20.9329   70.8023   -3.4296 P.3     1  UNL1        0.2189
      2 O          20.4784   69.4670   -3.8767 O.2     1  UNL1       -0.5170
      3 O          21.7990   71.4934   -4.5980 O.3     1  UNL1       -0.4371
      4 O          19.6553   71.7199   -3.0942 O.3     1  UNL1       -0.3112
      5 C          18.6633   70.8589   -2.5329 C.3     1  UNL1        0.1811
      6 C          17.0074   70.5285   -5.7072 C.3     1  UNL1        0.2383
      7 C          17.0060   69.0953   -5.1165 C.3     1  UNL1        0.1895
      8 O          15.8588   68.3641   -5.5554 O.3     1  UNL1       -0.3779
      9 C          16.9355   69.3723   -3.5922 C.3     1  UNL1        0.1713
     10 C          17.4404   70.8203   -3.4511 C.3     1  UNL1        0.1764
     11 O          17.8014   71.2804   -4.7650 O.3     1  UNL1       -0.3308
     12 O          15.5899   69.2568   -3.1251 O.3     1  UNL1       -0.3794
     13 H          15.9181   67.4855   -5.1548 H       1  UNL1        0.2106
     14 H          15.3119   68.3464   -3.2943 H       1  UNL1        0.2105
     15 N          17.6295   70.5420   -7.0322 N.ar    1  UNL1       -0.2551
     16 C          16.8586   70.4690   -8.1316 C.ar    1  UNL1        0.3323
     17 N          17.4051   70.4830   -9.3616 N.ar    1  UNL1       -0.2743
     18 C          18.7415   70.5609   -9.5111 C.ar    1  UNL1        0.2626
     19 C          19.5664   70.6326   -8.3619 C.ar    1  UNL1        0.0795
     20 C          18.9919   70.6210   -7.1403 C.ar    1  UNL1        0.0869
     21 O          15.6515   70.3988   -8.0126 O.2     1  UNL1       -0.2464
     22 O          19.2374   70.5689  -10.6239 O.2     1  UNL1       -0.2670
     23 H          16.8333   70.4339  -10.1442 H       1  UNL1        0.1734
     24 O          21.8430   70.6445   -2.1107 O.3     1  UNL1       -0.2703
     25 P          23.0787   71.6629   -2.2719 P.3     1  UNL1        0.2208
     26 O          24.1659   71.0032   -3.0282 O.2     1  UNL1       -0.5170
     27 O          22.5916   72.9755   -3.0682 O.3     1  UNL1       -0.4371
     28 O          23.6178   72.0888   -0.8166 O.3     1  UNL1       -0.2858
     29 C          22.8020   73.1740   -0.3731 C.3     1  UNL1        0.2704
     30 C          23.6878   74.3791   -0.0529 C.3     1  UNL1        0.1967
     31 C          24.6964   73.9829    1.0298 C.3     1  UNL1        0.1715
     32 C          23.9307   73.4008    2.2233 C.3     1  UNL1        0.1694
     33 C          23.0274   72.2676    1.7303 C.3     1  UNL1        0.1761
     34 O          24.3843   74.7877   -1.2315 O.3     1  UNL1       -0.3775
     35 O          25.4328   75.1353    1.4447 O.3     1  UNL1       -0.3794
     36 O          23.1366   74.4234    2.8264 O.3     1  UNL1       -0.3794
     37 O          22.0818   72.7794    0.7923 O.3     1  UNL1       -0.3258
     38 H          23.7120   75.0203   -1.8864 H       1  UNL1        0.2106
     39 H          25.8870   75.4737    0.6627 H       1  UNL1        0.2105
     40 H          23.7448   75.1160    3.1156 H       1  UNL1        0.2105
     41 C          22.2836   71.6564    2.9199 C.3     1  UNL1        0.1693
     42 O          20.9527   72.1738    2.9654 O.3     1  UNL1       -0.3794
     43 H          20.5190   71.7642    3.7266 H       1  UNL1        0.2105
@<TRIPOS>BOND
     1    15    16   ar
     2    15    20   ar
     3    15     6    1
     4    16    17   ar
     5    16    21    2
     6    17    18   ar
     7    17    23    1
     8    18    19   ar
     9    18    22    2
    10    19    20   ar
    11     6     7    1
    12     6    11    1
    13     7     8    1
    14     7     9    1
    15     8    13    1
    16     9    10    1
    17     9    12    1
    18    10    11    1
    19    10     5    1
    20    12    14    1
    21     5     4    1
    22     4     1    1
    23     1     2    2
    24     1     3    1
    25     1    24    1
    26    24    25    1
    27    25    26    2
    28    25    27    1
    29    25    28    1
    30    28    29    1
    31    29    30    1
    32    29    37    1
    33    30    31    1
    34    30    34    1
    35    31    32    1
    36    31    35    1
    37    32    33    1
    38    32    36    1
    39    33    41    1
    40    33    37    1
    41    41    42    1
    42    34    38    1
    43    35    39    1
    44    36    40    1
    45    42    43    1
@<TRIPOS>MOLECULE
GDU
 43 45 0 0 0
SMALL
GASTEIGER

@<TRIPOS>ATOM
      1 P          20.4654   71.0528   -1.7634 P.3     1  UNL1        0.2189
      2 O          20.4082   72.5276   -1.8705 O.2     1  UNL1       -0.5170
      3 O          20.7113   70.6356   -0.2277 O.3     1  UNL1       -0.4371
      4 O          19.0767   70.4230   -2.2749 O.3     1  UNL1       -0.3112
      5 C          18.1743   71.5133   -2.4685 C.3     1  UNL1        0.1811
      6 C          16.8598   70.5060   -5.6599 C.3     1  UNL1        0.2383
      7 C          17.1698   69.1746   -4.9290 C.3     1  UNL1        0.1895
      8 O          16.2671   68.1452   -5.3397 O.3     1  UNL1       -0.3779
      9 C          16.9346   69.5566   -3.4444 C.3     1  UNL1        0.1713
     10 C          17.0604   71.0913   -3.4284 C.3     1  UNL1        0.1764
     11 O          17.3829   71.5110   -4.7656 O.3     1  UNL1       -0.3308
     12 O          15.6305   69.1504   -3.0246 O.3     1  UNL1       -0.3794
     13 H          16.5129   67.3474   -4.8509 H       1  UNL1        0.2106
     14 H          15.5948   68.1883   -3.1131 H       1  UNL1        0.2105
     15 N          17.5447   70.5589   -6.9525 N.ar    1  UNL1       -0.2551
     16 C          16.8296   70.4931   -8.0894 C.ar    1  UNL1        0.3323
     17 N          17.4345   70.5431   -9.2908 N.ar    1  UNL1       -0.2743
     18 C          18.7746   70.6507   -9.3734 C.ar    1  UNL1        0.2626
     19 C          19.5413   70.7153   -8.1842 C.ar    1  UNL1        0.0795
     20 C          18.9089   70.6673   -6.9924 C.ar    1  UNL1        0.0869
     21 O          15.6199   70.3964   -8.0308 O.2     1  UNL1       -0.2464
     22 O          19.3235   70.6913  -10.4604 O.2     1  UNL1       -0.2670
     23 H          16.9023   70.4986  -10.1011 H       1  UNL1        0.1734
     24 O          21.6745   70.4964   -2.6694 O.3     1  UNL1       -0.2703
     25 P          22.9459   71.4400   -2.3815 P.3     1  UNL1        0.2208
     26 O          23.0957   71.6338   -0.9223 O.2     1  UNL1       -0.5170
     27 O          24.2744   70.7442   -2.9691 O.3     1  UNL1       -0.4371
     28 O          22.7290   72.8668   -3.0938 O.3     1  UNL1       -0.2858
     29 C          23.8903   73.1152   -3.8872 C.3     1  UNL1        0.2704
     30 C          24.3215   74.5727   -3.7161 C.3     1  UNL1        0.1967
     31 C          23.1691   75.4870   -4.1429 C.3     1  UNL1        0.1715
     32 C          22.7337   75.0977   -5.5601 C.3     1  UNL1        0.1694
     33 C          22.4207   73.5997   -5.5908 C.3     1  UNL1        0.1761
     34 O          24.6471   74.8178   -2.3468 O.3     1  UNL1       -0.3775
     35 O          23.6054   76.8479   -4.1289 O.3     1  UNL1       -0.3794
     36 O          23.7861   75.3898   -6.4805 O.3     1  UNL1       -0.3794
     37 O          23.5920   72.8563   -5.2571 O.3     1  UNL1       -0.3258
     38 H          25.3701   74.2172   -2.1200 H       1  UNL1        0.2106
     39 H          23.8799   77.0445   -3.2243 H       1  UNL1        0.2105
     40 H          23.9526   76.3397   -6.4229 H       1  UNL1        0.2105
     41 C          21.9518   73.2070   -6.9937 C.3     1  UNL1        0.1693
     42 O          21.0705   74.2115   -7.4990 O.3     1  UNL1       -0.3794
     43 H          20.7993   73.9270   -8.3826 H       1  UNL1        0.2105
@<TRIPOS>BOND
     1    15    16   ar
     2    15    20   ar
     3    15     6    1
     4    16    17   ar
     5    16    21    2
     6    17    18   ar
     7    17    23    1
     8    18    19   ar
     9    18    22    2
    10    19    20   ar
    11     6     7    1
    12     6    11    1
    13     7     8    1
    14     7     9    1
    15     8    13    1
    16     9    10    1
    17     9    12    1
    18    10    11    1
    19    10     5    1
    20    12    14    1
    21     5     4    1
    22     4     1    1
    23     1     2    2
    24     1     3    1
    25     1    24    1
    26    24    25    1
    27    25    26    2
    28    25    27    1
    29    25    28    1
    30    28    29    1
    31    29    30    1
    32    29    37    1
    33    30    31    1
    34    30    34    1
    35    31    32    1
    36    31    35    1
    37    32    33    1
    38    32    36    1
    39    33    41    1
    40    33    37    1
    41    41    42    1
    42    34    38    1
    43    35    39    1
    44    36    40    1
    45    42    43    1
@<TRIPOS>MOLECULE
GDU
 43 45 0 0 0
SMALL
GASTEIGER

@<TRIPOS>ATOM
      1 P          21.2876   71.4926   -3.0717 P.3     1  UNL1        0.2189
      2 O          20.6075   72.4456   -2.1669 O.2     1  UNL1       -0.5170
      3 O          22.5983   70.9043   -2.3443 O.3     1  UNL1       -0.4371
      4 O          20.2867   70.2863   -3.4318 O.3     1  UNL1       -0.3112
      5 C          19.1528   70.4191   -2.5732 C.3     1  UNL1        0.1811
      6 C          17.3025   70.4932   -5.6551 C.3     1  UNL1        0.2383
      7 C          17.1349   69.0423   -5.1354 C.3     1  UNL1        0.1895
      8 O          15.8766   68.4980   -5.5398 O.3     1  UNL1       -0.3779
      9 C          17.1836   69.2403   -3.5980 C.3     1  UNL1        0.1713
     10 C          17.8896   70.5969   -3.4175 C.3     1  UNL1        0.1764
     11 O          18.2408   71.0773   -4.7267 O.3     1  UNL1       -0.3308
     12 O          15.8614   69.2810   -3.0575 O.3     1  UNL1       -0.3794
     13 H          15.8355   67.5984   -5.1865 H       1  UNL1        0.2106
     14 H          15.4522   68.4273   -3.2536 H       1  UNL1        0.2105
     15 N          17.8499   70.4971   -7.0127 N.ar    1  UNL1       -0.2551
     16 C          17.0177   70.4379   -8.0674 C.ar    1  UNL1        0.3323
     17 N          17.4950   70.4436   -9.3260 N.ar    1  UNL1       -0.2743
     18 C          18.8221   70.4991   -9.5497 C.ar    1  UNL1        0.2626
     19 C          19.7109   70.5560   -8.4483 C.ar    1  UNL1        0.0795
     20 C          19.2053   70.5532   -7.1965 C.ar    1  UNL1        0.0869
     21 O          15.8182   70.3880   -7.8813 O.2     1  UNL1       -0.2464
     22 O          19.2553   70.4995  -10.6885 O.2     1  UNL1       -0.2670
     23 H          16.8798   70.4047  -10.0754 H       1  UNL1        0.1734
     24 O          21.7214   72.2533   -4.4229 O.3     1  UNL1       -0.2703
     25 P          23.0068   73.1514   -4.0607 P.3     1  UNL1        0.2208
     26 O          22.8223   73.7601   -2.7248 O.2     1  UNL1       -0.5170
     27 O          24.3235   72.2238   -4.0500 O.3     1  UNL1       -0.4371
     28 O          23.1789   74.3127   -5.1615 O.3     1  UNL1       -0.2858
     29 C          22.0343   74.2497   -6.0135 C.3     1  UNL1        0.2704
     30 C          22.4654   73.8100   -7.4136 C.3     1  UNL1        0.1967
     31 C          23.4899   74.8107   -7.9571 C.3     1  UNL1        0.1715
     32 C          22.8921   76.2195   -7.8711 C.3     1  UNL1        0.1694
     33 C          22.4302   76.4773   -6.4347 C.3     1  UNL1        0.1761
     34 O          23.0531   72.5095   -7.3470 O.3     1  UNL1       -0.3775
     35 O          23.7919   74.4970   -9.3183 O.3     1  UNL1       -0.3794
     36 O          21.7799   76.3219   -8.7614 O.3     1  UNL1       -0.3794
     37 O          21.4203   75.5348   -6.0773 O.3     1  UNL1       -0.3258
     38 H          22.3769   71.9155   -6.9938 H       1  UNL1        0.2106
     39 H          24.1526   73.6013   -9.3257 H       1  UNL1        0.2105
     40 H          22.1159   76.1469   -9.6501 H       1  UNL1        0.2105
     41 C          21.8626   77.8947   -6.3300 C.3     1  UNL1        0.1693
     42 O          22.8822   78.8405   -6.6571 O.3     1  UNL1       -0.3794
     43 H          22.4845   79.7187   -6.5799 H       1  UNL1        0.2105
@<TRIPOS>BOND
     1    15    16   ar
     2    15    20   ar
     3    15     6    1
     4    16    17   ar
     5    16    21    2
     6    17    18   ar
     7    17    23    1
     8    18    19   ar
     9    18    22    2
    10    19    20   ar
    11     6     7    1
    12     6    11    1
    13     7     8    1
    14     7     9    1
    15     8    13    1
    16     9    10    1
    17     9    12    1
    18    10    11    1
    19    10     5    1
    20    12    14    1
    21     5     4    1
    22     4     1    1
    23     1     2    2
    24     1     3    1
    25     1    24    1
    26    24    25    1
    27    25    26    2
    28    25    27    1
    29    25    28    1
    30    28    29    1
    31    29    30    1
    32    29    37    1
    33    30    31    1
    34    30    34    1
    35    31    32    1
    36    31    35    1
    37    32    33    1
    38    32    36    1
    39    33    41    1
    40    33    37    1
    41    41    42    1
    42    34    38    1
    43    35    39    1
    44    36    40    1
    45    42    43    1
@<TRIPOS>MOLECULE
GDU
 43 45 0 0 0
SMALL
GASTEIGER

@<TRIPOS>ATOM
      1 P          20.8455   73.1812   -3.0015 P.3     1  UNL1        0.2189
      2 O          20.4892   74.4852   -3.6034 O.2     1  UNL1       -0.5170
      3 O          20.6528   73.2569   -1.4046 O.3     1  UNL1       -0.4371
      4 O          19.8927   72.0337   -3.6032 O.3     1  UNL1       -0.3112
      5 C          18.7098   72.0161   -2.8026 C.3     1  UNL1        0.1811
      6 C          17.1697   70.7554   -5.7970 C.3     1  UNL1        0.2383
      7 C          17.4921   69.4894   -4.9626 C.3     1  UNL1        0.1895
      8 O          16.5394   68.4546   -5.2172 O.3     1  UNL1       -0.3779
      9 C          17.3617   70.0160   -3.5097 C.3     1  UNL1        0.1713
     10 C          17.5267   71.5408   -3.6480 C.3     1  UNL1        0.1764
     11 O          17.7739   71.8231   -5.0364 O.3     1  UNL1       -0.3308
     12 O          16.0772   69.6917   -2.9741 O.3     1  UNL1       -0.3794
     13 H          16.7957   67.6989   -4.6703 H       1  UNL1        0.2106
     14 H          16.0117   68.7271   -2.9680 H       1  UNL1        0.2105
     15 N          17.7720   70.6656   -7.1282 N.ar    1  UNL1       -0.2551
     16 C          16.9836   70.5304   -8.2091 C.ar    1  UNL1        0.3323
     17 N          17.5119   70.4492   -9.4445 N.ar    1  UNL1       -0.2743
     18 C          18.8469   70.4923   -9.6173 C.ar    1  UNL1        0.2626
     19 C          19.6900   70.6287   -8.4873 C.ar    1  UNL1        0.0795
     20 C          19.1338   70.7123   -7.2601 C.ar    1  UNL1        0.0869
     21 O          15.7774   70.4905   -8.0689 O.2     1  UNL1       -0.2464
     22 O          19.3262   70.4141  -10.7348 O.2     1  UNL1       -0.2670
     23 H          16.9276   70.3562  -10.2138 H       1  UNL1        0.1734
     24 O          22.3816   72.8371   -3.3395 O.3     1  UNL1       -0.2703
     25 P          22.7923   71.5826   -2.4188 P.3     1  UNL1        0.2208
     26 O          21.7524   70.5350   -2.5206 O.2     1  UNL1       -0.5170
     27 O          24.2029   70.9883   -2.9200 O.3     1  UNL1       -0.4371
     28 O          22.9262   72.0603   -0.8878 O.3     1  UNL1       -0.2858
     29 C          23.0271   70.8788   -0.0918 C.3     1  UNL1        0.2704
     30 C          21.8431   70.8129    0.8741 C.3     1  UNL1        0.1967
     31 C          21.8512   72.0634    1.7588 C.3     1  UNL1        0.1715
     32 C          23.2279   72.1857    2.4218 C.3     1  UNL1        0.1694
     33 C          24.3076   72.1494    1.3373 C.3     1  UNL1        0.1761
     34 O          20.6231   70.7572    0.1327 O.3     1  UNL1       -0.3775
     35 O          20.8407   71.9478    2.7628 O.3     1  UNL1       -0.3794
     36 O          23.4191   71.0999    3.3297 O.3     1  UNL1       -0.3794
     37 O          24.2494   70.9050    0.6417 O.3     1  UNL1       -0.3258
     38 H          20.6648   69.9607   -0.4138 H       1  UNL1        0.2106
     39 H          19.9967   71.8615    2.3018 H       1  UNL1        0.2105
     40 H          22.7157   71.1593    3.9893 H       1  UNL1        0.2105
     41 C          25.6849   72.3053    1.9859 C.3     1  UNL1        0.1693
     42 O          26.1859   71.0188    2.3531 O.3     1  UNL1       -0.3794
     43 H          27.0533   71.1610    2.7565 H       1  UNL1        0.2105
@<TRIPOS>BOND
     1    15    16   ar
     2    15    20   ar
     3    15     6    1
     4    16    17   ar
     5    16    21    2
     6    17    18   ar
     7    17    23    1
     8    18    19   ar
     9    18    22    2
    10    19    20   ar
    11     6     7    1
    12     6    11    1
    13     7     8    1
    14     7     9    1
    15     8    13    1
    16     9    10    1
    17     9    12    1
    18    10    11    1
    19    10     5    1
    20    12    14    1
    21     5     4    1
    22     4     1    1
    23     1     2    2
    24     1     3    1
    25     1    24    1
    26    24    25    1
    27    25    26    2
    28    25    27    1
    29    25    28    1
    30    28    29    1
    31    29    30    1
    32    29    37    1
    33    30    31    1
    34    30    34    1
    35    31    32    1
    36    31    35    1
    37    32    33    1
    38    32    36    1
    39    33    41    1
    40    33    37    1
    41    41    42    1
    42    34    38    1
    43    35    39    1
    44    36    40    1
    45    42    43    1
@<TRIPOS>MOLECULE
GDU
 43 45 0 0 0
SMALL
GASTEIGER

@<TRIPOS>ATOM
      1 P          22.2841   71.1998    0.0404 P.3     1  UNL1        0.2189
      2 O          23.7320   70.9484   -0.1328 O.2     1  UNL1       -0.5170
      3 O          21.6677   70.1099    1.0530 O.3     1  UNL1       -0.4371
      4 O          22.0632   72.6754    0.6409 O.3     1  UNL1       -0.3112
      5 C          22.1707   72.5646    2.0610 C.3     1  UNL1        0.1811
      6 C          25.2523   74.0726    3.1364 C.3     1  UNL1        0.2383
      7 C          25.1443   74.4373    1.6337 C.3     1  UNL1        0.1895
      8 O          25.7679   75.6959    1.3683 O.3     1  UNL1       -0.3779
      9 C          23.6094   74.5269    1.4306 C.3     1  UNL1        0.1713
     10 C          23.0289   73.7104    2.6002 C.3     1  UNL1        0.1764
     11 O          24.1374   73.1805    3.3476 O.3     1  UNL1       -0.3308
     12 O          23.1751   75.8866    1.4968 O.3     1  UNL1       -0.3794
     13 H          25.6664   75.8631    0.4209 H       1  UNL1        0.2106
     14 H          23.6173   76.3572    0.7773 H       1  UNL1        0.2105
     15 N          26.5178   73.3914    3.4144 N.ar    1  UNL1       -0.2551
     16 C          26.7545   72.1802    2.8804 C.ar    1  UNL1        0.3323
     17 N          27.9113   71.5340    3.1174 N.ar    1  UNL1       -0.2743
     18 C          28.8514   72.0897    3.9058 C.ar    1  UNL1        0.2626
     19 C          28.6135   73.3625    4.4798 C.ar    1  UNL1        0.0795
     20 C          27.4465   73.9905    4.2223 C.ar    1  UNL1        0.0869
     21 O          25.9161   71.6665    2.1668 O.2     1  UNL1       -0.2464
     22 O          29.8968   71.5034    4.1248 O.2     1  UNL1       -0.2670
     23 H          28.0671   70.6623    2.7203 H       1  UNL1        0.1734
     24 O          21.5458   71.0832   -1.3857 O.3     1  UNL1       -0.2703
     25 P          22.3791   71.9939   -2.4183 P.3     1  UNL1        0.2208
     26 O          22.9107   73.1801   -1.7116 O.2     1  UNL1       -0.5170
     27 O          23.6018   71.1374   -3.0229 O.3     1  UNL1       -0.4371
     28 O          21.4145   72.4690   -3.6158 O.3     1  UNL1       -0.2858
     29 C          21.5139   71.4834   -4.6446 C.3     1  UNL1        0.2704
     30 C          21.9630   72.1496   -5.9461 C.3     1  UNL1        0.1967
     31 C          20.9476   73.2307   -6.3291 C.3     1  UNL1        0.1715
     32 C          19.5511   72.5998   -6.3673 C.3     1  UNL1        0.1694
     33 C          19.2841   71.9007   -5.0320 C.3     1  UNL1        0.1761
     34 O          23.2494   72.7431   -5.7610 O.3     1  UNL1       -0.3775
     35 O          21.2730   73.7607   -7.6158 O.3     1  UNL1       -0.3794
     36 O          19.4851   71.6494   -7.4313 O.3     1  UNL1       -0.3794
     37 O          20.2435   70.8639   -4.8312 O.3     1  UNL1       -0.3258
     38 H          23.8532   72.0291   -5.5148 H       1  UNL1        0.2106
     39 H          22.1606   74.1349   -7.5481 H       1  UNL1        0.2105
     40 H          19.6647   72.1316   -8.2489 H       1  UNL1        0.2105
     41 C          17.8781   71.2965   -5.0469 C.3     1  UNL1        0.1693
     42 O          17.0442   72.0542   -5.9252 O.3     1  UNL1       -0.3794
     43 H          16.1699   71.6413   -5.9065 H       1  UNL1        0.2105
@<TRIPOS>BOND
     1    15    16   ar
     2    15    20   ar
     3    15     6    1
     4    16    17   ar
     5    16    21    2
     6    17    18   ar
     7    17    23    1
     8    18    19   ar
     9    18    22    2
    10    19    20   ar
    11     6     7    1
    12     6    11    1
    13     7     8    1
    14     7     9    1
    15     8    13    1
    16     9    10    1
    17     9    12    1
    18    10    11    1
    19    10     5    1
    20    12    14    1
    21     5     4    1
    22     4     1    1
    23     1     2    2
    24     1     3    1
    25     1    24    1
    26    24    25    1
    27    25    26    2
    28    25    27    1
    29    25    28    1
    30    28    29    1
    31    29    30    1
    32    29    37    1
    33    30    31    1
    34    30    34    1
    35    31    32    1
    36    31    35    1
    37    32    33    1
    38    32    36    1
    39    33    41    1
    40    33    37    1
    41    41    42    1
    42    34    38    1
    43    35    39    1
    44    36    40    1
    45    42    43    1
@<TRIPOS>MOLECULE
GDU
 43 45 0 0 0
SMALL
GASTEIGER

@<TRIPOS>ATOM
      1 P          15.5384   69.5563   -1.8850 P.3     1  UNL1        0.2189
      2 O          15.9855   70.8782   -1.3928 O.2     1  UNL1       -0.5170
      3 O          16.3612   68.3962   -1.1299 O.3     1  UNL1       -0.4371
      4 O          13.9671   69.3775   -1.5918 O.3     1  UNL1       -0.3112
      5 C          13.8529   68.7736   -0.3023 C.3     1  UNL1        0.1811
      6 C          10.4474   67.6223   -0.2352 C.3     1  UNL1        0.2383
      7 C          11.1295   66.8888    0.9479 C.3     1  UNL1        0.1895
      8 O          10.1957   66.6426    2.0018 O.3     1  UNL1       -0.3779
      9 C          12.2046   67.9153    1.3901 C.3     1  UNL1        0.1713
     10 C          12.3936   68.8151    0.1547 C.3     1  UNL1        0.1764
     11 O          11.5414   68.3038   -0.8848 O.3     1  UNL1       -0.3308
     12 O          11.7390   68.6772    2.5058 O.3     1  UNL1       -0.3794
     13 H          10.6809   66.1861    2.7032 H       1  UNL1        0.2106
     14 H          11.5833   68.0520    3.2265 H       1  UNL1        0.2105
     15 N           9.8222   66.6636   -1.1477 N.ar    1  UNL1       -0.2551
     16 C           8.4966   66.4473   -1.0821 C.ar    1  UNL1        0.3323
     17 N           7.8965   65.5738   -1.9120 N.ar    1  UNL1       -0.2743
     18 C           8.6204   64.8913   -2.8199 C.ar    1  UNL1        0.2626
     19 C          10.0186   65.1046   -2.8966 C.ar    1  UNL1        0.0795
     20 C          10.5943   65.9895   -2.0553 C.ar    1  UNL1        0.0869
     21 O           7.8304   67.0560   -0.2686 O.2     1  UNL1       -0.2464
     22 O           8.0788   64.0969   -3.5683 O.2     1  UNL1       -0.2670
     23 H           6.9381   65.4334   -1.8536 H       1  UNL1        0.1734
     24 O          15.8047   69.4566   -3.4698 O.3     1  UNL1       -0.2703
     25 P          17.3914   69.2725   -3.6657 P.3     1  UNL1        0.2208
     26 O          18.1085   70.2844   -2.8587 O.2     1  UNL1       -0.5170
     27 O          17.8239   67.7978   -3.1837 O.3     1  UNL1       -0.4371
     28 O          17.7667   69.4596   -5.2194 O.3     1  UNL1       -0.2858
     29 C          17.2890   70.7477   -5.6096 C.3     1  UNL1        0.2704
     30 C          16.6719   70.6604   -7.0063 C.3     1  UNL1        0.1967
     31 C          17.7329   70.1564   -7.9895 C.3     1  UNL1        0.1715
     32 C          18.9702   71.0543   -7.8781 C.3     1  UNL1        0.1694
     33 C          19.4144   71.1102   -6.4144 C.3     1  UNL1        0.1761
     34 O          15.5674   69.7543   -6.9857 O.3     1  UNL1       -0.3775
     35 O          17.2169   70.2089   -9.3212 O.3     1  UNL1       -0.3794
     36 O          18.6494   72.3688   -8.3356 O.3     1  UNL1       -0.3794
     37 O          18.3738   71.6728   -5.6166 O.3     1  UNL1       -0.3258
     38 H          14.9295   70.1065   -6.3501 H       1  UNL1        0.2106
     39 H          16.4360   69.6414   -9.3414 H       1  UNL1        0.2105
     40 H          18.3703   72.2842   -9.2566 H       1  UNL1        0.2105
     41 C          20.6701   71.9770   -6.2970 C.3     1  UNL1        0.1693
     42 O          21.7213   71.3987   -7.0726 O.3     1  UNL1       -0.3794
     43 H          22.4921   71.9742   -6.9725 H       1  UNL1        0.2105
@<TRIPOS>BOND
     1    15    16   ar
     2    15    20   ar
     3    15     6    1
     4    16    17   ar
     5    16    21    2
     6    17    18   ar
     7    17    23    1
     8    18    19   ar
     9    18    22    2
    10    19    20   ar
    11     6     7    1
    12     6    11    1
    13     7     8    1
    14     7     9    1
    15     8    13    1
    16     9    10    1
    17     9    12    1
    18    10    11    1
    19    10     5    1
    20    12    14    1
    21     5     4    1
    22     4     1    1
    23     1     2    2
    24     1     3    1
    25     1    24    1
    26    24    25    1
    27    25    26    2
    28    25    27    1
    29    25    28    1
    30    28    29    1
    31    29    30    1
    32    29    37    1
    33    30    31    1
    34    30    34    1
    35    31    32    1
    36    31    35    1
    37    32    33    1
    38    32    36    1
    39    33    41    1
    40    33    37    1
    41    41    42    1
    42    34    38    1
    43    35    39    1
    44    36    40    1
    45    42    43    1
@<TRIPOS>MOLECULE
GDU
 43 45 0 0 0
SMALL
GASTEIGER

@<TRIPOS>ATOM
      1 P          21.4349   71.2459   -1.6687 P.3     1  UNL1        0.2189
      2 O          21.0528   72.6435   -1.9692 O.2     1  UNL1       -0.5170
      3 O          22.3033   70.6530   -2.8883 O.3     1  UNL1       -0.4371
      4 O          22.3085   71.2064   -0.3189 O.3     1  UNL1       -0.3112
      5 C          21.4225   71.5201    0.7568 C.3     1  UNL1        0.1811
      6 C          24.1513   73.1429    2.4444 C.3     1  UNL1        0.2383
      7 C          24.0586   73.8616    1.0740 C.3     1  UNL1        0.1895
      8 O          24.4754   75.2245    1.1839 O.3     1  UNL1       -0.3779
      9 C          22.5423   73.7704    0.7612 C.3     1  UNL1        0.1713
     10 C          22.0492   72.6034    1.6366 C.3     1  UNL1        0.1764
     11 O          23.1922   72.0705    2.3278 O.3     1  UNL1       -0.3308
     12 O          21.8841   74.9868    1.1202 O.3     1  UNL1       -0.3794
     13 H          24.3945   75.6128    0.3015 H       1  UNL1        0.2106
     14 H          22.2766   75.6872    0.5816 H       1  UNL1        0.2105
     15 N          25.4975   72.6097    2.6596 N.ar    1  UNL1       -0.2551
     16 C          25.8058   71.3782    2.2163 C.ar    1  UNL1        0.3323
     17 N          27.0372   70.8659    2.3982 N.ar    1  UNL1       -0.2743
     18 C          27.9825   71.5794    3.0396 C.ar    1  UNL1        0.2626
     19 C          27.6704   72.8758    3.5171 C.ar    1  UNL1        0.0795
     20 C          26.4289   73.3672    3.3175 C.ar    1  UNL1        0.0869
     21 O          24.9635   70.7229    1.6355 O.2     1  UNL1       -0.2464
     22 O          29.0960   71.1146    3.2090 O.2     1  UNL1       -0.2670
     23 H          27.2435   69.9770    2.0679 H       1  UNL1        0.1734
     24 O          20.1063   70.3570   -1.4758 O.3     1  UNL1       -0.2703
     25 P          19.1076   70.7439   -2.6770 P.3     1  UNL1        0.2208
     26 O          17.9959   69.7688   -2.7273 O.2     1  UNL1       -0.5170
     27 O          18.5147   72.2204   -2.4271 O.3     1  UNL1       -0.4371
     28 O          19.9091   70.7178   -4.0723 O.3     1  UNL1       -0.2858
     29 C          19.3378   71.7334   -4.8981 C.3     1  UNL1        0.2704
     30 C          18.8580   71.1121   -6.2108 C.3     1  UNL1        0.1967
     31 C          20.0474   70.4497   -6.9129 C.3     1  UNL1        0.1715
     32 C          21.1713   71.4826   -7.0525 C.3     1  UNL1        0.1694
     33 C          21.4772   72.0747   -5.6746 C.3     1  UNL1        0.1761
     34 O          17.8549   70.1321   -5.9380 O.3     1  UNL1       -0.3775
     35 O          19.6477   69.9936   -8.2070 O.3     1  UNL1       -0.3794
     36 O          20.7587   72.5203   -7.9430 O.3     1  UNL1       -0.3794
     37 O          20.3182   72.7333   -5.1656 O.3     1  UNL1       -0.3258
     38 H          17.1308   70.5910   -5.4907 H       1  UNL1        0.2106
     39 H          18.9340   69.3575   -8.0715 H       1  UNL1        0.2105
     40 H          20.5718   72.1016   -8.7933 H       1  UNL1        0.2105
     41 C          22.6220   73.0828   -5.7972 C.3     1  UNL1        0.1693
     42 O          23.6723   72.7212   -4.8988 O.3     1  UNL1       -0.3794
     43 H          24.3726   73.3793   -5.0075 H       1  UNL1        0.2105
@<TRIPOS>BOND
     1    15    16   ar
     2    15    20   ar
     3    15     6    1
     4    16    17   ar
     5    16    21    2
     6    17    18   ar
     7    17    23    1
     8    18    19   ar
     9    18    22    2
    10    19    20   ar
    11     6     7    1
    12     6    11    1
    13     7     8    1
    14     7     9    1
    15     8    13    1
    16     9    10    1
    17     9    12    1
    18    10    11    1
    19    10     5    1
    20    12    14    1
    21     5     4    1
    22     4     1    1
    23     1     2    2
    24     1     3    1
    25     1    24    1
    26    24    25    1
    27    25    26    2
    28    25    27    1
    29    25    28    1
    30    28    29    1
    31    29    30    1
    32    29    37    1
    33    30    31    1
    34    30    34    1
    35    31    32    1
    36    31    35    1
    37    32    33    1
    38    32    36    1
    39    33    41    1
    40    33    37    1
    41    41    42    1
    42    34    38    1
    43    35    39    1
    44    36    40    1
    45    42    43    1
@<TRIPOS>MOLECULE
GDU
 43 45 0 0 0
SMALL
GASTEIGER

@<TRIPOS>ATOM
      1 P          20.5837   71.3367   -1.0748 P.3     1  UNL1        0.2189
      2 O          20.8256   70.6217    0.1978 O.2     1  UNL1       -0.5170
      3 O          21.4901   70.6866   -2.2362 O.3     1  UNL1       -0.4371
      4 O          19.0305   71.2129   -1.4737 O.3     1  UNL1       -0.3112
      5 C          18.9376   70.1852   -2.4615 C.3     1  UNL1        0.1811
      6 C          17.1644   70.4142   -5.5808 C.3     1  UNL1        0.2383
      7 C          16.9608   68.9469   -5.1244 C.3     1  UNL1        0.1895
      8 O          15.7040   68.4408   -5.5801 O.3     1  UNL1       -0.3779
      9 C          16.9751   69.0823   -3.5794 C.3     1  UNL1        0.1713
     10 C          17.6984   70.4183   -3.3276 C.3     1  UNL1        0.1764
     11 O          18.0891   70.9446   -4.6076 O.3     1  UNL1       -0.3308
     12 O          15.6410   69.1240   -3.0692 O.3     1  UNL1       -0.3794
     13 H          15.6398   67.5286   -5.2645 H       1  UNL1        0.2106
     14 H          15.2230   68.2860   -3.3093 H       1  UNL1        0.2105
     15 N          17.7447   70.4631   -6.9238 N.ar    1  UNL1       -0.2551
     16 C          16.9391   70.4295   -8.0000 C.ar    1  UNL1        0.3323
     17 N          17.4469   70.4766   -9.2457 N.ar    1  UNL1       -0.2743
     18 C          18.7785   70.5487   -9.4349 C.ar    1  UNL1        0.2626
     19 C          19.6396   70.5791   -8.3107 C.ar    1  UNL1        0.0795
     20 C          19.1037   70.5348   -7.0725 C.ar    1  UNL1        0.0869
     21 O          15.7358   70.3650   -7.8451 O.2     1  UNL1       -0.2464
     22 O          19.2393   70.5866  -10.5621 O.2     1  UNL1       -0.2670
     23 H          16.8504   70.4557  -10.0109 H       1  UNL1        0.1734
     24 O          20.9718   72.8894   -0.8990 O.3     1  UNL1       -0.2703
     25 P          22.3042   73.1385   -1.7667 P.3     1  UNL1        0.2208
     26 O          23.2404   73.9893   -0.9993 O.2     1  UNL1       -0.5170
     27 O          23.0060   71.7253   -2.0897 O.3     1  UNL1       -0.4371
     28 O          21.9183   73.8723   -3.1460 O.3     1  UNL1       -0.2858
     29 C          21.7540   72.8490   -4.1286 C.3     1  UNL1        0.2704
     30 C          22.8113   73.0175   -5.2210 C.3     1  UNL1        0.1967
     31 C          22.6580   74.4042   -5.8534 C.3     1  UNL1        0.1715
     32 C          21.2072   74.5732   -6.3183 C.3     1  UNL1        0.1694
     33 C          20.2710   74.2884   -5.1412 C.3     1  UNL1        0.1761
     34 O          24.1145   72.8920   -4.6491 O.3     1  UNL1       -0.3775
     35 O          23.5399   74.5219   -6.9719 O.3     1  UNL1       -0.3794
     36 O          20.9368   73.6593   -7.3821 O.3     1  UNL1       -0.3794
     37 O          20.4504   72.9440   -4.6979 O.3     1  UNL1       -0.3258
     38 H          24.1635   72.0093   -4.2575 H       1  UNL1        0.2106
     39 H          24.4364   74.3974   -6.6357 H       1  UNL1        0.2105
     40 H          21.5514   73.8717   -8.0965 H       1  UNL1        0.2105
     41 C          18.8203   74.4878   -5.5858 C.3     1  UNL1        0.1693
     42 O          17.9468   73.8264   -4.6689 O.3     1  UNL1       -0.3794
     43 H          17.0448   73.9767   -4.9837 H       1  UNL1        0.2105
@<TRIPOS>BOND
     1    15    16   ar
     2    15    20   ar
     3    15     6    1
     4    16    17   ar
     5    16    21    2
     6    17    18   ar
     7    17    23    1
     8    18    19   ar
     9    18    22    2
    10    19    20   ar
    11     6     7    1
    12     6    11    1
    13     7     8    1
    14     7     9    1
    15     8    13    1
    16     9    10    1
    17     9    12    1
    18    10    11    1
    19    10     5    1
    20    12    14    1
    21     5     4    1
    22     4     1    1
    23     1     2    2
    24     1     3    1
    25     1    24    1
    26    24    25    1
    27    25    26    2
    28    25    27    1
    29    25    28    1
    30    28    29    1
    31    29    30    1
    32    29    37    1
    33    30    31    1
    34    30    34    1
    35    31    32    1
    36    31    35    1
    37    32    33    1
    38    32    36    1
    39    33    41    1
    40    33    37    1
    41    41    42    1
    42    34    38    1
    43    35    39    1
    44    36    40    1
    45    42    43    1
@<TRIPOS>MOLECULE
GDU
 43 45 0 0 0
SMALL
GASTEIGER

@<TRIPOS>ATOM
      1 P          15.9436   69.7789   -2.0835 P.3     1  UNL1        0.2189
      2 O          16.7250   70.8615   -1.4457 O.2     1  UNL1       -0.5170
      3 O          16.7637   68.3965   -1.9866 O.3     1  UNL1       -0.4371
      4 O          14.5320   69.6195   -1.3293 O.3     1  UNL1       -0.3112
      5 C          14.7167   68.6369   -0.3090 C.3     1  UNL1        0.1811
      6 C          11.3644   67.5608    0.4201 C.3     1  UNL1        0.2383
      7 C          12.2692   66.4850    1.0736 C.3     1  UNL1        0.1895
      8 O          11.6454   65.9304    2.2339 O.3     1  UNL1       -0.3779
      9 C          13.5250   67.3085    1.4610 C.3     1  UNL1        0.1713
     10 C          13.4546   68.5489    0.5510 C.3     1  UNL1        0.1764
     11 O          12.2988   68.3998   -0.2916 O.3     1  UNL1       -0.3308
     12 O          13.4696   67.6861    2.8380 O.3     1  UNL1       -0.3794
     13 H          12.2567   65.2711    2.5909 H       1  UNL1        0.2106
     14 H          13.4569   66.8677    3.3526 H       1  UNL1        0.2105
     15 N          10.4143   66.9446   -0.5075 N.ar    1  UNL1       -0.2551
     16 C           9.1935   66.5868   -0.0719 C.ar    1  UNL1        0.3323
     17 N           8.3001   66.0217   -0.9051 N.ar    1  UNL1       -0.2743
     18 C           8.6205   65.7954   -2.1937 C.ar    1  UNL1        0.2626
     19 C           9.9049   66.1619   -2.6652 C.ar    1  UNL1        0.0795
     20 C          10.7802   66.7309   -1.8093 C.ar    1  UNL1        0.0869
     21 O           8.8900   66.7850    1.0877 O.2     1  UNL1       -0.2464
     22 O           7.8142   65.2796   -2.9475 O.2     1  UNL1       -0.2670
     23 H           7.4220   65.7736   -0.5747 H       1  UNL1        0.1734
     24 O          15.6886   70.1426   -3.6311 O.3     1  UNL1       -0.2703
     25 P          16.9292   69.5424   -4.4621 P.3     1  UNL1        0.2208
     26 O          18.0680   69.3076   -3.5471 O.2     1  UNL1       -0.5170
     27 O          16.4941   68.1500   -5.1448 O.3     1  UNL1       -0.4371
     28 O          17.3654   70.5865   -5.6065 O.3     1  UNL1       -0.2858
     29 C          18.7930   70.5836   -5.6485 C.3     1  UNL1        0.2704
     30 C          19.3093   72.0169   -5.5135 C.3     1  UNL1        0.1967
     31 C          18.7363   72.8629   -6.6547 C.3     1  UNL1        0.1715
     32 C          19.0615   72.1752   -7.9855 C.3     1  UNL1        0.1694
     33 C          18.5617   70.7293   -7.9337 C.3     1  UNL1        0.1761
     34 O          18.8939   72.5590   -4.2586 O.3     1  UNL1       -0.3775
     35 O          19.3238   74.1655   -6.6285 O.3     1  UNL1       -0.3794
     36 O          20.4737   72.1903   -8.1987 O.3     1  UNL1       -0.3794
     37 O          19.2291   70.0266   -6.8864 O.3     1  UNL1       -0.3258
     38 H          19.2705   71.9925   -3.5715 H       1  UNL1        0.2106
     39 H          19.1046   74.5542   -5.7723 H       1  UNL1        0.2105
     40 H          20.7438   73.1177   -8.2183 H       1  UNL1        0.2105
     41 C          18.8509   70.0433   -9.2708 C.3     1  UNL1        0.1693
     42 O          18.7211   70.9929  -10.3302 O.3     1  UNL1       -0.3794
     43 H          18.9115   70.5219  -11.1531 H       1  UNL1        0.2105
@<TRIPOS>BOND
     1    15    16   ar
     2    15    20   ar
     3    15     6    1
     4    16    17   ar
     5    16    21    2
     6    17    18   ar
     7    17    23    1
     8    18    19   ar
     9    18    22    2
    10    19    20   ar
    11     6     7    1
    12     6    11    1
    13     7     8    1
    14     7     9    1
    15     8    13    1
    16     9    10    1
    17     9    12    1
    18    10    11    1
    19    10     5    1
    20    12    14    1
    21     5     4    1
    22     4     1    1
    23     1     2    2
    24     1     3    1
    25     1    24    1
    26    24    25    1
    27    25    26    2
    28    25    27    1
    29    25    28    1
    30    28    29    1
    31    29    30    1
    32    29    37    1
    33    30    31    1
    34    30    34    1
    35    31    32    1
    36    31    35    1
    37    32    33    1
    38    32    36    1
    39    33    41    1
    40    33    37    1
    41    41    42    1
    42    34    38    1
    43    35    39    1
    44    36    40    1
    45    42    43    1
@<TRIPOS>MOLECULE
GDU
 43 45 0 0 0
SMALL
GASTEIGER

@<TRIPOS>ATOM
      1 P          23.5803   72.2914   -3.3209 P.3     1  UNL1        0.2189
      2 O          24.3243   72.9770   -4.4008 O.2     1  UNL1       -0.5170
      3 O          24.2577   70.8603   -3.0276 O.3     1  UNL1       -0.4371
      4 O          23.6221   73.1885   -1.9867 O.3     1  UNL1       -0.3112
      5 C          22.4105   72.9294   -1.2757 C.3     1  UNL1        0.1811
      6 C          24.0484   71.9387    1.7678 C.3     1  UNL1        0.2383
      7 C          22.7455   72.6358    2.2362 C.3     1  UNL1        0.1895
      8 O          22.2797   72.0734    3.4650 O.3     1  UNL1       -0.3779
      9 C          21.7691   72.3134    1.0752 C.3     1  UNL1        0.1713
     10 C          22.6941   71.9802   -0.1101 C.3     1  UNL1        0.1764
     11 O          24.0493   72.1506    0.3400 O.3     1  UNL1       -0.3308
     12 O          20.9488   71.1920    1.4090 O.3     1  UNL1       -0.3794
     13 H          21.4708   72.5490    3.7005 H       1  UNL1        0.2106
     14 H          20.4385   71.4413    2.1914 H       1  UNL1        0.2105
     15 N          25.2204   72.5642    2.3827 N.ar    1  UNL1       -0.2551
     16 C          26.3154   71.8255    2.6346 C.ar    1  UNL1        0.3323
     17 N          27.4075   72.3769    3.1960 N.ar    1  UNL1       -0.2743
     18 C          27.4168   73.6829    3.5253 C.ar    1  UNL1        0.2626
     19 C          26.2684   74.4720    3.2712 C.ar    1  UNL1        0.0795
     20 C          25.1882   73.8947    2.7033 C.ar    1  UNL1        0.0869
     21 O          26.3220   70.6462    2.3426 O.2     1  UNL1       -0.2464
     22 O          28.4031   74.1819    4.0380 O.2     1  UNL1       -0.2670
     23 H          28.1906   71.8298    3.3667 H       1  UNL1        0.1734
     24 O          22.0512   72.0764   -3.7769 O.3     1  UNL1       -0.2703
     25 P          21.8753   72.8277   -5.1892 P.3     1  UNL1        0.2208
     26 O          22.0413   74.2852   -4.9963 O.2     1  UNL1       -0.5170
     27 O          22.9886   72.2936   -6.2233 O.3     1  UNL1       -0.4371
     28 O          20.4085   72.5272   -5.7792 O.3     1  UNL1       -0.2858
     29 C          20.4252   71.1858   -6.2694 C.3     1  UNL1        0.2704
     30 C          19.9243   71.1656   -7.7144 C.3     1  UNL1        0.1967
     31 C          18.5048   71.7397   -7.7581 C.3     1  UNL1        0.1715
     32 C          17.6350   70.9731   -6.7554 C.3     1  UNL1        0.1694
     33 C          18.3092   71.0098   -5.3817 C.3     1  UNL1        0.1761
     34 O          20.7880   71.9577   -8.5315 O.3     1  UNL1       -0.3775
     35 O          17.9677   71.5924   -9.0743 O.3     1  UNL1       -0.3794
     36 O          17.4902   69.6189   -7.1859 O.3     1  UNL1       -0.3794
     37 O          19.5842   70.3732   -5.4540 O.3     1  UNL1       -0.3258
     38 H          21.6693   71.5651   -8.4683 H       1  UNL1        0.2106
     39 H          18.5510   72.0787   -9.6706 H       1  UNL1        0.2105
     40 H          17.0681   69.6450   -8.0545 H       1  UNL1        0.2105
     41 C          17.4316   70.2761   -4.3650 C.3     1  UNL1        0.1693
     42 O          18.2585   69.5027   -3.4937 O.3     1  UNL1       -0.3794
     43 H          17.6685   69.0580   -2.8697 H       1  UNL1        0.2105
@<TRIPOS>BOND
     1    15    16   ar
     2    15    20   ar
     3    15     6    1
     4    16    17   ar
     5    16    21    2
     6    17    18   ar
     7    17    23    1
     8    18    19   ar
     9    18    22    2
    10    19    20   ar
    11     6     7    1
    12     6    11    1
    13     7     8    1
    14     7     9    1
    15     8    13    1
    16     9    10    1
    17     9    12    1
    18    10    11    1
    19    10     5    1
    20    12    14    1
    21     5     4    1
    22     4     1    1
    23     1     2    2
    24     1     3    1
    25     1    24    1
    26    24    25    1
    27    25    26    2
    28    25    27    1
    29    25    28    1
    30    28    29    1
    31    29    30    1
    32    29    37    1
    33    30    31    1
    34    30    34    1
    35    31    32    1
    36    31    35    1
    37    32    33    1
    38    32    36    1
    39    33    41    1
    40    33    37    1
    41    41    42    1
    42    34    38    1
    43    35    39    1
    44    36    40    1
    45    42    43    1
@<TRIPOS>MOLECULE
GDU
 43 45 0 0 0
SMALL
GASTEIGER

@<TRIPOS>ATOM
      1 P          21.0599   71.6799   -0.5468 P.3     1  UNL1        0.2189
      2 O          20.7719   70.9704    0.7194 O.2     1  UNL1       -0.5170
      3 O          22.0237   70.7721   -1.4633 O.3     1  UNL1       -0.4371
      4 O          19.6835   71.9611   -1.3300 O.3     1  UNL1       -0.3112
      5 C          19.8527   71.4600   -2.6569 C.3     1  UNL1        0.1811
      6 C          17.6667   70.8264   -5.4404 C.3     1  UNL1        0.2383
      7 C          17.7768   69.4616   -4.7135 C.3     1  UNL1        0.1895
      8 O          16.5744   68.7040   -4.8665 O.3     1  UNL1       -0.3779
      9 C          17.9737   69.8947   -3.2374 C.3     1  UNL1        0.1713
     10 C          18.4877   71.3429   -3.3376 C.3     1  UNL1        0.1764
     11 O          18.6097   71.6609   -4.7348 O.3     1  UNL1       -0.3308
     12 O          16.7318   69.8452   -2.5323 O.3     1  UNL1       -0.3794
     13 H          16.7079   67.8706   -4.3938 H       1  UNL1        0.2106
     14 H          16.4333   68.9259   -2.5551 H       1  UNL1        0.2105
     15 N          18.0463   70.6956   -6.8481 N.ar    1  UNL1       -0.2551
     16 C          17.0977   70.4847   -7.7777 C.ar    1  UNL1        0.3323
     17 N          17.4196   70.3644   -9.0791 N.ar    1  UNL1       -0.2743
     18 C          18.7056   70.4439   -9.4717 C.ar    1  UNL1        0.2626
     19 C          19.7160   70.6600   -8.5029 C.ar    1  UNL1        0.0795
     20 C          19.3651   70.7814   -7.2050 C.ar    1  UNL1        0.0869
     21 O          15.9333   70.4112   -7.4387 O.2     1  UNL1       -0.2464
     22 O          18.9984   70.3303  -10.6490 O.2     1  UNL1       -0.2670
     23 H          16.7216   70.2167   -9.7370 H       1  UNL1        0.1734
     24 O          21.7900   73.0780   -0.2233 O.3     1  UNL1       -0.2703
     25 P          20.7034   74.0139    0.5069 P.3     1  UNL1        0.2208
     26 O          20.7168   75.3587   -0.1100 O.2     1  UNL1       -0.5170
     27 O          19.2390   73.3636    0.3433 O.3     1  UNL1       -0.4371
     28 O          21.0632   74.1363    2.0707 O.3     1  UNL1       -0.2858
     29 C          22.4176   73.7083    2.2196 C.3     1  UNL1        0.2704
     30 C          22.5298   72.7871    3.4355 C.3     1  UNL1        0.1967
     31 C          22.0625   73.5465    4.6810 C.3     1  UNL1        0.1715
     32 C          22.8513   74.8571    4.7806 C.3     1  UNL1        0.1694
     33 C          22.7129   75.6227    3.4623 C.3     1  UNL1        0.1761
     34 O          21.7089   71.6343    3.2399 O.3     1  UNL1       -0.3775
     35 O          22.2989   72.7514    5.8449 O.3     1  UNL1       -0.3794
     36 O          24.2279   74.5686    5.0289 O.3     1  UNL1       -0.3794
     37 O          23.2574   74.8469    2.3957 O.3     1  UNL1       -0.3258
     38 H          22.0336   71.1924    2.4435 H       1  UNL1        0.2106
     39 H          21.7948   71.9355    5.7335 H       1  UNL1        0.2105
     40 H          24.2659   74.0826    5.8630 H       1  UNL1        0.2105
     41 C          23.4688   76.9494    3.5633 C.3     1  UNL1        0.1693
     42 O          22.6803   77.8917    4.2922 O.3     1  UNL1       -0.3794
     43 H          23.1914   78.7116    4.3337 H       1  UNL1        0.2105
@<TRIPOS>BOND
     1    15    16   ar
     2    15    20   ar
     3    15     6    1
     4    16    17   ar
     5    16    21    2
     6    17    18   ar
     7    17    23    1
     8    18    19   ar
     9    18    22    2
    10    19    20   ar
    11     6     7    1
    12     6    11    1
    13     7     8    1
    14     7     9    1
    15     8    13    1
    16     9    10    1
    17     9    12    1
    18    10    11    1
    19    10     5    1
    20    12    14    1
    21     5     4    1
    22     4     1    1
    23     1     2    2
    24     1     3    1
    25     1    24    1
    26    24    25    1
    27    25    26    2
    28    25    27    1
    29    25    28    1
    30    28    29    1
    31    29    30    1
    32    29    37    1
    33    30    31    1
    34    30    34    1
    35    31    32    1
    36    31    35    1
    37    32    33    1
    38    32    36    1
    39    33    41    1
    40    33    37    1
    41    41    42    1
    42    34    38    1
    43    35    39    1
    44    36    40    1
    45    42    43    1
@<TRIPOS>MOLECULE
GDU
 43 45 0 0 0
SMALL
GASTEIGER

@<TRIPOS>ATOM
      1 P          21.3658   71.1584    0.1512 P.3     1  UNL1        0.2189
      2 O          21.6013   70.1376    1.1963 O.2     1  UNL1       -0.5170
      3 O          20.6483   72.4422    0.8071 O.3     1  UNL1       -0.4371
      4 O          22.7712   71.6005   -0.4941 O.3     1  UNL1       -0.3112
      5 C          23.7889   71.2304    0.4375 C.3     1  UNL1        0.1811
      6 C          25.4562   73.2004    2.9408 C.3     1  UNL1        0.2383
      7 C          25.4264   74.1100    1.6860 C.3     1  UNL1        0.1895
      8 O          25.3598   75.4888    2.0571 O.3     1  UNL1       -0.3779
      9 C          24.1153   73.6606    0.9900 C.3     1  UNL1        0.1713
     10 C          23.8461   72.2590    1.5684 C.3     1  UNL1        0.1764
     11 O          24.9302   71.9453    2.4596 O.3     1  UNL1       -0.3308
     12 O          23.0478   74.5548    1.3103 O.3     1  UNL1       -0.3794
     13 H          25.3445   75.9985    1.2350 H       1  UNL1        0.2106
     14 H          23.3015   75.4254    0.9750 H       1  UNL1        0.2105
     15 N          26.8269   73.0329    3.4266 N.ar    1  UNL1       -0.2551
     16 C          27.3264   73.8993    4.3255 C.ar    1  UNL1        0.3323
     17 N          28.5823   73.7657    4.7910 N.ar    1  UNL1       -0.2743
     18 C          29.3664   72.7617    4.3534 C.ar    1  UNL1        0.2626
     19 C          28.8556   71.8448    3.4023 C.ar    1  UNL1        0.0795
     20 C          27.5912   71.9994    2.9554 C.ar    1  UNL1        0.0869
     21 O          26.6308   74.8097    4.7298 O.2     1  UNL1       -0.2464
     22 O          30.5050   72.6428    4.7706 O.2     1  UNL1       -0.2670
     23 H          28.9250   74.3978    5.4427 H       1  UNL1        0.1734
     24 O          20.4175   70.5426   -0.9951 O.3     1  UNL1       -0.2703
     25 P          20.8503   71.2364   -2.3812 P.3     1  UNL1        0.2208
     26 O          20.9208   72.7028   -2.1977 O.2     1  UNL1       -0.5170
     27 O          22.2944   70.6823   -2.8304 O.3     1  UNL1       -0.4371
     28 O          19.7659   70.8883   -3.5183 O.3     1  UNL1       -0.2858
     29 C          18.5229   71.4471   -3.0912 C.3     1  UNL1        0.2704
     30 C          17.4723   70.3395   -2.9971 C.3     1  UNL1        0.1967
     31 C          17.3237   69.6753   -4.3695 C.3     1  UNL1        0.1715
     32 C          17.0343   70.7621   -5.4110 C.3     1  UNL1        0.1694
     33 C          18.1201   71.8374   -5.3233 C.3     1  UNL1        0.1761
     34 O          17.8866   69.3673   -2.0356 O.3     1  UNL1       -0.3775
     35 O          16.2440   68.7396   -4.3356 O.3     1  UNL1       -0.3794
     36 O          15.7562   71.3444   -5.1515 O.3     1  UNL1       -0.3794
     37 O          18.1014   72.4357   -4.0280 O.3     1  UNL1       -0.3258
     38 H          17.9741   69.8299   -1.1911 H       1  UNL1        0.2106
     39 H          16.4627   68.0842   -3.6612 H       1  UNL1        0.2105
     40 H          15.1066   70.6319   -5.2115 H       1  UNL1        0.2105
     41 C          17.8595   72.9105   -6.3827 C.3     1  UNL1        0.1693
     42 O          18.7105   72.6845   -7.5078 O.3     1  UNL1       -0.3794
     43 H          18.5149   73.3798   -8.1509 H       1  UNL1        0.2105
@<TRIPOS>BOND
     1    15    16   ar
     2    15    20   ar
     3    15     6    1
     4    16    17   ar
     5    16    21    2
     6    17    18   ar
     7    17    23    1
     8    18    19   ar
     9    18    22    2
    10    19    20   ar
    11     6     7    1
    12     6    11    1
    13     7     8    1
    14     7     9    1
    15     8    13    1
    16     9    10    1
    17     9    12    1
    18    10    11    1
    19    10     5    1
    20    12    14    1
    21     5     4    1
    22     4     1    1
    23     1     2    2
    24     1     3    1
    25     1    24    1
    26    24    25    1
    27    25    26    2
    28    25    27    1
    29    25    28    1
    30    28    29    1
    31    29    30    1
    32    29    37    1
    33    30    31    1
    34    30    34    1
    35    31    32    1
    36    31    35    1
    37    32    33    1
    38    32    36    1
    39    33    41    1
    40    33    37    1
    41    41    42    1
    42    34    38    1
    43    35    39    1
    44    36    40    1
    45    42    43    1
@<TRIPOS>MOLECULE
GDU
 43 45 0 0 0
SMALL
GASTEIGER

@<TRIPOS>ATOM
      1 P          22.3522   74.3882   -1.6051 P.3     1  UNL1        0.2189
      2 O          21.8751   74.9902   -2.8698 O.2     1  UNL1       -0.5170
      3 O          22.8247   75.5546   -0.6004 O.3     1  UNL1       -0.4371
      4 O          21.1607   73.5466   -0.9278 O.3     1  UNL1       -0.3112
      5 C          21.0792   73.9678    0.4348 C.3     1  UNL1        0.1811
      6 C          23.1795   71.9498    2.5427 C.3     1  UNL1        0.2383
      7 C          22.4919   72.9426    3.5146 C.3     1  UNL1        0.1895
      8 O          22.3134   72.3527    4.8043 O.3     1  UNL1       -0.3779
      9 C          21.1252   73.1816    2.8217 C.3     1  UNL1        0.1713
     10 C          21.3740   72.7822    1.3554 C.3     1  UNL1        0.1764
     11 O          22.7574   72.4066    1.2402 O.3     1  UNL1       -0.3308
     12 O          20.1168   72.3561    3.4079 O.3     1  UNL1       -0.3794
     13 H          21.8832   73.0188    5.3585 H       1  UNL1        0.2106
     14 H          20.0494   72.6135    4.3373 H       1  UNL1        0.2105
     15 N          24.6359   72.0260    2.6691 N.ar    1  UNL1       -0.2551
     16 C          25.3849   70.9378    2.4179 C.ar    1  UNL1        0.3323
     17 N          26.7261   70.9820    2.5234 N.ar    1  UNL1       -0.2743
     18 C          27.3418   72.1212    2.8939 C.ar    1  UNL1        0.2626
     19 C          26.5652   73.2738    3.1673 C.ar    1  UNL1        0.0795
     20 C          25.2222   73.2030    3.0497 C.ar    1  UNL1        0.0869
     21 O          24.8437   69.9031    2.0823 O.2     1  UNL1       -0.2464
     22 O          28.5554   72.1609    2.9942 O.2     1  UNL1       -0.2670
     23 H          27.2513   70.1882    2.3341 H       1  UNL1        0.1734
     24 O          23.5942   73.4107   -1.9121 O.3     1  UNL1       -0.2703
     25 P          23.0099   72.1591   -2.7380 P.3     1  UNL1        0.2208
     26 O          24.0885   71.5608   -3.5552 O.2     1  UNL1       -0.5170
     27 O          22.4415   71.0568   -1.7105 O.3     1  UNL1       -0.4371
     28 O          21.8202   72.6580   -3.7002 O.3     1  UNL1       -0.2858
     29 C          21.5565   71.5966   -4.6186 C.3     1  UNL1        0.2704
     30 C          21.7734   72.0947   -6.0484 C.3     1  UNL1        0.1967
     31 C          20.8400   73.2808   -6.3101 C.3     1  UNL1        0.1715
     32 C          19.4048   72.8575   -5.9775 C.3     1  UNL1        0.1694
     33 C          19.3673   72.3030   -4.5513 C.3     1  UNL1        0.1761
     34 O          23.1315   72.5077   -6.2105 O.3     1  UNL1       -0.3775
     35 O          20.9239   73.6636   -7.6845 O.3     1  UNL1       -0.3794
     36 O          18.9777   71.8521   -6.8976 O.3     1  UNL1       -0.3794
     37 O          20.2103   71.1555   -4.4587 O.3     1  UNL1       -0.3258
     38 H          23.6819   71.7336   -6.0296 H       1  UNL1        0.2106
     39 H          21.8428   73.9093   -7.8509 H       1  UNL1        0.2105
     40 H          19.0229   72.2429   -7.7800 H       1  UNL1        0.2105
     41 C          17.9316   71.9090   -4.1967 C.3     1  UNL1        0.1693
     42 O          17.7279   70.5286   -4.5030 O.3     1  UNL1       -0.3794
     43 H          16.8139   70.3209   -4.2648 H       1  UNL1        0.2105
@<TRIPOS>BOND
     1    15    16   ar
     2    15    20   ar
     3    15     6    1
     4    16    17   ar
     5    16    21    2
     6    17    18   ar
     7    17    23    1
     8    18    19   ar
     9    18    22    2
    10    19    20   ar
    11     6     7    1
    12     6    11    1
    13     7     8    1
    14     7     9    1
    15     8    13    1
    16     9    10    1
    17     9    12    1
    18    10    11    1
    19    10     5    1
    20    12    14    1
    21     5     4    1
    22     4     1    1
    23     1     2    2
    24     1     3    1
    25     1    24    1
    26    24    25    1
    27    25    26    2
    28    25    27    1
    29    25    28    1
    30    28    29    1
    31    29    30    1
    32    29    37    1
    33    30    31    1
    34    30    34    1
    35    31    32    1
    36    31    35    1
    37    32    33    1
    38    32    36    1
    39    33    41    1
    40    33    37    1
    41    41    42    1
    42    34    38    1
    43    35    39    1
    44    36    40    1
    45    42    43    1
@<TRIPOS>MOLECULE
GDU
 43 45 0 0 0
SMALL
GASTEIGER

@<TRIPOS>ATOM
      1 P          22.1237   71.6833   -3.6254 P.3     1  UNL1        0.2189
      2 O          23.3338   72.3555   -4.1483 O.2     1  UNL1       -0.5170
      3 O          22.4244   70.1137   -3.4287 O.3     1  UNL1       -0.4371
      4 O          21.7172   72.3331   -2.2114 O.3     1  UNL1       -0.3112
      5 C          21.8614   71.3072   -1.2279 C.3     1  UNL1        0.1811
      6 C          23.4285   72.5206    1.7720 C.3     1  UNL1        0.2383
      7 C          23.3060   73.7709    0.8639 C.3     1  UNL1        0.1895
      8 O          23.1450   74.9559    1.6468 O.3     1  UNL1       -0.3779
      9 C          22.0180   73.4616    0.0573 C.3     1  UNL1        0.1713
     10 C          21.8651   71.9333    0.1679 C.3     1  UNL1        0.1764
     11 O          22.9873   71.4415    0.9209 O.3     1  UNL1       -0.3308
     12 O          20.8939   74.1269    0.6366 O.3     1  UNL1       -0.3794
     13 H          23.0753   75.6937    1.0250 H       1  UNL1        0.2106
     14 H          21.0755   75.0753    0.5909 H       1  UNL1        0.2105
     15 N          24.8174   72.3156    2.1866 N.ar    1  UNL1       -0.2551
     16 C          25.3779   71.0997    2.0622 C.ar    1  UNL1        0.3323
     17 N          26.6542   70.8854    2.4326 N.ar    1  UNL1       -0.2743
     18 C          27.3909   71.8893    2.9459 C.ar    1  UNL1        0.2626
     19 C          26.8118   73.1741    3.0882 C.ar    1  UNL1        0.0795
     20 C          25.5312   73.3625    2.7049 C.ar    1  UNL1        0.0869
     21 O          24.7259   70.1844    1.6003 O.2     1  UNL1       -0.2464
     22 O          28.5447   71.6951    3.2859 O.2     1  UNL1       -0.2670
     23 H          27.0440   70.0024    2.3317 H       1  UNL1        0.1734
     24 O          20.9134   71.8696   -4.6708 O.3     1  UNL1       -0.2703
     25 P          19.8124   70.7514   -4.3140 P.3     1  UNL1        0.2208
     26 O          20.4838   69.4521   -4.0902 O.2     1  UNL1       -0.5170
     27 O          19.0221   71.1835   -2.9788 O.3     1  UNL1       -0.4371
     28 O          18.7700   70.6150   -5.5326 O.3     1  UNL1       -0.2858
     29 C          18.8248   71.8402   -6.2646 C.3     1  UNL1        0.2704
     30 C          17.5044   72.5935   -6.0961 C.3     1  UNL1        0.1967
     31 C          16.3590   71.7115   -6.6027 C.3     1  UNL1        0.1715
     32 C          16.6787   71.2678   -8.0346 C.3     1  UNL1        0.1694
     33 C          18.0619   70.6128   -8.0557 C.3     1  UNL1        0.1761
     34 O          17.3006   72.8990   -4.7154 O.3     1  UNL1       -0.3775
     35 O          15.1385   72.4549   -6.5889 O.3     1  UNL1       -0.3794
     36 O          16.6695   72.4040   -8.9002 O.3     1  UNL1       -0.3794
     37 O          19.0484   71.5579   -7.6441 O.3     1  UNL1       -0.3258
     38 H          18.0467   73.4480   -4.4380 H       1  UNL1        0.2106
     39 H          14.9841   72.7226   -5.6742 H       1  UNL1        0.2105
     40 H          15.7837   72.7864   -8.8506 H       1  UNL1        0.2105
     41 C          18.3766   70.1351   -9.4751 C.3     1  UNL1        0.1693
     42 O          18.6367   71.2646  -10.3103 O.3     1  UNL1       -0.3794
     43 H          18.8307   70.9211  -11.1932 H       1  UNL1        0.2105
@<TRIPOS>BOND
     1    15    16   ar
     2    15    20   ar
     3    15     6    1
     4    16    17   ar
     5    16    21    2
     6    17    18   ar
     7    17    23    1
     8    18    19   ar
     9    18    22    2
    10    19    20   ar
    11     6     7    1
    12     6    11    1
    13     7     8    1
    14     7     9    1
    15     8    13    1
    16     9    10    1
    17     9    12    1
    18    10    11    1
    19    10     5    1
    20    12    14    1
    21     5     4    1
    22     4     1    1
    23     1     2    2
    24     1     3    1
    25     1    24    1
    26    24    25    1
    27    25    26    2
    28    25    27    1
    29    25    28    1
    30    28    29    1
    31    29    30    1
    32    29    37    1
    33    30    31    1
    34    30    34    1
    35    31    32    1
    36    31    35    1
    37    32    33    1
    38    32    36    1
    39    33    41    1
    40    33    37    1
    41    41    42    1
    42    34    38    1
    43    35    39    1
    44    36    40    1
    45    42    43    1
@<TRIPOS>MOLECULE
GDU
 43 45 0 0 0
SMALL
GASTEIGER

@<TRIPOS>ATOM
      1 P          22.8795   71.8266   -1.0752 P.3     1  UNL1        0.2189
      2 O          23.3943   73.1579   -1.4651 O.2     1  UNL1       -0.5170
      3 O          21.5502   72.0052   -0.1841 O.3     1  UNL1       -0.4371
      4 O          22.5300   70.9779   -2.3960 O.3     1  UNL1       -0.3112
      5 C          21.9884   71.8963   -3.3467 C.3     1  UNL1        0.1811
      6 C          18.9031   70.9810   -4.9499 C.3     1  UNL1        0.2383
      7 C          19.3305   69.7091   -4.1736 C.3     1  UNL1        0.1895
      8 O          18.1878   68.9611   -3.7519 O.3     1  UNL1       -0.3779
      9 C          20.0797   70.3086   -2.9551 C.3     1  UNL1        0.1713
     10 C          20.4698   71.7253   -3.4157 C.3     1  UNL1        0.1764
     11 O          20.0227   71.8750   -4.7743 O.3     1  UNL1       -0.3308
     12 O          19.2175   70.3649   -1.8169 O.3     1  UNL1       -0.3794
     13 H          18.5210   68.1865   -3.2777 H       1  UNL1        0.2106
     14 H          18.9613   69.4550   -1.6143 H       1  UNL1        0.2105
     15 N          18.7016   70.6791   -6.3680 N.ar    1  UNL1       -0.2551
     16 C          17.4694   70.3842   -6.8185 C.ar    1  UNL1        0.3323
     17 N          17.2564   70.1063   -8.1182 N.ar    1  UNL1       -0.2743
     18 C          18.2821   70.1096   -8.9912 C.ar    1  UNL1        0.2626
     19 C          19.5865   70.4128   -8.5299 C.ar    1  UNL1        0.0795
     20 C          19.7714   70.6920   -7.2221 C.ar    1  UNL1        0.0869
     21 O          16.5342   70.3778   -6.0429 O.2     1  UNL1       -0.2464
     22 O          18.0911   69.8536  -10.1670 O.2     1  UNL1       -0.2670
     23 H          16.3598   69.8999   -8.4267 H       1  UNL1        0.1734
     24 O          23.9987   71.0497   -0.2171 O.3     1  UNL1       -0.2703
     25 P          23.4675   70.9943    1.3011 P.3     1  UNL1        0.2208
     26 O          22.2040   70.2263    1.3536 O.2     1  UNL1       -0.5170
     27 O          24.5705   70.2760    2.2293 O.3     1  UNL1       -0.4371
     28 O          23.2100   72.4903    1.8357 O.3     1  UNL1       -0.2858
     29 C          22.9636   72.3928    3.2391 C.3     1  UNL1        0.2704
     30 C          21.5657   72.9305    3.5491 C.3     1  UNL1        0.1967
     31 C          21.4776   74.3875    3.0845 C.3     1  UNL1        0.1715
     32 C          22.6333   75.1734    3.7141 C.3     1  UNL1        0.1694
     33 C          23.9514   74.4660    3.3895 C.3     1  UNL1        0.1761
     34 O          20.5883   72.1474    2.8617 O.3     1  UNL1       -0.3775
     35 O          20.2303   74.9489    3.4986 O.3     1  UNL1       -0.3794
     36 O          22.4543   75.2345    5.1298 O.3     1  UNL1       -0.3794
     37 O          23.9420   73.1519    3.9454 O.3     1  UNL1       -0.3258
     38 H          20.6848   71.2392    3.1793 H       1  UNL1        0.2106
     39 H          19.5350   74.4178    3.0901 H       1  UNL1        0.2105
     40 H          21.6121   75.6811    5.2864 H       1  UNL1        0.2105
     41 C          25.1153   75.2616    3.9847 C.3     1  UNL1        0.1693
     42 O          25.8584   74.4247    4.8727 O.3     1  UNL1       -0.3794
     43 H          26.5811   74.9623    5.2248 H       1  UNL1        0.2105
@<TRIPOS>BOND
     1    15    16   ar
     2    15    20   ar
     3    15     6    1
     4    16    17   ar
     5    16    21    2
     6    17    18   ar
     7    17    23    1
     8    18    19   ar
     9    18    22    2
    10    19    20   ar
    11     6     7    1
    12     6    11    1
    13     7     8    1
    14     7     9    1
    15     8    13    1
    16     9    10    1
    17     9    12    1
    18    10    11    1
    19    10     5    1
    20    12    14    1
    21     5     4    1
    22     4     1    1
    23     1     2    2
    24     1     3    1
    25     1    24    1
    26    24    25    1
    27    25    26    2
    28    25    27    1
    29    25    28    1
    30    28    29    1
    31    29    30    1
    32    29    37    1
    33    30    31    1
    34    30    34    1
    35    31    32    1
    36    31    35    1
    37    32    33    1
    38    32    36    1
    39    33    41    1
    40    33    37    1
    41    41    42    1
    42    34    38    1
    43    35    39    1
    44    36    40    1
    45    42    43    1
@<TRIPOS>MOLECULE
GDU
 43 45 0 0 0
SMALL
GASTEIGER

@<TRIPOS>ATOM
      1 P          22.8213   72.5366   -4.6057 P.3     1  UNL1        0.2189
      2 O          24.1826   72.3776   -4.0478 O.2     1  UNL1       -0.5170
      3 O          21.8372   71.4516   -3.9369 O.3     1  UNL1       -0.4371
      4 O          22.2809   74.0181   -4.2894 O.3     1  UNL1       -0.3112
      5 C          21.3217   73.8930   -3.2383 C.3     1  UNL1        0.1811
      6 C          23.1224   74.1315   -0.1355 C.3     1  UNL1        0.2383
      7 C          24.1370   74.5973   -1.2110 C.3     1  UNL1        0.1895
      8 O          25.0440   75.5619   -0.6725 O.3     1  UNL1       -0.3779
      9 C          23.2103   75.2425   -2.2741 C.3     1  UNL1        0.1713
     10 C          21.8292   74.6218   -1.9928 C.3     1  UNL1        0.1764
     11 O          21.9891   73.6875   -0.9113 O.3     1  UNL1       -0.3308
     12 O          23.1718   76.6613   -2.1082 O.3     1  UNL1       -0.3794
     13 H          25.6457   75.8091   -1.3886 H       1  UNL1        0.2106
     14 H          24.0741   76.9830   -2.2382 H       1  UNL1        0.2105
     15 N          23.6729   73.0272    0.6521 N.ar    1  UNL1       -0.2551
     16 C          23.7031   71.7875    0.1321 C.ar    1  UNL1        0.3323
     17 N          24.2072   70.7553    0.8339 N.ar    1  UNL1       -0.2743
     18 C          24.6829   70.9476    2.0792 C.ar    1  UNL1        0.2626
     19 C          24.6521   72.2470    2.6421 C.ar    1  UNL1        0.0795
     20 C          24.1451   73.2651    1.9148 C.ar    1  UNL1        0.0869
     21 O          23.2781   71.5987   -0.9903 O.2     1  UNL1       -0.2464
     22 O          25.1349   70.0131    2.7171 O.2     1  UNL1       -0.2670
     23 H          24.2251   69.8680    0.4413 H       1  UNL1        0.1734
     24 O          22.8654   72.3089   -6.1990 O.3     1  UNL1       -0.2703
     25 P          21.3631   72.5083   -6.7406 P.3     1  UNL1        0.2208
     26 O          20.9344   73.9043   -6.5029 O.2     1  UNL1       -0.5170
     27 O          21.3161   72.1945   -8.3197 O.3     1  UNL1       -0.4371
     28 O          20.3741   71.5028   -5.9654 O.3     1  UNL1       -0.2858
     29 C          19.1396   72.1964   -5.7792 C.3     1  UNL1        0.2704
     30 C          18.3372   71.5183   -4.6676 C.3     1  UNL1        0.1967
     31 C          18.0841   70.0581   -5.0551 C.3     1  UNL1        0.1715
     32 C          17.4333   70.0249   -6.4425 C.3     1  UNL1        0.1694
     33 C          18.3061   70.8153   -7.4207 C.3     1  UNL1        0.1761
     34 O          19.0749   71.5697   -3.4452 O.3     1  UNL1       -0.3775
     35 O          17.2123   69.4517   -4.0986 O.3     1  UNL1       -0.3794
     36 O          16.1326   70.6110   -6.3743 O.3     1  UNL1       -0.3794
     37 O          18.3961   72.1743   -6.9955 O.3     1  UNL1       -0.3258
     38 H          19.2171   72.5047   -3.2443 H       1  UNL1        0.2106
     39 H          17.6553   69.5057   -3.2424 H       1  UNL1        0.2105
     40 H          15.6217   70.0859   -5.7446 H       1  UNL1        0.2105
     41 C          17.6827   70.7597   -8.8172 C.3     1  UNL1        0.1693
     42 O          18.1894   69.6233   -9.5192 O.3     1  UNL1       -0.3794
     43 H          17.7724   69.6245  -10.3918 H       1  UNL1        0.2105
@<TRIPOS>BOND
     1    15    16   ar
     2    15    20   ar
     3    15     6    1
     4    16    17   ar
     5    16    21    2
     6    17    18   ar
     7    17    23    1
     8    18    19   ar
     9    18    22    2
    10    19    20   ar
    11     6     7    1
    12     6    11    1
    13     7     8    1
    14     7     9    1
    15     8    13    1
    16     9    10    1
    17     9    12    1
    18    10    11    1
    19    10     5    1
    20    12    14    1
    21     5     4    1
    22     4     1    1
    23     1     2    2
    24     1     3    1
    25     1    24    1
    26    24    25    1
    27    25    26    2
    28    25    27    1
    29    25    28    1
    30    28    29    1
    31    29    30    1
    32    29    37    1
    33    30    31    1
    34    30    34    1
    35    31    32    1
    36    31    35    1
    37    32    33    1
    38    32    36    1
    39    33    41    1
    40    33    37    1
    41    41    42    1
    42    34    38    1
    43    35    39    1
    44    36    40    1
    45    42    43    1
@<TRIPOS>MOLECULE
GDU
 43 45 0 0 0
SMALL
GASTEIGER

@<TRIPOS>ATOM
      1 P          20.3523   71.3069   -1.0148 P.3     1  UNL1        0.2189
      2 O          20.8823   70.8552    0.2908 O.2     1  UNL1       -0.5170
      3 O          21.4290   70.9903   -2.1696 O.3     1  UNL1       -0.4371
      4 O          18.9795   70.5321   -1.3342 O.3     1  UNL1       -0.3112
      5 C          19.1191   69.9627   -2.6368 C.3     1  UNL1        0.1811
      6 C          17.3057   70.3675   -5.7149 C.3     1  UNL1        0.2383
      7 C          17.0243   68.9044   -5.2871 C.3     1  UNL1        0.1895
      8 O          15.7318   68.4834   -5.7292 O.3     1  UNL1       -0.3779
      9 C          17.0749   69.0027   -3.7402 C.3     1  UNL1        0.1713
     10 C          17.8802   70.2879   -3.4731 C.3     1  UNL1        0.1764
     11 O          18.2777   70.8201   -4.7486 O.3     1  UNL1       -0.3308
     12 O          15.7552   69.1105   -3.2030 O.3     1  UNL1       -0.3794
     13 H          15.6197   67.5694   -5.4326 H       1  UNL1        0.2106
     14 H          15.2841   68.3042   -3.4534 H       1  UNL1        0.2105
     15 N          17.8631   70.4135   -7.0677 N.ar    1  UNL1       -0.2551
     16 C          17.0376   70.4728   -8.1275 C.ar    1  UNL1        0.3323
     17 N          17.5244   70.5196   -9.3816 N.ar    1  UNL1       -0.2743
     18 C          18.8540   70.4977   -9.5960 C.ar    1  UNL1        0.2626
     19 C          19.7355   70.4296   -8.4895 C.ar    1  UNL1        0.0795
     20 C          19.2207   70.3880   -7.2422 C.ar    1  UNL1        0.0869
     21 O          15.8359   70.4938   -7.9497 O.2     1  UNL1       -0.2464
     22 O          19.2955   70.5352  -10.7310 O.2     1  UNL1       -0.2670
     23 H          16.9141   70.5665  -10.1346 H       1  UNL1        0.1734
     24 O          20.0754   72.8921   -0.9612 O.3     1  UNL1       -0.2703
     25 P          21.5052   73.6099   -0.7873 P.3     1  UNL1        0.2208
     26 O          22.3647   73.2840   -1.9467 O.2     1  UNL1       -0.5170
     27 O          21.2981   75.2051   -0.7051 O.3     1  UNL1       -0.4371
     28 O          22.2067   73.0907    0.5648 O.3     1  UNL1       -0.2858
     29 C          23.6154   73.2445    0.3869 C.3     1  UNL1        0.2704
     30 C          24.3080   71.9012    0.6223 C.3     1  UNL1        0.1967
     31 C          23.9915   71.4190    2.0414 C.3     1  UNL1        0.1715
     32 C          24.3661   72.5283    3.0308 C.3     1  UNL1        0.1694
     33 C          23.6669   73.8244    2.6135 C.3     1  UNL1        0.1761
     34 O          23.8329   70.9449   -0.3269 O.3     1  UNL1       -0.3775
     35 O          24.7482   70.2410    2.3281 O.3     1  UNL1       -0.3794
     36 O          25.7815   72.7189    3.0216 O.3     1  UNL1       -0.3794
     37 O          24.1068   74.2112    1.3124 O.3     1  UNL1       -0.3258
     38 H          24.0466   71.2922   -1.2036 H       1  UNL1        0.2106
     39 H          24.4899   69.5770    1.6765 H       1  UNL1        0.2105
     40 H          26.1788   71.8783    3.2841 H       1  UNL1        0.2105
     41 C          24.0070   74.9305    3.6149 C.3     1  UNL1        0.1693
     42 O          23.4609   76.1693    3.1586 O.3     1  UNL1       -0.3794
     43 H          23.6963   76.8381    3.8163 H       1  UNL1        0.2105
@<TRIPOS>BOND
     1    15    16   ar
     2    15    20   ar
     3    15     6    1
     4    16    17   ar
     5    16    21    2
     6    17    18   ar
     7    17    23    1
     8    18    19   ar
     9    18    22    2
    10    19    20   ar
    11     6     7    1
    12     6    11    1
    13     7     8    1
    14     7     9    1
    15     8    13    1
    16     9    10    1
    17     9    12    1
    18    10    11    1
    19    10     5    1
    20    12    14    1
    21     5     4    1
    22     4     1    1
    23     1     2    2
    24     1     3    1
    25     1    24    1
    26    24    25    1
    27    25    26    2
    28    25    27    1
    29    25    28    1
    30    28    29    1
    31    29    30    1
    32    29    37    1
    33    30    31    1
    34    30    34    1
    35    31    32    1
    36    31    35    1
    37    32    33    1
    38    32    36    1
    39    33    41    1
    40    33    37    1
    41    41    42    1
    42    34    38    1
    43    35    39    1
    44    36    40    1
    45    42    43    1
