@<TRIPOS>MOLECULE
*****
 43 45 0 0 0
SMALL
GASTEIGER

@<TRIPOS>ATOM
      1 P          22.3323   71.2808   -2.6490 P.3     1  UNL1        0.2189
      2 O          23.4793   72.0083   -3.5280 O.co2   1  UNL1       -0.4371
      3 O          21.9980   69.8819   -3.0765 O.2     1  UNL1       -0.5170
      4 O          21.1036   72.3334   -2.6663 O.3     1  UNL1       -0.3112
      5 C          20.4084   72.5411   -3.8835 C.3     1  UNL1        0.1811
      6 O          18.2427   72.4279   -4.9182 O.3     1  UNL1       -0.3308
      7 O          17.3296   71.0393   -2.4225 O.3     1  UNL1       -0.3794
      8 O          17.6693   68.9688   -4.1644 O.3     1  UNL1       -0.3779
      9 C          18.5843   70.9519   -3.0960 C.3     1  UNL1        0.1713
     10 C          18.4453   70.1330   -4.3624 C.3     1  UNL1        0.1895
     11 C          18.9190   72.3330   -3.6455 C.3     1  UNL1        0.1764
     12 C          17.7841   71.1227   -5.3066 C.3     1  UNL1        0.2383
     13 H          17.0948   70.1690   -2.0626 H       1  UNL1        0.2105
     14 H          18.1322   68.3710   -3.5568 H       1  UNL1        0.2106
     15 O          15.9374   70.5031   -7.3520 O.2     1  UNL1       -0.2464
     16 O          19.2636   70.2583  -10.5329 O.2     1  UNL1       -0.2670
     17 N          18.1401   70.8924   -6.6784 N.ar    1  UNL1       -0.2551
     18 N          17.5951   70.3819   -8.9342 N.ar    1  UNL1       -0.2743
     19 C          17.1362   70.5870   -7.6268 C.ar    1  UNL1        0.3323
     20 C          19.4717   70.9708   -7.0713 C.ar    1  UNL1        0.0869
     21 C          19.8930   70.7712   -8.3219 C.ar    1  UNL1        0.0795
     22 C          18.9078   70.4474   -9.3738 C.ar    1  UNL1        0.2626
     23 H          16.9136   70.1674   -9.6119 H       1  UNL1        0.1734
     24 O          22.8968   71.4062   -1.1395 O.3     1  UNL1       -0.2703
     25 P          22.4928   70.6197    0.2137 P.3     1  UNL1        0.2208
     26 O          23.6952   69.5526    0.3956 O.co2   1  UNL1       -0.4371
     27 O          21.1218   70.0088    0.1843 O.2     1  UNL1       -0.5170
     28 O          22.7205   71.6956    1.3950 O.3     1  UNL1       -0.2858
     29 O          21.9527   72.4993    3.4881 O.3     1  UNL1       -0.3258
     30 O          20.9636   75.7434    1.1326 O.3     1  UNL1       -0.3794
     31 O          23.1698   75.9387    2.9609 O.3     1  UNL1       -0.3794
     32 O          20.6346   73.0579    0.1034 O.3     1  UNL1       -0.3775
     33 C          21.7558   74.6269    1.5464 C.3     1  UNL1        0.1715
     34 C          22.2216   74.8753    2.9824 C.3     1  UNL1        0.1694
     35 C          20.9095   73.3577    1.4676 C.3     1  UNL1        0.1967
     36 C          22.8489   73.6123    3.5876 C.3     1  UNL1        0.1761
     37 C          21.6041   72.1729    2.1413 C.3     1  UNL1        0.2704
     38 H          21.4953   76.5525    1.1799 H       1  UNL1        0.2105
     39 H          22.7612   76.7301    2.5761 H       1  UNL1        0.2105
     40 H          20.1946   73.8155   -0.3117 H       1  UNL1        0.2106
     41 O          22.2891   72.9872    5.8248 O.3     1  UNL1       -0.3794
     42 C          23.1768   73.7898    5.0685 C.3     1  UNL1        0.1693
     43 H          22.4863   73.0899    6.7694 H       1  UNL1        0.2105
@<TRIPOS>UNITY_ATOM_ATTR
2 1
charge -1
26 1
charge -1
@<TRIPOS>BOND
     1    25    28    1
     2    25    24    1
     3    25    26    1
     4    25    27    2
     5     1     4    1
     6     1    24    1
     7     1     2    1
     8     1     3    2
     9     6    11    1
    10     6    12    1
    11    29    36    1
    12    29    37    1
    13     7     9    1
    14     7    13    1
    15     8    10    1
    16     8    14    1
    17    28    37    1
    18     4     5    1
    19    30    33    1
    20    30    38    1
    21    31    34    1
    22    31    39    1
    23    32    35    1
    24    32    40    1
    25    41    42    1
    26    41    43    1
    27    15    19    2
    28    16    22    2
    29    17    12    1
    30    17    19   ar
    31    17    20   ar
    32    18    19   ar
    33    18    22   ar
    34    18    23    1
    35     9    10    1
    36     9    11    1
    37    10    12    1
    38    11     5    1
    39    33    34    1
    40    33    35    1
    41    34    36    1
    42    35    37    1
    43    36    42    1
    44    20    21   ar
    45    21    22   ar
@<TRIPOS>MOLECULE
*****
 43 45 0 0 0
SMALL
GASTEIGER

@<TRIPOS>ATOM
      1 P          22.8522   71.8290   -2.4132 P.3     1  UNL1        0.2189
      2 O          23.6212   73.2499   -2.4979 O.co2   1  UNL1       -0.4371
      3 O          23.4334   70.7419   -3.2686 O.2     1  UNL1       -0.5170
      4 O          21.3067   72.2056   -2.7094 O.3     1  UNL1       -0.3112
      5 C          20.5673   71.3810   -3.5931 C.3     1  UNL1        0.1811
      6 O          18.6315   72.1982   -4.7588 O.3     1  UNL1       -0.3308
      7 O          17.0179   71.0072   -2.5297 O.3     1  UNL1       -0.3794
      8 O          16.7553   69.1517   -4.5109 O.3     1  UNL1       -0.3779
      9 C          18.2162   70.5236   -3.1343 C.3     1  UNL1        0.1713
     10 C          17.9200   69.9519   -4.5050 C.3     1  UNL1        0.1895
     11 C          19.0891   71.7256   -3.4729 C.3     1  UNL1        0.1764
     12 C          17.7699   71.2089   -5.3450 C.3     1  UNL1        0.2383
     13 H          16.4443   70.2574   -2.3043 H       1  UNL1        0.2105
     14 H          16.9008   68.3647   -3.9629 H       1  UNL1        0.2106
     15 O          16.0232   70.3356   -7.3857 O.2     1  UNL1       -0.2464
     16 O          19.3690   70.4551  -10.5530 O.2     1  UNL1       -0.2670
     17 N          18.1579   71.0037   -6.7120 N.ar    1  UNL1       -0.2551
     18 N          17.6905   70.3960   -8.9611 N.ar    1  UNL1       -0.2743
     19 C          17.2038   70.5626   -7.6583 C.ar    1  UNL1        0.3323
     20 C          19.4715   71.2398   -7.1024 C.ar    1  UNL1        0.0869
     21 C          19.9201   71.0749   -8.3486 C.ar    1  UNL1        0.0795
     22 C          18.9872   70.6163   -9.3980 C.ar    1  UNL1        0.2626
     23 H          17.0438   70.0889   -9.6374 H       1  UNL1        0.1734
     24 O          22.8512   71.5101   -0.8285 O.3     1  UNL1       -0.2703
     25 P          22.0154   70.4303    0.0364 P.3     1  UNL1        0.2208
     26 O          23.1634   69.4437    0.6076 O.co2   1  UNL1       -0.4371
     27 O          20.9280   69.7359   -0.7312 O.2     1  UNL1       -0.5170
     28 O          21.5029   71.2504    1.3286 O.3     1  UNL1       -0.2858
     29 O          22.0502   73.5239    0.9435 O.3     1  UNL1       -0.3258
     30 O          20.3964   73.8724    4.7111 O.3     1  UNL1       -0.3794
     31 O          18.9454   74.8426    2.4304 O.3     1  UNL1       -0.3794
     32 O          22.0419   71.5807    4.0627 O.3     1  UNL1       -0.3775
     33 C          20.5333   73.3349    3.3928 C.3     1  UNL1        0.1715
     34 C          20.3197   74.4687    2.3880 C.3     1  UNL1        0.1694
     35 C          21.9308   72.7372    3.2401 C.3     1  UNL1        0.1967
     36 C          20.7115   74.0330    0.9697 C.3     1  UNL1        0.1761
     37 C          22.2378   72.3835    1.7838 C.3     1  UNL1        0.2704
     38 H          19.5110   74.2530    4.8148 H       1  UNL1        0.2105
     39 H          18.7108   75.1150    3.3315 H       1  UNL1        0.2105
     40 H          21.8455   71.8179    4.9820 H       1  UNL1        0.2106
     41 O          21.2109   74.7626   -1.2501 O.3     1  UNL1       -0.3794
     42 C          20.6563   75.1939   -0.0210 C.3     1  UNL1        0.1693
     43 H          21.1821   75.4911   -1.8905 H       1  UNL1        0.2105
@<TRIPOS>UNITY_ATOM_ATTR
2 1
charge -1
26 1
charge -1
@<TRIPOS>BOND
     1    25    28    1
     2    25    24    1
     3    25    26    1
     4    25    27    2
     5     1     4    1
     6     1    24    1
     7     1     2    1
     8     1     3    2
     9     6    11    1
    10     6    12    1
    11    29    36    1
    12    29    37    1
    13     7     9    1
    14     7    13    1
    15     8    10    1
    16     8    14    1
    17    28    37    1
    18     4     5    1
    19    30    33    1
    20    30    38    1
    21    31    34    1
    22    31    39    1
    23    32    35    1
    24    32    40    1
    25    41    42    1
    26    41    43    1
    27    15    19    2
    28    16    22    2
    29    17    12    1
    30    17    19   ar
    31    17    20   ar
    32    18    19   ar
    33    18    22   ar
    34    18    23    1
    35     9    10    1
    36     9    11    1
    37    10    12    1
    38    11     5    1
    39    33    34    1
    40    33    35    1
    41    34    36    1
    42    35    37    1
    43    36    42    1
    44    20    21   ar
    45    21    22   ar
@<TRIPOS>MOLECULE
*****
 43 45 0 0 0
SMALL
GASTEIGER

@<TRIPOS>ATOM
      1 P          22.8796   72.0267   -2.4468 P.3     1  UNL1        0.2189
      2 O          23.7997   73.2235   -3.0287 O.co2   1  UNL1       -0.4371
      3 O          23.3747   70.6428   -2.7482 O.2     1  UNL1       -0.5170
      4 O          21.3969   72.3767   -2.9918 O.3     1  UNL1       -0.3112
      5 C          20.6193   71.3337   -3.5534 C.3     1  UNL1        0.1811
      6 O          18.6878   72.1725   -4.7107 O.3     1  UNL1       -0.3308
      7 O          17.0698   70.9895   -2.4805 O.3     1  UNL1       -0.3794
      8 O          16.7841   69.1428   -4.4666 O.3     1  UNL1       -0.3779
      9 C          18.2618   70.4967   -3.0902 C.3     1  UNL1        0.1713
     10 C          17.9561   69.9321   -4.4618 C.3     1  UNL1        0.1895
     11 C          19.1448   71.6916   -3.4276 C.3     1  UNL1        0.1764
     12 C          17.8152   71.1931   -5.2974 C.3     1  UNL1        0.2383
     13 H          16.4900   70.2444   -2.2557 H       1  UNL1        0.2105
     14 H          16.9239   68.3527   -3.9216 H       1  UNL1        0.2106
     15 O          16.0472   70.3744   -7.3423 O.2     1  UNL1       -0.2464
     16 O          19.3921   70.4392  -10.5122 O.2     1  UNL1       -0.2670
     17 N          18.1972   70.9886   -6.6662 N.ar    1  UNL1       -0.2551
     18 N          17.7141   70.4075   -8.9190 N.ar    1  UNL1       -0.2743
     19 C          17.2324   70.5761   -7.6146 C.ar    1  UNL1        0.3323
     20 C          19.5156   71.1972   -7.0563 C.ar    1  UNL1        0.0869
     21 C          19.9591   71.0308   -8.3040 C.ar    1  UNL1        0.0795
     22 C          19.0151   70.6011   -9.3557 C.ar    1  UNL1        0.2626
     23 H          17.0599   70.1201   -9.5967 H       1  UNL1        0.1734
     24 O          22.7800   72.3776   -0.8720 O.3     1  UNL1       -0.2703
     25 P          21.5087   72.4341    0.1246 P.3     1  UNL1        0.2208
     26 O          21.3681   70.9048    0.6337 O.co2   1  UNL1       -0.4371
     27 O          20.2635   72.9966   -0.4975 O.2     1  UNL1       -0.5170
     28 O          22.0372   73.2464    1.4153 O.3     1  UNL1       -0.2858
     29 O          23.8599   73.1201    2.9247 O.3     1  UNL1       -0.3258
     30 O          20.7745   73.4832    5.6449 O.3     1  UNL1       -0.3794
     31 O          22.5470   75.7001    5.2070 O.3     1  UNL1       -0.3794
     32 O          20.4140   71.8870    3.2571 O.3     1  UNL1       -0.3775
     33 C          21.4604   73.7228    4.4130 C.3     1  UNL1        0.1715
     34 C          22.8039   74.3814    4.7324 C.3     1  UNL1        0.1694
     35 C          21.6715   72.3926    3.6923 C.3     1  UNL1        0.1967
     36 C          23.7074   74.4262    3.4928 C.3     1  UNL1        0.1761
     37 C          22.6241   72.5388    2.5044 C.3     1  UNL1        0.2704
     38 H          20.6368   74.3239    6.1072 H       1  UNL1        0.2105
     39 H          21.9751   75.6577    5.9895 H       1  UNL1        0.2105
     40 H          19.8201   71.7987    4.0183 H       1  UNL1        0.2106
     41 O          25.4132   74.5744    5.1593 O.3     1  UNL1       -0.3794
     42 C          25.1087   74.9347    3.8245 C.3     1  UNL1        0.1693
     43 H          26.3024   74.8913    5.3843 H       1  UNL1        0.2105
@<TRIPOS>UNITY_ATOM_ATTR
2 1
charge -1
26 1
charge -1
@<TRIPOS>BOND
     1    25    28    1
     2    25    24    1
     3    25    26    1
     4    25    27    2
     5     1     4    1
     6     1    24    1
     7     1     2    1
     8     1     3    2
     9     6    11    1
    10     6    12    1
    11    29    36    1
    12    29    37    1
    13     7     9    1
    14     7    13    1
    15     8    10    1
    16     8    14    1
    17    28    37    1
    18     4     5    1
    19    30    33    1
    20    30    38    1
    21    31    34    1
    22    31    39    1
    23    32    35    1
    24    32    40    1
    25    41    42    1
    26    41    43    1
    27    15    19    2
    28    16    22    2
    29    17    12    1
    30    17    19   ar
    31    17    20   ar
    32    18    19   ar
    33    18    22   ar
    34    18    23    1
    35     9    10    1
    36     9    11    1
    37    10    12    1
    38    11     5    1
    39    33    34    1
    40    33    35    1
    41    34    36    1
    42    35    37    1
    43    36    42    1
    44    20    21   ar
    45    21    22   ar
@<TRIPOS>MOLECULE
*****
 43 45 0 0 0
SMALL
GASTEIGER

@<TRIPOS>ATOM
      1 P          21.9004   73.6967   -5.9360 P.3     1  UNL1        0.2189
      2 O          22.2284   75.2802   -5.8852 O.co2   1  UNL1       -0.4371
      3 O          22.8338   72.8831   -6.7836 O.2     1  UNL1       -0.5170
      4 O          20.3386   73.6368   -6.3544 O.3     1  UNL1       -0.3112
      5 C          19.9136   74.3734   -7.4878 C.3     1  UNL1        0.1811
      6 O          19.6530   72.0586   -8.0776 O.3     1  UNL1       -0.3308
      7 O          17.9729   73.0242  -10.3657 O.3     1  UNL1       -0.3794
      8 O          16.1019   72.2116   -8.5558 O.3     1  UNL1       -0.3779
      9 C          18.0773   73.5434   -9.0410 C.3     1  UNL1        0.1713
     10 C          17.3554   72.6395   -8.0635 C.3     1  UNL1        0.1895
     11 C          19.5270   73.4016   -8.5943 C.3     1  UNL1        0.1764
     12 C          18.3424   71.4955   -7.9043 C.3     1  UNL1        0.2383
     13 H          17.0557   73.1043  -10.6728 H       1  UNL1        0.2105
     14 H          15.5095   72.9751   -8.6395 H       1  UNL1        0.2106
     15 O          16.1216   70.0259   -6.9629 O.2     1  UNL1       -0.2464
     16 O          18.1593   69.1898   -2.9144 O.2     1  UNL1       -0.2670
     17 N          18.2658   70.8825   -6.6083 N.ar    1  UNL1       -0.2551
     18 N          17.1381   69.6106   -4.9479 N.ar    1  UNL1       -0.2743
     19 C          17.1048   70.1673   -6.2328 C.ar    1  UNL1        0.3323
     20 C          19.3343   70.9933   -5.7251 C.ar    1  UNL1        0.0869
     21 C          19.3498   70.4576   -4.5028 C.ar    1  UNL1        0.0795
     22 C          18.1757   69.6943   -4.0329 C.ar    1  UNL1        0.2626
     23 H          16.3400   69.1082   -4.6644 H       1  UNL1        0.1734
     24 O          21.8744   73.2806   -4.3742 O.3     1  UNL1       -0.2703
     25 P          23.0335   72.6936   -3.4126 P.3     1  UNL1        0.2208
     26 O          24.2915   73.6661   -3.7115 O.co2   1  UNL1       -0.4371
     27 O          23.3184   71.2333   -3.6131 O.2     1  UNL1       -0.5170
     28 O          22.5621   73.0842   -1.9192 O.3     1  UNL1       -0.2858
     29 O          21.6931   71.3079   -0.6131 O.3     1  UNL1       -0.3258
     30 O          20.3520   74.4994    1.6378 O.3     1  UNL1       -0.3794
     31 O          22.5089   72.8778    2.6208 O.3     1  UNL1       -0.3794
     32 O          20.3415   74.6650   -1.2521 O.3     1  UNL1       -0.3775
     33 C          21.2650   73.7923    0.7941 C.3     1  UNL1        0.1715
     34 C          21.6896   72.5110    1.5143 C.3     1  UNL1        0.1694
     35 C          20.5711   73.4622   -0.5262 C.3     1  UNL1        0.1967
     36 C          22.4543   71.5727    0.5710 C.3     1  UNL1        0.1761
     37 C          21.3932   72.4840   -1.3672 C.3     1  UNL1        0.2704
     38 H          20.7866   74.7124    2.4777 H       1  UNL1        0.2105
     39 H          22.0144   73.4706    3.2084 H       1  UNL1        0.2105
     40 H          19.8199   75.2757   -0.7091 H       1  UNL1        0.2106
     41 O          22.3507   69.1976    0.3320 O.3     1  UNL1       -0.3794
     42 C          22.7499   70.2234    1.2223 C.3     1  UNL1        0.1693
     43 H          22.5331   68.3330    0.7332 H       1  UNL1        0.2105
@<TRIPOS>UNITY_ATOM_ATTR
2 1
charge -1
26 1
charge -1
@<TRIPOS>BOND
     1    25    28    1
     2    25    24    1
     3    25    26    1
     4    25    27    2
     5     1     4    1
     6     1    24    1
     7     1     2    1
     8     1     3    2
     9     6    11    1
    10     6    12    1
    11    29    36    1
    12    29    37    1
    13     7     9    1
    14     7    13    1
    15     8    10    1
    16     8    14    1
    17    28    37    1
    18     4     5    1
    19    30    33    1
    20    30    38    1
    21    31    34    1
    22    31    39    1
    23    32    35    1
    24    32    40    1
    25    41    42    1
    26    41    43    1
    27    15    19    2
    28    16    22    2
    29    17    12    1
    30    17    19   ar
    31    17    20   ar
    32    18    19   ar
    33    18    22   ar
    34    18    23    1
    35     9    10    1
    36     9    11    1
    37    10    12    1
    38    11     5    1
    39    33    34    1
    40    33    35    1
    41    34    36    1
    42    35    37    1
    43    36    42    1
    44    20    21   ar
    45    21    22   ar
@<TRIPOS>MOLECULE
*****
 43 45 0 0 0
SMALL
GASTEIGER

@<TRIPOS>ATOM
      1 P          21.4438   70.7162   -1.0681 P.3     1  UNL1        0.2189
      2 O          22.9387   71.1254   -1.5319 O.co2   1  UNL1       -0.4371
      3 O          21.3774   69.6719    0.0073 O.2     1  UNL1       -0.5170
      4 O          20.6948   70.3463   -2.4538 O.3     1  UNL1       -0.3112
      5 C          20.4282   71.3876   -3.3771 C.3     1  UNL1        0.1811
      6 O          18.5438   72.2420   -4.5989 O.3     1  UNL1       -0.3308
      7 O          16.8400   71.0462   -2.4407 O.3     1  UNL1       -0.3794
      8 O          16.6235   69.2166   -4.4513 O.3     1  UNL1       -0.3779
      9 C          18.0525   70.5545   -3.0094 C.3     1  UNL1        0.1713
     10 C          17.7968   70.0021   -4.3961 C.3     1  UNL1        0.1895
     11 C          18.9511   71.7492   -3.3036 C.3     1  UNL1        0.1764
     12 C          17.6910   71.2703   -5.2259 C.3     1  UNL1        0.2383
     13 H          16.2500   70.3011   -2.2439 H       1  UNL1        0.2105
     14 H          16.7404   68.4217   -3.9080 H       1  UNL1        0.2106
     15 O          16.0273   70.3520   -7.3156 O.2     1  UNL1       -0.2464
     16 O          19.4586   70.5602  -10.3855 O.2     1  UNL1       -0.2670
     17 N          18.1234   71.0757   -6.5811 N.ar    1  UNL1       -0.2551
     18 N          17.7371   70.4566   -8.8425 N.ar    1  UNL1       -0.2743
     19 C          17.2089   70.6100   -7.5543 C.ar    1  UNL1        0.3323
     20 C          19.4412   71.3463   -6.9337 C.ar    1  UNL1        0.0869
     21 C          19.9295   71.1935   -8.1663 C.ar    1  UNL1        0.0795
     22 C          19.0396   70.7109   -9.2420 C.ar    1  UNL1        0.2626
     23 H          17.1184   70.1329   -9.5369 H       1  UNL1        0.1734
     24 O          20.7857   72.1372   -0.6675 O.3     1  UNL1       -0.2703
     25 P          21.3371   73.3374    0.2644 P.3     1  UNL1        0.2208
     26 O          22.4503   72.6100    1.1861 O.co2   1  UNL1       -0.4371
     27 O          20.2694   74.0580    1.0356 O.2     1  UNL1       -0.5170
     28 O          22.1869   74.2750   -0.7374 O.3     1  UNL1       -0.2858
     29 O          24.3281   74.5383   -1.7185 O.3     1  UNL1       -0.3258
     30 O          24.0970   78.1156    0.3311 O.3     1  UNL1       -0.3794
     31 O          23.8567   78.1030   -2.5307 O.3     1  UNL1       -0.3794
     32 O          23.0451   75.6971    1.5245 O.3     1  UNL1       -0.3775
     33 C          23.5900   77.0094   -0.4203 C.3     1  UNL1        0.1715
     34 C          24.3034   76.9817   -1.7735 C.3     1  UNL1        0.1694
     35 C          23.8531   75.7184    0.3527 C.3     1  UNL1        0.1967
     36 C          24.0111   75.6773   -2.5273 C.3     1  UNL1        0.1761
     37 C          23.5776   74.4811   -0.5038 C.3     1  UNL1        0.2704
     38 H          23.9327   78.9385   -0.1539 H       1  UNL1        0.2105
     39 H          24.0468   78.9201   -2.0435 H       1  UNL1        0.2105
     40 H          23.2290   76.4852    2.0583 H       1  UNL1        0.2106
     41 O          25.4163   74.2684   -3.8500 O.3     1  UNL1       -0.3794
     42 C          24.8360   75.5590   -3.8070 C.3     1  UNL1        0.1693
     43 H          25.9441   74.1787   -4.6594 H       1  UNL1        0.2105
@<TRIPOS>UNITY_ATOM_ATTR
2 1
charge -1
26 1
charge -1
@<TRIPOS>BOND
     1    25    28    1
     2    25    24    1
     3    25    26    1
     4    25    27    2
     5     1     4    1
     6     1    24    1
     7     1     2    1
     8     1     3    2
     9     6    11    1
    10     6    12    1
    11    29    36    1
    12    29    37    1
    13     7     9    1
    14     7    13    1
    15     8    10    1
    16     8    14    1
    17    28    37    1
    18     4     5    1
    19    30    33    1
    20    30    38    1
    21    31    34    1
    22    31    39    1
    23    32    35    1
    24    32    40    1
    25    41    42    1
    26    41    43    1
    27    15    19    2
    28    16    22    2
    29    17    12    1
    30    17    19   ar
    31    17    20   ar
    32    18    19   ar
    33    18    22   ar
    34    18    23    1
    35     9    10    1
    36     9    11    1
    37    10    12    1
    38    11     5    1
    39    33    34    1
    40    33    35    1
    41    34    36    1
    42    35    37    1
    43    36    42    1
    44    20    21   ar
    45    21    22   ar
@<TRIPOS>MOLECULE
*****
 43 45 0 0 0
SMALL
GASTEIGER

@<TRIPOS>ATOM
      1 P          22.1451   70.9171   -1.5758 P.3     1  UNL1        0.2189
      2 O          23.5034   70.7044   -2.4285 O.co2   1  UNL1       -0.4371
      3 O          21.4311   69.6534   -1.1954 O.2     1  UNL1       -0.5170
      4 O          21.2908   71.9674   -2.4618 O.3     1  UNL1       -0.3112
      5 C          20.6073   71.4874   -3.6065 C.3     1  UNL1        0.1811
      6 O          18.6411   72.2586   -4.7524 O.3     1  UNL1       -0.3308
      7 O          17.0803   71.0587   -2.4907 O.3     1  UNL1       -0.3794
      8 O          16.8247   69.1808   -4.4515 O.3     1  UNL1       -0.3779
      9 C          18.2789   70.5915   -3.1075 C.3     1  UNL1        0.1713
     10 C          17.9744   70.0021   -4.4689 C.3     1  UNL1        0.1895
     11 C          19.1249   71.8061   -3.4688 C.3     1  UNL1        0.1764
     12 C          17.7898   71.2484   -5.3178 C.3     1  UNL1        0.2383
     13 H          16.5237   70.3007   -2.2507 H       1  UNL1        0.2105
     14 H          16.9921   68.4016   -3.8986 H       1  UNL1        0.2106
     15 O          16.0227   70.3593   -7.3339 O.2     1  UNL1       -0.2464
     16 O          19.3314   70.4746  -10.5402 O.2     1  UNL1       -0.2670
     17 N          18.1627   71.0379   -6.6882 N.ar    1  UNL1       -0.2551
     18 N          17.6716   70.4176   -8.9288 N.ar    1  UNL1       -0.2743
     19 C          17.1993   70.5889   -7.6213 C.ar    1  UNL1        0.3323
     20 C          19.4710   71.2764   -7.0948 C.ar    1  UNL1        0.0869
     21 C          19.9057   71.1070   -8.3453 C.ar    1  UNL1        0.0795
     22 C          18.9624   70.6401   -9.3817 C.ar    1  UNL1        0.2626
     23 H          17.0182   70.1051   -9.5960 H       1  UNL1        0.1734
     24 O          22.6381   71.8140   -0.3246 O.3     1  UNL1       -0.2703
     25 P          21.8010   72.6211    0.7982 P.3     1  UNL1        0.2208
     26 O          21.2426   71.4465    1.7605 O.co2   1  UNL1       -0.4371
     27 O          20.7380   73.5240    0.2425 O.2     1  UNL1       -0.5170
     28 O          22.9226   73.3734    1.6819 O.3     1  UNL1       -0.2858
     29 O          21.3867   74.7120    2.8925 O.3     1  UNL1       -0.3258
     30 O          24.6665   75.0599    5.3771 O.3     1  UNL1       -0.3794
     31 O          22.4283   73.4591    6.1992 O.3     1  UNL1       -0.3794
     32 O          25.0267   75.0379    2.5049 O.3     1  UNL1       -0.3775
     33 C          23.7861   74.3952    4.4669 C.3     1  UNL1        0.1715
     34 C          22.3904   74.3556    5.0924 C.3     1  UNL1        0.1694
     35 C          23.7618   75.1622    3.1461 C.3     1  UNL1        0.1967
     36 C          21.3387   73.9002    4.0717 C.3     1  UNL1        0.1761
     37 C          22.6484   74.6629    2.2235 C.3     1  UNL1        0.2704
     38 H          24.6869   74.5777    6.2177 H       1  UNL1        0.2105
     39 H          23.0966   73.7576    6.8359 H       1  UNL1        0.2105
     40 H          25.7229   75.3575    3.0990 H       1  UNL1        0.2106
     41 O          19.8767   73.3388    5.8762 O.3     1  UNL1       -0.3794
     42 C          19.9200   74.0041    4.6273 C.3     1  UNL1        0.1693
     43 H          18.9797   73.3971    6.2419 H       1  UNL1        0.2105
@<TRIPOS>UNITY_ATOM_ATTR
2 1
charge -1
26 1
charge -1
@<TRIPOS>BOND
     1    25    28    1
     2    25    24    1
     3    25    26    1
     4    25    27    2
     5     1     4    1
     6     1    24    1
     7     1     2    1
     8     1     3    2
     9     6    11    1
    10     6    12    1
    11    29    36    1
    12    29    37    1
    13     7     9    1
    14     7    13    1
    15     8    10    1
    16     8    14    1
    17    28    37    1
    18     4     5    1
    19    30    33    1
    20    30    38    1
    21    31    34    1
    22    31    39    1
    23    32    35    1
    24    32    40    1
    25    41    42    1
    26    41    43    1
    27    15    19    2
    28    16    22    2
    29    17    12    1
    30    17    19   ar
    31    17    20   ar
    32    18    19   ar
    33    18    22   ar
    34    18    23    1
    35     9    10    1
    36     9    11    1
    37    10    12    1
    38    11     5    1
    39    33    34    1
    40    33    35    1
    41    34    36    1
    42    35    37    1
    43    36    42    1
    44    20    21   ar
    45    21    22   ar
@<TRIPOS>MOLECULE
*****
 43 45 0 0 0
SMALL
GASTEIGER

@<TRIPOS>ATOM
      1 P          23.0325   71.7672   -3.1932 P.3     1  UNL1        0.2189
      2 O          23.8402   72.9005   -4.0182 O.co2   1  UNL1       -0.4371
      3 O          23.6519   70.4008   -3.2207 O.2     1  UNL1       -0.5170
      4 O          21.5245   71.8668   -3.7711 O.3     1  UNL1       -0.3112
      5 C          20.6530   70.7660   -3.5799 C.3     1  UNL1        0.1811
      6 O          18.8341   71.8882   -4.6780 O.3     1  UNL1       -0.3308
      7 O          17.0837   70.7658   -2.5176 O.3     1  UNL1       -0.3794
      8 O          16.5958   69.0868   -4.6103 O.3     1  UNL1       -0.3779
      9 C          18.2137   70.1776   -3.1599 C.3     1  UNL1        0.1713
     10 C          17.8503   69.7352   -4.5620 C.3     1  UNL1        0.1895
     11 C          19.2286   71.2819   -3.4278 C.3     1  UNL1        0.1764
     12 C          17.8574   71.0521   -5.3196 C.3     1  UNL1        0.2383
     13 H          16.4217   70.0797   -2.3361 H       1  UNL1        0.2105
     14 H          16.6424   68.2546   -4.1143 H       1  UNL1        0.2106
     15 O          16.0257   70.4727   -7.3901 O.2     1  UNL1       -0.2464
     16 O          19.3555   70.4430  -10.5764 O.2     1  UNL1       -0.2670
     17 N          18.2183   70.8880   -6.6995 N.ar    1  UNL1       -0.2551
     18 N          17.6852   70.4586   -8.9750 N.ar    1  UNL1       -0.2743
     19 C          17.2219   70.5976   -7.6604 C.ar    1  UNL1        0.3323
     20 C          19.5475   71.0156   -7.0881 C.ar    1  UNL1        0.0869
     21 C          19.9730   70.8788   -8.3456 C.ar    1  UNL1        0.0795
     22 C          18.9956   70.5748   -9.4107 C.ar    1  UNL1        0.2626
     23 H          17.0089   70.2557   -9.6615 H       1  UNL1        0.1734
     24 O          22.9000   72.4162   -1.7186 O.3     1  UNL1       -0.2703
     25 P          22.0488   73.6844   -1.1895 P.3     1  UNL1        0.2208
     26 O          20.6503   73.0219   -0.7177 O.co2   1  UNL1       -0.4371
     27 O          21.9023   74.7898   -2.1948 O.2     1  UNL1       -0.5170
     28 O          22.7767   74.1210    0.1832 O.3     1  UNL1       -0.2858
     29 O          21.3721   75.8172    1.0587 O.3     1  UNL1       -0.3258
     30 O          24.1766   75.6558    4.0851 O.3     1  UNL1       -0.3794
     31 O          21.5452   74.5958    4.5325 O.3     1  UNL1       -0.3794
     32 O          25.0106   75.3764    1.3272 O.3     1  UNL1       -0.3775
     33 C          23.3455   75.1251    3.0493 C.3     1  UNL1        0.1715
     34 C          21.8865   75.4083    3.4127 C.3     1  UNL1        0.1694
     35 C          23.7093   75.7943    1.7252 C.3     1  UNL1        0.1967
     36 C          20.9534   75.1096    2.2316 C.3     1  UNL1        0.1761
     37 C          22.6908   75.4715    0.6305 C.3     1  UNL1        0.2704
     38 H          23.9510   75.2347    4.9285 H       1  UNL1        0.2105
     39 H          22.1421   74.7939    5.2711 H       1  UNL1        0.2105
     40 H          25.6462   75.5866    2.0285 H       1  UNL1        0.2106
     41 O          18.6878   75.0513    1.4747 O.3     1  UNL1       -0.3794
     42 C          19.5144   75.5331    2.5182 C.3     1  UNL1        0.1693
     43 H          17.7689   75.3131    1.6439 H       1  UNL1        0.2105
@<TRIPOS>UNITY_ATOM_ATTR
2 1
charge -1
26 1
charge -1
@<TRIPOS>BOND
     1    25    28    1
     2    25    24    1
     3    25    26    1
     4    25    27    2
     5     1     4    1
     6     1    24    1
     7     1     2    1
     8     1     3    2
     9     6    11    1
    10     6    12    1
    11    29    36    1
    12    29    37    1
    13     7     9    1
    14     7    13    1
    15     8    10    1
    16     8    14    1
    17    28    37    1
    18     4     5    1
    19    30    33    1
    20    30    38    1
    21    31    34    1
    22    31    39    1
    23    32    35    1
    24    32    40    1
    25    41    42    1
    26    41    43    1
    27    15    19    2
    28    16    22    2
    29    17    12    1
    30    17    19   ar
    31    17    20   ar
    32    18    19   ar
    33    18    22   ar
    34    18    23    1
    35     9    10    1
    36     9    11    1
    37    10    12    1
    38    11     5    1
    39    33    34    1
    40    33    35    1
    41    34    36    1
    42    35    37    1
    43    36    42    1
    44    20    21   ar
    45    21    22   ar
@<TRIPOS>MOLECULE
*****
 43 45 0 0 0
SMALL
GASTEIGER

@<TRIPOS>ATOM
      1 P          21.6706   70.3400   -1.1242 P.3     1  UNL1        0.2189
      2 O          23.1475   70.6590   -1.7025 O.co2   1  UNL1       -0.4371
      3 O          21.6466   69.5547    0.1542 O.2     1  UNL1       -0.5170
      4 O          20.9000   69.6662   -2.3772 O.3     1  UNL1       -0.3112
      5 C          20.6433   70.4627   -3.5206 C.3     1  UNL1        0.1811
      6 O          18.9483   71.7605   -4.6237 O.3     1  UNL1       -0.3308
      7 O          17.0848   70.8057   -2.4775 O.3     1  UNL1       -0.3794
      8 O          16.4480   69.1897   -4.5798 O.3     1  UNL1       -0.3779
      9 C          18.1559   70.1127   -3.1162 C.3     1  UNL1        0.1713
     10 C          17.7593   69.7129   -4.5220 C.3     1  UNL1        0.1895
     11 C          19.2749   71.1141   -3.3740 C.3     1  UNL1        0.1764
     12 C          17.8987   71.0256   -5.2741 C.3     1  UNL1        0.2383
     13 H          16.3582   70.1865   -2.3024 H       1  UNL1        0.2105
     14 H          16.4107   68.3551   -4.0871 H       1  UNL1        0.2106
     15 O          16.0376   70.5340   -7.3411 O.2     1  UNL1       -0.2464
     16 O          19.3605   70.2983  -10.5261 O.2     1  UNL1       -0.2670
     17 N          18.2499   70.8323   -6.6527 N.ar    1  UNL1       -0.2551
     18 N          17.6936   70.4172   -8.9253 N.ar    1  UNL1       -0.2743
     19 C          17.2389   70.5907   -7.6119 C.ar    1  UNL1        0.3323
     20 C          19.5840   70.8836   -7.0417 C.ar    1  UNL1        0.0869
     21 C          20.0013   70.7147   -8.2982 C.ar    1  UNL1        0.0795
     22 C          19.0085   70.4578   -9.3614 C.ar    1  UNL1        0.2626
     23 H          17.0071   70.2472   -9.6106 H       1  UNL1        0.1734
     24 O          20.9942   71.8048   -1.0267 O.3     1  UNL1       -0.2703
     25 P          21.6499   73.2818   -1.0679 P.3     1  UNL1        0.2208
     26 O          23.1709   73.0262   -0.5795 O.co2   1  UNL1       -0.4371
     27 O          20.9055   74.3082   -0.2640 O.2     1  UNL1       -0.5170
     28 O          21.7790   73.6277   -2.6391 O.3     1  UNL1       -0.2858
     29 O          23.0887   73.1254   -4.5493 O.3     1  UNL1       -0.3258
     30 O          23.5770   77.2250   -4.4740 O.3     1  UNL1       -0.3794
     31 O          21.9212   76.0311   -6.4941 O.3     1  UNL1       -0.3794
     32 O          23.5204   75.7318   -1.9947 O.3     1  UNL1       -0.3775
     33 C          22.8711   75.9935   -4.2993 C.3     1  UNL1        0.1715
     34 C          22.7984   75.2861   -5.6540 C.3     1  UNL1        0.1694
     35 C          23.6158   75.1312   -3.2819 C.3     1  UNL1        0.1967
     36 C          22.2947   73.8447   -5.5000 C.3     1  UNL1        0.1761
     37 C          23.0679   73.7035   -3.2427 C.3     1  UNL1        0.2704
     38 H          23.1091   77.7774   -5.1185 H       1  UNL1        0.2105
     39 H          22.2503   76.9394   -6.5827 H       1  UNL1        0.2105
     40 H          23.8707   76.6349   -2.0327 H       1  UNL1        0.2106
     41 O          22.0693   73.9613   -7.8758 O.3     1  UNL1       -0.3794
     42 C          22.3636   73.0712   -6.8149 C.3     1  UNL1        0.1693
     43 H          22.1098   73.4828   -8.7191 H       1  UNL1        0.2105
@<TRIPOS>UNITY_ATOM_ATTR
2 1
charge -1
26 1
charge -1
@<TRIPOS>BOND
     1    25    28    1
     2    25    24    1
     3    25    26    1
     4    25    27    2
     5     1     4    1
     6     1    24    1
     7     1     2    1
     8     1     3    2
     9     6    11    1
    10     6    12    1
    11    29    36    1
    12    29    37    1
    13     7     9    1
    14     7    13    1
    15     8    10    1
    16     8    14    1
    17    28    37    1
    18     4     5    1
    19    30    33    1
    20    30    38    1
    21    31    34    1
    22    31    39    1
    23    32    35    1
    24    32    40    1
    25    41    42    1
    26    41    43    1
    27    15    19    2
    28    16    22    2
    29    17    12    1
    30    17    19   ar
    31    17    20   ar
    32    18    19   ar
    33    18    22   ar
    34    18    23    1
    35     9    10    1
    36     9    11    1
    37    10    12    1
    38    11     5    1
    39    33    34    1
    40    33    35    1
    41    34    36    1
    42    35    37    1
    43    36    42    1
    44    20    21   ar
    45    21    22   ar
@<TRIPOS>MOLECULE
*****
 43 45 0 0 0
SMALL
GASTEIGER

@<TRIPOS>ATOM
      1 P          21.5648   70.6278   -1.2537 P.3     1  UNL1        0.2189
      2 O          23.1816   70.6686   -1.2104 O.co2   1  UNL1       -0.4371
      3 O          20.9733   69.2888   -1.5831 O.2     1  UNL1       -0.5170
      4 O          21.1725   71.8352   -2.2567 O.3     1  UNL1       -0.3112
      5 C          20.5371   71.5165   -3.4825 C.3     1  UNL1        0.1811
      6 O          18.6056   72.3174   -4.6666 O.3     1  UNL1       -0.3308
      7 O          16.9817   71.1254   -2.4455 O.3     1  UNL1       -0.3794
      8 O          16.7460   69.2605   -4.4212 O.3     1  UNL1       -0.3779
      9 C          18.1877   70.6467   -3.0387 C.3     1  UNL1        0.1713
     10 C          17.9057   70.0678   -4.4094 C.3     1  UNL1        0.1895
     11 C          19.0560   71.8526   -3.3752 C.3     1  UNL1        0.1764
     12 C          17.7546   71.3205   -5.2556 C.3     1  UNL1        0.2383
     13 H          16.4110   70.3731   -2.2216 H       1  UNL1        0.2105
     14 H          16.8919   68.4766   -3.8690 H       1  UNL1        0.2106
     15 O          16.0399   70.3880   -7.2971 O.2     1  UNL1       -0.2464
     16 O          19.3988   70.5579  -10.4483 O.2     1  UNL1       -0.2670
     17 N          18.1546   71.1123   -6.6187 N.ar    1  UNL1       -0.2551
     18 N          17.7137   70.4735   -8.8645 N.ar    1  UNL1       -0.2743
     19 C          17.2162   70.6403   -7.5658 C.ar    1  UNL1        0.3323
     20 C          19.4645   71.3757   -7.0045 C.ar    1  UNL1        0.0869
     21 C          19.9234   71.2103   -8.2468 C.ar    1  UNL1        0.0795
     22 C          19.0071   70.7204   -9.2968 C.ar    1  UNL1        0.2626
     23 H          17.0780   70.1453   -9.5412 H       1  UNL1        0.1734
     24 O          21.1476   71.2094    0.1957 O.3     1  UNL1       -0.2703
     25 P          22.0490   71.7806    1.4098 P.3     1  UNL1        0.2208
     26 O          22.8126   73.0418    0.7436 O.co2   1  UNL1       -0.4371
     27 O          22.9607   70.7625    2.0312 O.2     1  UNL1       -0.5170
     28 O          20.9876   72.4399    2.4315 O.3     1  UNL1       -0.2858
     29 O          19.8912   74.4506    3.0410 O.3     1  UNL1       -0.3258
     30 O          22.0888   73.8283    6.4811 O.3     1  UNL1       -0.3794
     31 O          19.2481   73.4071    6.5176 O.3     1  UNL1       -0.3794
     32 O          23.2478   73.2242    3.8982 O.3     1  UNL1       -0.3775
     33 C          21.3265   73.4422    5.3343 C.3     1  UNL1        0.1715
     34 C          19.9330   74.0625    5.4538 C.3     1  UNL1        0.1694
     35 C          22.0315   73.9424    4.0748 C.3     1  UNL1        0.1967
     36 C          19.1478   73.9173    4.1432 C.3     1  UNL1        0.1761
     37 C          21.1455   73.7973    2.8363 C.3     1  UNL1        0.2704
     38 H          21.6468   73.5133    7.2842 H       1  UNL1        0.2105
     39 H          19.7546   73.5059    7.3391 H       1  UNL1        0.2105
     40 H          23.7999   73.3242    4.6889 H       1  UNL1        0.2106
     41 O          17.4858   75.0714    2.8725 O.3     1  UNL1       -0.3794
     42 C          17.8174   74.6657    4.1877 C.3     1  UNL1        0.1693
     43 H          16.6411   75.5488    2.8853 H       1  UNL1        0.2105
@<TRIPOS>UNITY_ATOM_ATTR
2 1
charge -1
26 1
charge -1
@<TRIPOS>BOND
     1    25    28    1
     2    25    24    1
     3    25    26    1
     4    25    27    2
     5     1     4    1
     6     1    24    1
     7     1     2    1
     8     1     3    2
     9     6    11    1
    10     6    12    1
    11    29    36    1
    12    29    37    1
    13     7     9    1
    14     7    13    1
    15     8    10    1
    16     8    14    1
    17    28    37    1
    18     4     5    1
    19    30    33    1
    20    30    38    1
    21    31    34    1
    22    31    39    1
    23    32    35    1
    24    32    40    1
    25    41    42    1
    26    41    43    1
    27    15    19    2
    28    16    22    2
    29    17    12    1
    30    17    19   ar
    31    17    20   ar
    32    18    19   ar
    33    18    22   ar
    34    18    23    1
    35     9    10    1
    36     9    11    1
    37    10    12    1
    38    11     5    1
    39    33    34    1
    40    33    35    1
    41    34    36    1
    42    35    37    1
    43    36    42    1
    44    20    21   ar
    45    21    22   ar
@<TRIPOS>MOLECULE
*****
 43 45 0 0 0
SMALL
GASTEIGER

@<TRIPOS>ATOM
      1 P          22.7744   73.2929   -3.1714 P.3     1  UNL1        0.2189
      2 O          23.8430   72.6035   -4.1715 O.co2   1  UNL1       -0.4371
      3 O          22.9555   72.9561   -1.7205 O.2     1  UNL1       -0.5170
      4 O          21.3390   72.9046   -3.8090 O.3     1  UNL1       -0.3112
      5 C          20.8139   71.6131   -3.5559 C.3     1  UNL1        0.1811
      6 O          18.7056   72.1391   -4.5816 O.3     1  UNL1       -0.3308
      7 O          17.4386   70.6779   -2.2902 O.3     1  UNL1       -0.3794
      8 O          17.3387   68.8355   -4.2982 O.3     1  UNL1       -0.3779
      9 C          18.6562   70.3951   -2.9780 C.3     1  UNL1        0.1713
     10 C          18.3647   69.8061   -4.3424 C.3     1  UNL1        0.1895
     11 C          19.3110   71.7229   -3.3380 C.3     1  UNL1        0.1764
     12 C          17.9705   71.0377   -5.1397 C.3     1  UNL1        0.2383
     13 H          17.0024   69.8450   -2.0496 H       1  UNL1        0.2105
     14 H          17.6377   68.0720   -3.7801 H       1  UNL1        0.2106
     15 O          16.1203   70.3490   -7.1597 O.2     1  UNL1       -0.2464
     16 O          19.3391   70.6009  -10.4487 O.2     1  UNL1       -0.2670
     17 N          18.2978   70.9166   -6.5324 N.ar    1  UNL1       -0.2551
     18 N          17.7245   70.4752   -8.7958 N.ar    1  UNL1       -0.2743
     19 C          17.2949   70.5647   -7.4655 C.ar    1  UNL1        0.3323
     20 C          19.6009   71.1460   -6.9605 C.ar    1  UNL1        0.0869
     21 C          19.9946   71.0553   -8.2325 C.ar    1  UNL1        0.0795
     22 C          19.0082   70.6925   -9.2706 C.ar    1  UNL1        0.2626
     23 H          17.0431   70.2310   -9.4635 H       1  UNL1        0.1734
     24 O          22.9131   74.8654   -3.5193 O.3     1  UNL1       -0.2703
     25 P          24.0544   75.6775   -4.3259 P.3     1  UNL1        0.2208
     26 O          25.4038   74.8485   -3.9949 O.co2   1  UNL1       -0.4371
     27 O          24.1262   77.1383   -3.9869 O.2     1  UNL1       -0.5170
     28 O          23.7557   75.3657   -5.8811 O.3     1  UNL1       -0.2858
     29 O          21.9380   76.4547   -6.9425 O.3     1  UNL1       -0.3258
     30 O          22.4163   73.2828   -9.5427 O.3     1  UNL1       -0.3794
     31 O          23.2125   75.9185  -10.3596 O.3     1  UNL1       -0.3794
     32 O          22.7445   72.8778   -6.6953 O.3     1  UNL1       -0.3775
     33 C          22.8484   74.3008   -8.6359 C.3     1  UNL1        0.1715
     34 C          22.4249   75.6579   -9.2012 C.3     1  UNL1        0.1694
     35 C          22.2031   74.0613   -7.2722 C.3     1  UNL1        0.1967
     36 C          22.6142   76.7734   -8.1644 C.3     1  UNL1        0.1761
     37 C          22.4089   75.2511   -6.3331 C.3     1  UNL1        0.2704
     38 H          22.8229   73.4288  -10.4104 H       1  UNL1        0.2105
     39 H          23.0843   75.2066  -11.0061 H       1  UNL1        0.2105
     40 H          22.6076   72.1320   -7.2993 H       1  UNL1        0.2106
     41 O          21.0481   77.8477   -9.6142 O.3     1  UNL1       -0.3794
     42 C          22.0521   78.1075   -8.6505 C.3     1  UNL1        0.1693
     43 H          20.6810   78.6877   -9.9324 H       1  UNL1        0.2105
@<TRIPOS>UNITY_ATOM_ATTR
2 1
charge -1
26 1
charge -1
@<TRIPOS>BOND
     1    25    28    1
     2    25    24    1
     3    25    26    1
     4    25    27    2
     5     1     4    1
     6     1    24    1
     7     1     2    1
     8     1     3    2
     9     6    11    1
    10     6    12    1
    11    29    36    1
    12    29    37    1
    13     7     9    1
    14     7    13    1
    15     8    10    1
    16     8    14    1
    17    28    37    1
    18     4     5    1
    19    30    33    1
    20    30    38    1
    21    31    34    1
    22    31    39    1
    23    32    35    1
    24    32    40    1
    25    41    42    1
    26    41    43    1
    27    15    19    2
    28    16    22    2
    29    17    12    1
    30    17    19   ar
    31    17    20   ar
    32    18    19   ar
    33    18    22   ar
    34    18    23    1
    35     9    10    1
    36     9    11    1
    37    10    12    1
    38    11     5    1
    39    33    34    1
    40    33    35    1
    41    34    36    1
    42    35    37    1
    43    36    42    1
    44    20    21   ar
    45    21    22   ar
@<TRIPOS>MOLECULE
*****
 43 45 0 0 0
SMALL
GASTEIGER

@<TRIPOS>ATOM
      1 P          22.4906   72.8214   -4.5500 P.3     1  UNL1        0.2189
      2 O          22.7274   73.1673   -6.1126 O.co2   1  UNL1       -0.4371
      3 O          23.6122   72.0754   -3.8890 O.2     1  UNL1       -0.5170
      4 O          21.0493   72.0865   -4.5289 O.3     1  UNL1       -0.3112
      5 C          20.6163   71.4819   -3.3228 C.3     1  UNL1        0.1811
      6 O          18.6241   72.3337   -4.3617 O.3     1  UNL1       -0.3308
      7 O          17.1087   70.8434   -2.2466 O.3     1  UNL1       -0.3794
      8 O          16.8811   69.1996   -4.4105 O.3     1  UNL1       -0.3779
      9 C          18.3129   70.4794   -2.9194 C.3     1  UNL1        0.1713
     10 C          18.0116   70.0444   -4.3384 C.3     1  UNL1        0.1895
     11 C          19.1280   71.7473   -3.1416 C.3     1  UNL1        0.1764
     12 C          17.7918   71.3759   -5.0361 C.3     1  UNL1        0.2383
     13 H          16.5716   70.0498   -2.0933 H       1  UNL1        0.2105
     14 H          17.0707   68.3659   -3.9526 H       1  UNL1        0.2106
     15 O          16.3167   70.0358   -7.0376 O.2     1  UNL1       -0.2464
     16 O          19.2960   71.2826  -10.3256 O.2     1  UNL1       -0.2670
     17 N          18.1589   71.3344   -6.4235 N.ar    1  UNL1       -0.2551
     18 N          17.8013   70.6578   -8.6732 N.ar    1  UNL1       -0.2743
     19 C          17.3498   70.6327   -7.3474 C.ar    1  UNL1        0.3323
     20 C          19.3096   71.9848   -6.8557 C.ar    1  UNL1        0.0869
     21 C          19.7270   71.9982   -8.1233 C.ar    1  UNL1        0.0795
     22 C          18.9386   71.2889   -9.1516 C.ar    1  UNL1        0.2626
     23 H          17.2538   70.1754   -9.3344 H       1  UNL1        0.1734
     24 O          22.1706   74.2674   -3.9021 O.3     1  UNL1       -0.2703
     25 P          22.2488   75.7538   -4.5324 P.3     1  UNL1        0.2208
     26 O          23.2628   76.5265   -3.5362 O.co2   1  UNL1       -0.4371
     27 O          20.9150   76.4225   -4.6991 O.2     1  UNL1       -0.5170
     28 O          23.0823   75.5732   -5.9027 O.3     1  UNL1       -0.2858
     29 O          24.9245   76.1756   -7.2666 O.3     1  UNL1       -0.3258
     30 O          22.0081   78.5081   -9.0288 O.3     1  UNL1       -0.3794
     31 O          22.9911   76.1870  -10.4052 O.3     1  UNL1       -0.3794
     32 O          22.0437   78.1680   -6.1543 O.3     1  UNL1       -0.3775
     33 C          22.5285   77.3515   -8.3678 C.3     1  UNL1        0.1715
     34 C          23.6181   76.7430   -9.2528 C.3     1  UNL1        0.1694
     35 C          23.1040   77.7663   -7.0150 C.3     1  UNL1        0.1967
     36 C          24.4050   75.6625   -8.4989 C.3     1  UNL1        0.1761
     37 C          23.9087   76.6350   -6.3726 C.3     1  UNL1        0.2704
     38 H          21.6407   78.2515   -9.8882 H       1  UNL1        0.2105
     39 H          22.4973   76.8795  -10.8719 H       1  UNL1        0.2105
     40 H          21.5421   78.8847   -6.5721 H       1  UNL1        0.2106
     41 O          25.1167   74.2765  -10.3103 O.3     1  UNL1       -0.3794
     42 C          25.5962   75.1534   -9.3075 C.3     1  UNL1        0.1693
     43 H          25.8640   73.9449  -10.8332 H       1  UNL1        0.2105
@<TRIPOS>UNITY_ATOM_ATTR
2 1
charge -1
26 1
charge -1
@<TRIPOS>BOND
     1    25    28    1
     2    25    24    1
     3    25    26    1
     4    25    27    2
     5     1     4    1
     6     1    24    1
     7     1     2    1
     8     1     3    2
     9     6    11    1
    10     6    12    1
    11    29    36    1
    12    29    37    1
    13     7     9    1
    14     7    13    1
    15     8    10    1
    16     8    14    1
    17    28    37    1
    18     4     5    1
    19    30    33    1
    20    30    38    1
    21    31    34    1
    22    31    39    1
    23    32    35    1
    24    32    40    1
    25    41    42    1
    26    41    43    1
    27    15    19    2
    28    16    22    2
    29    17    12    1
    30    17    19   ar
    31    17    20   ar
    32    18    19   ar
    33    18    22   ar
    34    18    23    1
    35     9    10    1
    36     9    11    1
    37    10    12    1
    38    11     5    1
    39    33    34    1
    40    33    35    1
    41    34    36    1
    42    35    37    1
    43    36    42    1
    44    20    21   ar
    45    21    22   ar
@<TRIPOS>MOLECULE
*****
 43 45 0 0 0
SMALL
GASTEIGER

@<TRIPOS>ATOM
      1 P          22.4172   73.4377   -5.2423 P.3     1  UNL1        0.2189
      2 O          22.8558   74.8468   -5.9051 O.co2   1  UNL1       -0.4371
      3 O          23.5323   72.6639   -4.6026 O.2     1  UNL1       -0.5170
      4 O          21.6272   72.6778   -6.4325 O.3     1  UNL1       -0.3112
      5 C          20.8437   73.4507   -7.3250 C.3     1  UNL1        0.1811
      6 O          20.0426   71.2241   -7.7423 O.3     1  UNL1       -0.3308
      7 O          18.5269   72.4023  -10.0456 O.3     1  UNL1       -0.3794
      8 O          16.6003   72.1524   -8.1318 O.3     1  UNL1       -0.3779
      9 C          18.8025   72.9658   -8.7643 C.3     1  UNL1        0.1713
     10 C          17.9380   72.3132   -7.7058 C.3     1  UNL1        0.1895
     11 C          20.2007   72.5254   -8.3489 C.3     1  UNL1        0.1764
     12 C          18.6474   70.9866   -7.4935 C.3     1  UNL1        0.2383
     13 H          17.6391   72.6700  -10.3321 H       1  UNL1        0.2105
     14 H          16.1924   73.0240   -8.2529 H       1  UNL1        0.2106
     15 O          16.3165   69.7181   -6.5261 O.2     1  UNL1       -0.2464
     16 O          18.1568   69.1209   -2.3430 O.2     1  UNL1       -0.2670
     17 N          18.4902   70.4894   -6.1558 N.ar    1  UNL1       -0.2551
     18 N          17.2348   69.4216   -4.4441 N.ar    1  UNL1       -0.2743
     19 C          17.2788   69.8693   -5.7706 C.ar    1  UNL1        0.3323
     20 C          19.5304   70.6186   -5.2419 C.ar    1  UNL1        0.0869
     21 C          19.4720   70.1875   -3.9801 C.ar    1  UNL1        0.0795
     22 C          18.2415   69.5281   -3.4975 C.ar    1  UNL1        0.2626
     23 H          16.4005   68.9867   -4.1532 H       1  UNL1        0.1734
     24 O          21.2293   73.8650   -4.2327 O.3     1  UNL1       -0.2703
     25 P          21.2713   74.3731   -2.6988 P.3     1  UNL1        0.2208
     26 O          19.7826   74.9607   -2.4617 O.co2   1  UNL1       -0.4371
     27 O          22.3755   75.3463   -2.4029 O.2     1  UNL1       -0.5170
     28 O          21.3197   73.0195   -1.8212 O.3     1  UNL1       -0.2858
     29 O          22.9706   73.3391   -0.1511 O.3     1  UNL1       -0.3258
     30 O          21.9064   69.4433    0.7101 O.3     1  UNL1       -0.3794
     31 O          21.0969   71.5580    2.4767 O.3     1  UNL1       -0.3794
     32 O          22.0626   70.3225   -2.0435 O.3     1  UNL1       -0.3775
     33 C          21.6845   70.7918    0.2884 C.3     1  UNL1        0.1715
     34 C          22.0623   71.7233    1.4419 C.3     1  UNL1        0.1694
     35 C          22.5467   71.0792   -0.9393 C.3     1  UNL1        0.1967
     36 C          22.1063   73.1863    0.9808 C.3     1  UNL1        0.1761
     37 C          22.5606   72.5697   -1.2833 C.3     1  UNL1        0.2704
     38 H          21.3615   69.2542    1.4890 H       1  UNL1        0.2105
     39 H          21.0788   70.6298    2.7585 H       1  UNL1        0.2105
     40 H          22.0590   69.3808   -1.8132 H       1  UNL1        0.2106
     41 O          21.8253   73.9573    3.2248 O.3     1  UNL1       -0.3794
     42 C          22.6333   74.1146    2.0729 C.3     1  UNL1        0.1693
     43 H          22.1492   74.5419    3.9284 H       1  UNL1        0.2105
@<TRIPOS>UNITY_ATOM_ATTR
2 1
charge -1
26 1
charge -1
@<TRIPOS>BOND
     1    25    28    1
     2    25    24    1
     3    25    26    1
     4    25    27    2
     5     1     4    1
     6     1    24    1
     7     1     2    1
     8     1     3    2
     9     6    11    1
    10     6    12    1
    11    29    36    1
    12    29    37    1
    13     7     9    1
    14     7    13    1
    15     8    10    1
    16     8    14    1
    17    28    37    1
    18     4     5    1
    19    30    33    1
    20    30    38    1
    21    31    34    1
    22    31    39    1
    23    32    35    1
    24    32    40    1
    25    41    42    1
    26    41    43    1
    27    15    19    2
    28    16    22    2
    29    17    12    1
    30    17    19   ar
    31    17    20   ar
    32    18    19   ar
    33    18    22   ar
    34    18    23    1
    35     9    10    1
    36     9    11    1
    37    10    12    1
    38    11     5    1
    39    33    34    1
    40    33    35    1
    41    34    36    1
    42    35    37    1
    43    36    42    1
    44    20    21   ar
    45    21    22   ar
@<TRIPOS>MOLECULE
*****
 43 45 0 0 0
SMALL
GASTEIGER

@<TRIPOS>ATOM
      1 P          19.8901   70.0605   -2.6329 P.3     1  UNL1        0.2189
      2 O          21.2411   69.2750   -3.0515 O.co2   1  UNL1       -0.4371
      3 O          18.7656   69.1832   -2.1667 O.2     1  UNL1       -0.5170
      4 O          19.5689   70.9920   -3.9162 O.3     1  UNL1       -0.3112
      5 C          20.2244   72.2436   -4.0242 C.3     1  UNL1        0.1811
      6 O          19.2584   73.6176   -5.7425 O.3     1  UNL1       -0.3308
      7 O          16.9665   74.0397   -3.8558 O.3     1  UNL1       -0.3794
      8 O          15.9876   72.1567   -5.5683 O.3     1  UNL1       -0.3779
      9 C          17.7595   72.8724   -4.0651 C.3     1  UNL1        0.1713
     10 C          17.3864   72.2113   -5.3756 C.3     1  UNL1        0.1895
     11 C          19.1916   73.3194   -4.3308 C.3     1  UNL1        0.1764
     12 C          18.0816   73.1051   -6.3885 C.3     1  UNL1        0.2383
     13 H          16.0474   73.7795   -3.6838 H       1  UNL1        0.2105
     14 H          15.5914   71.5761   -4.8999 H       1  UNL1        0.2106
     15 O          17.9004   74.1409   -9.0100 O.2     1  UNL1       -0.2464
     16 O          19.6088   70.2767  -10.8514 O.2     1  UNL1       -0.2670
     17 N          18.4724   72.3914   -7.5715 N.ar    1  UNL1       -0.2551
     18 N          18.7514   72.2160   -9.9247 N.ar    1  UNL1       -0.2743
     19 C          18.3401   73.0017   -8.8405 C.ar    1  UNL1        0.3323
     20 C          18.9807   71.1013   -7.4663 C.ar    1  UNL1        0.0869
     21 C          19.3672   70.3649   -8.5102 C.ar    1  UNL1        0.0795
     22 C          19.2617   70.9286   -9.8714 C.ar    1  UNL1        0.2626
     23 H          18.6680   72.6204  -10.8188 H       1  UNL1        0.1734
     24 O          20.4137   71.1240   -1.5339 O.3     1  UNL1       -0.2703
     25 P          21.4509   70.9572   -0.3053 P.3     1  UNL1        0.2208
     26 O          22.8501   71.4794   -0.9274 O.co2   1  UNL1       -0.4371
     27 O          21.5073   69.5711    0.2686 O.2     1  UNL1       -0.5170
     28 O          21.0218   72.1009    0.7496 O.3     1  UNL1       -0.2858
     29 O          21.5746   74.3030    1.4293 O.3     1  UNL1       -0.3258
     30 O          22.0815   72.3531    5.0337 O.3     1  UNL1       -0.3794
     31 O          19.8150   74.0771    4.6607 O.3     1  UNL1       -0.3794
     32 O          22.8906   71.0668    2.5699 O.3     1  UNL1       -0.3775
     33 C          21.4749   72.6070    3.7637 C.3     1  UNL1        0.1715
     34 C          20.9271   74.0355    3.7709 C.3     1  UNL1        0.1694
     35 C          22.5245   72.4391    2.6667 C.3     1  UNL1        0.1967
     36 C          20.5014   74.4726    2.3627 C.3     1  UNL1        0.1761
     37 C          22.0171   72.9490    1.3167 C.3     1  UNL1        0.2704
     38 H          21.4202   72.4576    5.7347 H       1  UNL1        0.2105
     39 H          20.0972   73.7984    5.5461 H       1  UNL1        0.2105
     40 H          23.2104   70.7561    3.4308 H       1  UNL1        0.2106
     41 O          18.7116   76.0406    2.5787 O.3     1  UNL1       -0.3794
     42 C          20.0998   75.9453    2.3180 C.3     1  UNL1        0.1693
     43 H          18.4418   76.9725    2.5537 H       1  UNL1        0.2105
@<TRIPOS>UNITY_ATOM_ATTR
2 1
charge -1
26 1
charge -1
@<TRIPOS>BOND
     1    25    28    1
     2    25    24    1
     3    25    26    1
     4    25    27    2
     5     1     4    1
     6     1    24    1
     7     1     2    1
     8     1     3    2
     9     6    11    1
    10     6    12    1
    11    29    36    1
    12    29    37    1
    13     7     9    1
    14     7    13    1
    15     8    10    1
    16     8    14    1
    17    28    37    1
    18     4     5    1
    19    30    33    1
    20    30    38    1
    21    31    34    1
    22    31    39    1
    23    32    35    1
    24    32    40    1
    25    41    42    1
    26    41    43    1
    27    15    19    2
    28    16    22    2
    29    17    12    1
    30    17    19   ar
    31    17    20   ar
    32    18    19   ar
    33    18    22   ar
    34    18    23    1
    35     9    10    1
    36     9    11    1
    37    10    12    1
    38    11     5    1
    39    33    34    1
    40    33    35    1
    41    34    36    1
    42    35    37    1
    43    36    42    1
    44    20    21   ar
    45    21    22   ar
@<TRIPOS>MOLECULE
*****
 43 45 0 0 0
SMALL
GASTEIGER

@<TRIPOS>ATOM
      1 P          22.5136   72.8850   -4.6978 P.3     1  UNL1        0.2189
      2 O          22.8990   73.0354   -6.2619 O.co2   1  UNL1       -0.4371
      3 O          23.5312   72.1676   -3.8605 O.2     1  UNL1       -0.5170
      4 O          21.0354   72.2277   -4.7236 O.3     1  UNL1       -0.3112
      5 C          20.5483   71.6125   -3.5437 C.3     1  UNL1        0.1811
      6 O          18.5688   72.3388   -4.6961 O.3     1  UNL1       -0.3308
      7 O          17.0296   71.1377   -2.4203 O.3     1  UNL1       -0.3794
      8 O          16.8037   69.2349   -4.3606 O.3     1  UNL1       -0.3779
      9 C          18.2353   70.6838   -3.0331 C.3     1  UNL1        0.1713
     10 C          17.9397   70.0748   -4.3878 C.3     1  UNL1        0.1895
     11 C          19.0609   71.9082   -3.4081 C.3     1  UNL1        0.1764
     12 C          17.7339   71.3087   -5.2499 C.3     1  UNL1        0.2383
     13 H          16.4858   70.3733   -2.1717 H       1  UNL1        0.2105
     14 H          16.9843   68.4646   -3.7995 H       1  UNL1        0.2106
     15 O          16.0263   70.2191   -7.2182 O.2     1  UNL1       -0.2464
     16 O          19.2822   70.5122  -10.4669 O.2     1  UNL1       -0.2670
     17 N          18.1093   71.0897   -6.6183 N.ar    1  UNL1       -0.2551
     18 N          17.6488   70.3661   -8.8343 N.ar    1  UNL1       -0.2743
     19 C          17.1770   70.5361   -7.5264 C.ar    1  UNL1        0.3323
     20 C          19.3894   71.4229   -7.0475 C.ar    1  UNL1        0.0869
     21 C          19.8242   71.2534   -8.2979 C.ar    1  UNL1        0.0795
     22 C          18.9123   70.6806   -9.3091 C.ar    1  UNL1        0.2626
     23 H          17.0168   69.9816   -9.4843 H       1  UNL1        0.1734
     24 O          22.2252   74.4101   -4.2462 O.3     1  UNL1       -0.2703
     25 P          22.7838   75.8122   -4.8250 P.3     1  UNL1        0.2208
     26 O          22.5970   76.8283   -3.5799 O.co2   1  UNL1       -0.4371
     27 O          22.1216   76.2611   -6.0954 O.2     1  UNL1       -0.5170
     28 O          24.3795   75.5994   -4.9415 O.3     1  UNL1       -0.2858
     29 O          26.3663   76.2918   -3.8509 O.3     1  UNL1       -0.3258
     30 O          27.3566   77.3022   -7.7302 O.3     1  UNL1       -0.3794
     31 O          28.6162   75.0395   -6.4888 O.3     1  UNL1       -0.3794
     32 O          24.6519   77.7024   -6.7795 O.3     1  UNL1       -0.3775
     33 C          26.7460   76.5148   -6.7043 C.3     1  UNL1        0.1715
     34 C          27.8470   76.0025   -5.7737 C.3     1  UNL1        0.1694
     35 C          25.7518   77.3822   -5.9344 C.3     1  UNL1        0.1967
     36 C          27.2530   75.3764   -4.5048 C.3     1  UNL1        0.1761
     37 C          25.2596   76.6856   -4.6646 C.3     1  UNL1        0.2704
     38 H          27.9887   76.7573   -8.2232 H       1  UNL1        0.2105
     39 H          28.9853   75.4474   -7.2879 H       1  UNL1        0.2105
     40 H          24.9766   78.1432   -7.5796 H       1  UNL1        0.2106
     41 O          29.1415   73.9838   -4.0539 O.3     1  UNL1       -0.3794
     42 C          28.3331   75.0015   -3.4924 C.3     1  UNL1        0.1693
     43 H          29.8336   73.7353   -3.4207 H       1  UNL1        0.2105
@<TRIPOS>UNITY_ATOM_ATTR
2 1
charge -1
26 1
charge -1
@<TRIPOS>BOND
     1    25    28    1
     2    25    24    1
     3    25    26    1
     4    25    27    2
     5     1     4    1
     6     1    24    1
     7     1     2    1
     8     1     3    2
     9     6    11    1
    10     6    12    1
    11    29    36    1
    12    29    37    1
    13     7     9    1
    14     7    13    1
    15     8    10    1
    16     8    14    1
    17    28    37    1
    18     4     5    1
    19    30    33    1
    20    30    38    1
    21    31    34    1
    22    31    39    1
    23    32    35    1
    24    32    40    1
    25    41    42    1
    26    41    43    1
    27    15    19    2
    28    16    22    2
    29    17    12    1
    30    17    19   ar
    31    17    20   ar
    32    18    19   ar
    33    18    22   ar
    34    18    23    1
    35     9    10    1
    36     9    11    1
    37    10    12    1
    38    11     5    1
    39    33    34    1
    40    33    35    1
    41    34    36    1
    42    35    37    1
    43    36    42    1
    44    20    21   ar
    45    21    22   ar
@<TRIPOS>MOLECULE
*****
 43 45 0 0 0
SMALL
GASTEIGER

@<TRIPOS>ATOM
      1 P          22.8657   72.1640   -3.3359 P.3     1  UNL1        0.2189
      2 O          23.4702   70.6706   -3.1878 O.co2   1  UNL1       -0.4371
      3 O          23.8812   73.2672   -3.2801 O.2     1  UNL1       -0.5170
      4 O          21.7005   72.2242   -2.2149 O.3     1  UNL1       -0.3112
      5 C          22.0507   72.6039   -0.8955 C.3     1  UNL1        0.1811
      6 O          21.0544   72.7795    1.2841 O.3     1  UNL1       -0.3308
      7 O          18.9472   74.4672   -0.0207 O.3     1  UNL1       -0.3794
      8 O          20.5525   76.3285    1.1603 O.3     1  UNL1       -0.3779
      9 C          20.3447   74.3945   -0.2983 C.3     1  UNL1        0.1713
     10 C          21.1337   75.0955    0.7877 C.3     1  UNL1        0.1895
     11 C          20.7828   72.9455   -0.1248 C.3     1  UNL1        0.1764
     12 C          21.1030   74.0720    1.9101 C.3     1  UNL1        0.2383
     13 H          18.6441   75.3832   -0.1253 H       1  UNL1        0.2105
     14 H          20.5963   76.9456    0.4132 H       1  UNL1        0.2106
     15 O          21.2096   73.1487    4.5773 O.2     1  UNL1       -0.2464
     16 O          25.6253   74.3910    5.0240 O.2     1  UNL1       -0.2670
     17 N          22.2679   74.1414    2.7465 N.ar    1  UNL1       -0.2551
     18 N          23.4083   73.7679    4.7975 N.ar    1  UNL1       -0.2743
     19 C          22.2159   73.6504    4.0719 C.ar    1  UNL1        0.3323
     20 C          23.4452   74.6912    2.2509 C.ar    1  UNL1        0.0869
     21 C          24.5733   74.7971    2.9562 C.ar    1  UNL1        0.0795
     22 C          24.6035   74.3078    4.3496 C.ar    1  UNL1        0.2626
     23 H          23.3956   73.4328    5.7234 H       1  UNL1        0.1734
     24 O          22.0346   72.0841   -4.7200 O.3     1  UNL1       -0.2703
     25 P          21.7620   73.1969   -5.8603 P.3     1  UNL1        0.2208
     26 O          22.7905   72.7811   -7.0379 O.co2   1  UNL1       -0.4371
     27 O          21.9055   74.6135   -5.3844 O.2     1  UNL1       -0.5170
     28 O          20.3028   72.8326   -6.4460 O.3     1  UNL1       -0.2858
     29 O          18.6516   71.2861   -5.7400 O.3     1  UNL1       -0.3258
     30 O          18.3098   70.7968   -9.8259 O.3     1  UNL1       -0.3794
     31 O          16.2447   72.1785   -8.3856 O.3     1  UNL1       -0.3794
     32 O          20.9180   71.1827   -8.6311 O.3     1  UNL1       -0.3775
     33 C          18.5338   71.5240   -8.6149 C.3     1  UNL1        0.1715
     34 C          17.2733   71.4215   -7.7538 C.3     1  UNL1        0.1694
     35 C          19.7335   70.9220   -7.8858 C.3     1  UNL1        0.1967
     36 C          17.5280   71.9463   -6.3344 C.3     1  UNL1        0.1761
     37 C          19.8676   71.4756   -6.4661 C.3     1  UNL1        0.2704
     38 H          17.5496   71.1744  -10.2939 H       1  UNL1        0.2105
     39 H          16.0941   71.8373   -9.2812 H       1  UNL1        0.2105
     40 H          20.8206   70.8271   -9.5277 H       1  UNL1        0.2106
     41 O          16.6163   70.5946   -4.5878 O.3     1  UNL1       -0.3794
     42 C          16.3329   71.7088   -5.4138 C.3     1  UNL1        0.1693
     43 H          15.8645   70.4318   -3.9962 H       1  UNL1        0.2105
@<TRIPOS>UNITY_ATOM_ATTR
2 1
charge -1
26 1
charge -1
@<TRIPOS>BOND
     1    25    28    1
     2    25    24    1
     3    25    26    1
     4    25    27    2
     5     1     4    1
     6     1    24    1
     7     1     2    1
     8     1     3    2
     9     6    11    1
    10     6    12    1
    11    29    36    1
    12    29    37    1
    13     7     9    1
    14     7    13    1
    15     8    10    1
    16     8    14    1
    17    28    37    1
    18     4     5    1
    19    30    33    1
    20    30    38    1
    21    31    34    1
    22    31    39    1
    23    32    35    1
    24    32    40    1
    25    41    42    1
    26    41    43    1
    27    15    19    2
    28    16    22    2
    29    17    12    1
    30    17    19   ar
    31    17    20   ar
    32    18    19   ar
    33    18    22   ar
    34    18    23    1
    35     9    10    1
    36     9    11    1
    37    10    12    1
    38    11     5    1
    39    33    34    1
    40    33    35    1
    41    34    36    1
    42    35    37    1
    43    36    42    1
    44    20    21   ar
    45    21    22   ar
@<TRIPOS>MOLECULE
*****
 43 45 0 0 0
SMALL
GASTEIGER

@<TRIPOS>ATOM
      1 P          22.9271   72.4774   -3.5785 P.3     1  UNL1        0.2189
      2 O          23.1743   73.2011   -5.0041 O.co2   1  UNL1       -0.4371
      3 O          23.5456   71.1171   -3.4426 O.2     1  UNL1       -0.5170
      4 O          21.3223   72.5423   -3.3830 O.3     1  UNL1       -0.3112
      5 C          20.5767   71.3441   -3.5106 C.3     1  UNL1        0.1811
      6 O          18.6299   72.1725   -4.6497 O.3     1  UNL1       -0.3308
      7 O          17.0331   70.8931   -2.4579 O.3     1  UNL1       -0.3794
      8 O          16.7923   69.0964   -4.4952 O.3     1  UNL1       -0.3779
      9 C          18.2369   70.4435   -3.0775 C.3     1  UNL1        0.1713
     10 C          17.9468   69.9106   -4.4651 C.3     1  UNL1        0.1895
     11 C          19.0944   71.6662   -3.3792 C.3     1  UNL1        0.1764
     12 C          17.7803   71.1910   -5.2659 C.3     1  UNL1        0.2383
     13 H          16.4692   70.1296   -2.2554 H       1  UNL1        0.2105
     14 H          16.9481   68.2948   -3.9718 H       1  UNL1        0.2106
     15 O          16.0479   70.3404   -7.3283 O.2     1  UNL1       -0.2464
     16 O          19.3844   70.6192  -10.4955 O.2     1  UNL1       -0.2670
     17 N          18.1697   71.0329   -6.6387 N.ar    1  UNL1       -0.2551
     18 N          17.7106   70.4801   -8.9037 N.ar    1  UNL1       -0.2743
     19 C          17.2231   70.5994   -7.5959 C.ar    1  UNL1        0.3323
     20 C          19.4775   71.3071   -7.0240 C.ar    1  UNL1        0.0869
     21 C          19.9269   71.1871   -8.2749 C.ar    1  UNL1        0.0795
     22 C          19.0016   70.7395   -9.3358 C.ar    1  UNL1        0.2626
     23 H          17.0690   70.1792   -9.5875 H       1  UNL1        0.1734
     24 O          23.4669   73.5708   -2.5173 O.3     1  UNL1       -0.2703
     25 P          22.7330   74.8379   -1.8326 P.3     1  UNL1        0.2208
     26 O          21.2460   74.7937   -2.4686 O.co2   1  UNL1       -0.4371
     27 O          23.4504   76.1425   -2.0253 O.2     1  UNL1       -0.5170
     28 O          22.5296   74.4078   -0.2903 O.3     1  UNL1       -0.2858
     29 O          21.1396   72.4887   -0.2526 O.3     1  UNL1       -0.3258
     30 O          21.5279   73.1021    3.8123 O.3     1  UNL1       -0.3794
     31 O          22.8904   70.8977    2.5744 O.3     1  UNL1       -0.3794
     32 O          21.2729   75.3672    2.0281 O.3     1  UNL1       -0.3775
     33 C          21.9583   73.0968    2.4484 C.3     1  UNL1        0.1715
     34 C          21.8774   71.6612    1.9256 C.3     1  UNL1        0.1694
     35 C          21.0503   74.0173    1.6350 C.3     1  UNL1        0.1967
     36 C          22.0657   71.6147    0.4032 C.3     1  UNL1        0.1761
     37 C          21.2846   73.8573    0.1318 C.3     1  UNL1        0.2704
     38 H          22.1006   72.5199    4.3344 H       1  UNL1        0.2105
     39 H          22.7603   70.9357    3.5350 H       1  UNL1        0.2105
     40 H          21.1210   75.4555    2.9815 H       1  UNL1        0.2106
     41 O          22.8328   69.3524    0.3514 O.3     1  UNL1       -0.3794
     42 C          21.8325   70.2143   -0.1593 C.3     1  UNL1        0.1693
     43 H          22.6968   68.4574    0.0020 H       1  UNL1        0.2105
@<TRIPOS>UNITY_ATOM_ATTR
2 1
charge -1
26 1
charge -1
@<TRIPOS>BOND
     1    25    28    1
     2    25    24    1
     3    25    26    1
     4    25    27    2
     5     1     4    1
     6     1    24    1
     7     1     2    1
     8     1     3    2
     9     6    11    1
    10     6    12    1
    11    29    36    1
    12    29    37    1
    13     7     9    1
    14     7    13    1
    15     8    10    1
    16     8    14    1
    17    28    37    1
    18     4     5    1
    19    30    33    1
    20    30    38    1
    21    31    34    1
    22    31    39    1
    23    32    35    1
    24    32    40    1
    25    41    42    1
    26    41    43    1
    27    15    19    2
    28    16    22    2
    29    17    12    1
    30    17    19   ar
    31    17    20   ar
    32    18    19   ar
    33    18    22   ar
    34    18    23    1
    35     9    10    1
    36     9    11    1
    37    10    12    1
    38    11     5    1
    39    33    34    1
    40    33    35    1
    41    34    36    1
    42    35    37    1
    43    36    42    1
    44    20    21   ar
    45    21    22   ar
@<TRIPOS>MOLECULE
*****
 43 45 0 0 0
SMALL
GASTEIGER

@<TRIPOS>ATOM
      1 P          21.5409   70.4451   -0.5494 P.3     1  UNL1        0.2189
      2 O          22.8515   70.4384   -1.4978 O.co2   1  UNL1       -0.4371
      3 O          21.7529   69.8902    0.8285 O.2     1  UNL1       -0.5170
      4 O          20.4130   69.7020   -1.4402 O.3     1  UNL1       -0.3112
      5 C          20.3448   69.9937   -2.8251 C.3     1  UNL1        0.1811
      6 O          19.3632   71.9691   -3.7780 O.3     1  UNL1       -0.3308
      7 O          16.7901   70.4311   -3.8458 O.3     1  UNL1       -0.3794
      8 O          17.6475   70.2695   -6.4295 O.3     1  UNL1       -0.3779
      9 C          18.1226   69.9704   -4.0639 C.3     1  UNL1        0.1713
     10 C          18.6220   70.4277   -5.4186 C.3     1  UNL1        0.1895
     11 C          19.0422   70.7273   -3.1138 C.3     1  UNL1        0.1764
     12 C          18.9591   71.8854   -5.1545 C.3     1  UNL1        0.2383
     13 H          16.1844   69.9617   -4.4413 H       1  UNL1        0.2105
     14 H          17.4675   69.3255   -6.5604 H       1  UNL1        0.2106
     15 O          19.6152   70.8082   -7.6817 O.2     1  UNL1       -0.2464
     16 O          23.0912   73.7807   -8.2501 O.2     1  UNL1       -0.2670
     17 N          20.0306   72.3588   -5.9846 N.ar    1  UNL1       -0.2551
     18 N          21.3453   72.2893   -7.9628 N.ar    1  UNL1       -0.2743
     19 C          20.2771   71.7480   -7.2363 C.ar    1  UNL1        0.3323
     20 C          20.8235   73.4177   -5.5558 C.ar    1  UNL1        0.0869
     21 C          21.8393   73.9213   -6.2600 C.ar    1  UNL1        0.0795
     22 C          22.1634   73.3400   -7.5787 C.ar    1  UNL1        0.2626
     23 H          21.5359   71.8794   -8.8377 H       1  UNL1        0.1734
     24 O          21.0729   71.9919   -0.5871 O.3     1  UNL1       -0.2703
     25 P          21.8984   73.3573   -0.3282 P.3     1  UNL1        0.2208
     26 O          20.9927   74.4823   -1.0574 O.co2   1  UNL1       -0.4371
     27 O          23.3244   73.3122   -0.7953 O.2     1  UNL1       -0.5170
     28 O          21.7200   73.6497    1.2490 O.3     1  UNL1       -0.2858
     29 O          23.6625   74.0535    2.5452 O.3     1  UNL1       -0.3258
     30 O          21.0375   73.0727    5.5781 O.3     1  UNL1       -0.3794
     31 O          21.8684   75.8021    5.2494 O.3     1  UNL1       -0.3794
     32 O          20.9248   71.6558    3.0564 O.3     1  UNL1       -0.3775
     33 C          21.4266   73.6409    4.3247 C.3     1  UNL1        0.1715
     34 C          22.4940   74.7042    4.5909 C.3     1  UNL1        0.1694
     35 C          21.9802   72.5365    3.4263 C.3     1  UNL1        0.1967
     36 C          23.1511   75.1689    3.2842 C.3     1  UNL1        0.1761
     37 C          22.6552   73.1087    2.1785 C.3     1  UNL1        0.2704
     38 H          20.6847   73.7687    6.1531 H       1  UNL1        0.2105
     39 H          21.4571   75.4951    6.0726 H       1  UNL1        0.2105
     40 H          20.5058   71.3000    3.8550 H       1  UNL1        0.2106
     41 O          24.7162   75.9878    4.8932 O.3     1  UNL1       -0.3794
     42 C          24.3252   76.1118    3.5382 C.3     1  UNL1        0.1693
     43 H          25.4629   76.5820    5.0693 H       1  UNL1        0.2105
@<TRIPOS>UNITY_ATOM_ATTR
2 1
charge -1
26 1
charge -1
@<TRIPOS>BOND
     1    25    28    1
     2    25    24    1
     3    25    26    1
     4    25    27    2
     5     1     4    1
     6     1    24    1
     7     1     2    1
     8     1     3    2
     9     6    11    1
    10     6    12    1
    11    29    36    1
    12    29    37    1
    13     7     9    1
    14     7    13    1
    15     8    10    1
    16     8    14    1
    17    28    37    1
    18     4     5    1
    19    30    33    1
    20    30    38    1
    21    31    34    1
    22    31    39    1
    23    32    35    1
    24    32    40    1
    25    41    42    1
    26    41    43    1
    27    15    19    2
    28    16    22    2
    29    17    12    1
    30    17    19   ar
    31    17    20   ar
    32    18    19   ar
    33    18    22   ar
    34    18    23    1
    35     9    10    1
    36     9    11    1
    37    10    12    1
    38    11     5    1
    39    33    34    1
    40    33    35    1
    41    34    36    1
    42    35    37    1
    43    36    42    1
    44    20    21   ar
    45    21    22   ar
@<TRIPOS>MOLECULE
*****
 43 45 0 0 0
SMALL
GASTEIGER

@<TRIPOS>ATOM
      1 P          23.0573   72.3511   -3.4529 P.3     1  UNL1        0.2189
      2 O          23.3977   70.7985   -3.1511 O.co2   1  UNL1       -0.4371
      3 O          24.1578   73.1233   -4.1190 O.2     1  UNL1       -0.5170
      4 O          22.5618   72.9250   -2.0235 O.3     1  UNL1       -0.3112
      5 C          22.3413   72.0077   -0.9663 C.3     1  UNL1        0.1811
      6 O          21.1617   72.2640    1.1114 O.3     1  UNL1       -0.3308
      7 O          19.0552   73.6899   -0.4761 O.3     1  UNL1       -0.3794
      8 O          20.4264   75.7471    0.6748 O.3     1  UNL1       -0.3779
      9 C          20.4723   73.7029   -0.6408 C.3     1  UNL1        0.1713
     10 C          21.1200   74.5377    0.4442 C.3     1  UNL1        0.1895
     11 C          20.9944   72.3074   -0.3227 C.3     1  UNL1        0.1764
     12 C          21.0696   73.5982    1.6370 C.3     1  UNL1        0.2383
     13 H          18.6988   74.5707   -0.6742 H       1  UNL1        0.2105
     14 H          20.4876   76.3103   -0.1124 H       1  UNL1        0.2106
     15 O          23.5450   74.7593    0.9283 O.2     1  UNL1       -0.2464
     16 O          25.1619   74.3799    5.2275 O.2     1  UNL1       -0.2670
     17 N          22.1552   73.8151    2.5513 N.ar    1  UNL1       -0.2551
     18 N          24.3480   74.5696    3.0696 N.ar    1  UNL1       -0.2743
     19 C          23.3567   74.4046    2.0938 C.ar    1  UNL1        0.3323
     20 C          22.0222   73.4451    3.8852 C.ar    1  UNL1        0.0869
     21 C          22.9775   73.6080    4.8029 C.ar    1  UNL1        0.0795
     22 C          24.2639   74.2168    4.4072 C.ar    1  UNL1        0.2626
     23 H          25.1939   74.9780    2.7739 H       1  UNL1        0.1734
     24 O          21.6860   72.2636   -4.3044 O.3     1  UNL1       -0.2703
     25 P          21.2012   73.0661   -5.6211 P.3     1  UNL1        0.2208
     26 O          22.1888   72.5133   -6.7772 O.co2   1  UNL1       -0.4371
     27 O          21.2029   74.5595   -5.4671 O.2     1  UNL1       -0.5170
     28 O          19.7605   72.4322   -5.9784 O.3     1  UNL1       -0.2858
     29 O          20.0058   70.1129   -5.5577 O.3     1  UNL1       -0.3258
     30 O          16.0479   70.1550   -6.7345 O.3     1  UNL1       -0.3794
     31 O          16.7006   69.7384   -3.9689 O.3     1  UNL1       -0.3794
     32 O          17.9674   71.8677   -8.0619 O.3     1  UNL1       -0.3775
     33 C          17.2267   70.6690   -6.1085 C.3     1  UNL1        0.1715
     34 C          17.6602   69.6843   -5.0208 C.3     1  UNL1        0.1694
     35 C          18.3231   70.8248   -7.1607 C.3     1  UNL1        0.1967
     36 C          19.0576   70.0279   -4.4875 C.3     1  UNL1        0.1761
     37 C          19.6819   71.1169   -6.5215 C.3     1  UNL1        0.2704
     38 H          15.3477   70.0542   -6.0719 H       1  UNL1        0.2105
     39 H          15.8226   69.5199   -4.3190 H       1  UNL1        0.2105
     40 H          17.1056   71.6709   -8.4601 H       1  UNL1        0.2106
     41 O          20.9478   69.2160   -3.2723 O.3     1  UNL1       -0.3794
     42 C          19.5752   68.9695   -3.5159 C.3     1  UNL1        0.1693
     43 H          21.2907   68.5501   -2.6552 H       1  UNL1        0.2105
@<TRIPOS>UNITY_ATOM_ATTR
2 1
charge -1
26 1
charge -1
@<TRIPOS>BOND
     1    25    28    1
     2    25    24    1
     3    25    26    1
     4    25    27    2
     5     1     4    1
     6     1    24    1
     7     1     2    1
     8     1     3    2
     9     6    11    1
    10     6    12    1
    11    29    36    1
    12    29    37    1
    13     7     9    1
    14     7    13    1
    15     8    10    1
    16     8    14    1
    17    28    37    1
    18     4     5    1
    19    30    33    1
    20    30    38    1
    21    31    34    1
    22    31    39    1
    23    32    35    1
    24    32    40    1
    25    41    42    1
    26    41    43    1
    27    15    19    2
    28    16    22    2
    29    17    12    1
    30    17    19   ar
    31    17    20   ar
    32    18    19   ar
    33    18    22   ar
    34    18    23    1
    35     9    10    1
    36     9    11    1
    37    10    12    1
    38    11     5    1
    39    33    34    1
    40    33    35    1
    41    34    36    1
    42    35    37    1
    43    36    42    1
    44    20    21   ar
    45    21    22   ar
@<TRIPOS>MOLECULE
*****
 43 45 0 0 0
SMALL
GASTEIGER

@<TRIPOS>ATOM
      1 P          20.0399   74.1329   -3.9171 P.3     1  UNL1        0.2189
      2 O          20.0597   75.7499   -3.8679 O.co2   1  UNL1       -0.4371
      3 O          18.7298   73.5273   -4.3272 O.2     1  UNL1       -0.5170
      4 O          20.5921   73.6932   -2.4612 O.3     1  UNL1       -0.3112
      5 C          21.9441   73.9694   -2.1392 C.3     1  UNL1        0.1811
      6 O          23.2566   72.5046   -0.7588 O.3     1  UNL1       -0.3308
      7 O          22.6915   70.3813   -2.7993 O.3     1  UNL1       -0.3794
      8 O          20.9232   69.7814   -0.8119 O.3     1  UNL1       -0.3779
      9 C          21.8482   71.4346   -2.3359 C.3     1  UNL1        0.1713
     10 C          21.3378   71.1258   -0.9439 C.3     1  UNL1        0.1895
     11 C          22.7196   72.6601   -2.0907 C.3     1  UNL1        0.1764
     12 C          22.5481   71.4514   -0.0852 C.3     1  UNL1        0.2383
     13 H          22.1572   69.5879   -2.9632 H       1  UNL1        0.2105
     14 H          20.1509   69.6241   -1.3772 H       1  UNL1        0.2106
     15 O          23.3165   70.1697    2.3116 O.2     1  UNL1       -0.2464
     16 O          21.0864   73.2655    4.8969 O.2     1  UNL1       -0.2670
     17 N          22.1827   71.9012    1.2284 N.ar    1  UNL1       -0.2551
     18 N          22.2056   71.7123    3.5970 N.ar    1  UNL1       -0.2743
     19 C          22.6196   71.1851    2.3671 C.ar    1  UNL1        0.3323
     20 C          21.3997   73.0407    1.3778 C.ar    1  UNL1        0.0869
     21 C          21.0124   73.5297    2.5576 C.ar    1  UNL1        0.0795
     22 C          21.4263   72.8408    3.7970 C.ar    1  UNL1        0.2626
     23 H          22.4978   71.2297    4.4042 H       1  UNL1        0.1734
     24 O          21.2781   73.7839   -4.8959 O.3     1  UNL1       -0.2703
     25 P          21.4565   73.9741   -6.4912 P.3     1  UNL1        0.2208
     26 O          22.8042   73.1400   -6.8159 O.co2   1  UNL1       -0.4371
     27 O          21.4913   75.4063   -6.9400 O.2     1  UNL1       -0.5170
     28 O          20.2679   73.0978   -7.1425 O.3     1  UNL1       -0.2858
     29 O          19.5934   70.9504   -6.4006 O.3     1  UNL1       -0.3258
     30 O          18.5642   70.6248  -10.3863 O.3     1  UNL1       -0.3794
     31 O          16.5010   70.8906   -8.4062 O.3     1  UNL1       -0.3794
     32 O          20.9875   72.0156   -9.6297 O.3     1  UNL1       -0.3775
     33 C          18.7416   71.2984   -9.1372 C.3     1  UNL1        0.1715
     34 C          17.8621   70.6097   -8.0918 C.3     1  UNL1        0.1694
     35 C          20.2133   71.2244   -8.7348 C.3     1  UNL1        0.1967
     36 C          18.1959   71.1008   -6.6767 C.3     1  UNL1        0.1761
     37 C          20.4288   71.6897   -7.2935 C.3     1  UNL1        0.2704
     38 H          17.6319   70.6686  -10.6478 H       1  UNL1        0.2105
     39 H          16.3033   70.5760   -9.3024 H       1  UNL1        0.2105
     40 H          20.8426   71.7110  -10.5386 H       1  UNL1        0.2106
     41 O          16.2680   71.0290   -5.2671 O.3     1  UNL1       -0.3794
     42 C          17.4425   70.3148   -5.6059 C.3     1  UNL1        0.1693
     43 H          15.7782   70.5403   -4.5867 H       1  UNL1        0.2105
@<TRIPOS>UNITY_ATOM_ATTR
2 1
charge -1
26 1
charge -1
@<TRIPOS>BOND
     1    25    28    1
     2    25    24    1
     3    25    26    1
     4    25    27    2
     5     1     4    1
     6     1    24    1
     7     1     2    1
     8     1     3    2
     9     6    11    1
    10     6    12    1
    11    29    36    1
    12    29    37    1
    13     7     9    1
    14     7    13    1
    15     8    10    1
    16     8    14    1
    17    28    37    1
    18     4     5    1
    19    30    33    1
    20    30    38    1
    21    31    34    1
    22    31    39    1
    23    32    35    1
    24    32    40    1
    25    41    42    1
    26    41    43    1
    27    15    19    2
    28    16    22    2
    29    17    12    1
    30    17    19   ar
    31    17    20   ar
    32    18    19   ar
    33    18    22   ar
    34    18    23    1
    35     9    10    1
    36     9    11    1
    37    10    12    1
    38    11     5    1
    39    33    34    1
    40    33    35    1
    41    34    36    1
    42    35    37    1
    43    36    42    1
    44    20    21   ar
    45    21    22   ar
@<TRIPOS>MOLECULE
*****
 43 45 0 0 0
SMALL
GASTEIGER

@<TRIPOS>ATOM
      1 P          19.3103   70.2973   -3.9880 P.3     1  UNL1        0.2189
      2 O          19.3065   68.8416   -3.2821 O.co2   1  UNL1       -0.4371
      3 O          18.3285   71.2796   -3.4202 O.2     1  UNL1       -0.5170
      4 O          19.1418   69.9659   -5.5627 O.3     1  UNL1       -0.3112
      5 C          19.4101   70.9922   -6.5022 C.3     1  UNL1        0.1811
      6 O          17.2416   70.8811   -7.5313 O.3     1  UNL1       -0.3308
      7 O          18.6873   71.0022  -10.1554 O.3     1  UNL1       -0.3794
      8 O          17.8075   73.5644   -9.8426 O.3     1  UNL1       -0.3779
      9 C          18.9966   71.6529   -8.9241 C.3     1  UNL1        0.1713
     10 C          18.0354   72.7971   -8.6781 C.3     1  UNL1        0.1895
     11 C          18.6510   70.6975   -7.7887 C.3     1  UNL1        0.1764
     12 C          16.7898   72.0664   -8.2064 C.3     1  UNL1        0.2383
     13 H          18.8999   71.5929  -10.8955 H       1  UNL1        0.2105
     14 H          18.6291   74.0095  -10.1026 H       1  UNL1        0.2106
     15 O          14.8902   74.0024   -8.9948 O.2     1  UNL1       -0.2464
     16 O          13.8426   75.0207   -4.6237 O.2     1  UNL1       -0.2670
     17 N          16.0060   72.8519   -7.2953 N.ar    1  UNL1       -0.2551
     18 N          14.3700   74.5077   -6.8177 N.ar    1  UNL1       -0.2743
     19 C          15.0805   73.7979   -7.7941 C.ar    1  UNL1        0.3323
     20 C          16.1589   72.6802   -5.9237 C.ar    1  UNL1        0.0869
     21 C          15.4746   73.3659   -5.0057 C.ar    1  UNL1        0.0795
     22 C          14.4874   74.3738   -5.4433 C.ar    1  UNL1        0.2626
     23 H          13.7198   75.1725   -7.1418 H       1  UNL1        0.1734
     24 O          20.8576   70.7516   -3.8760 O.3     1  UNL1       -0.2703
     25 P          21.8701   70.7694   -2.6160 P.3     1  UNL1        0.2208
     26 O          23.3243   70.9129   -3.3106 O.co2   1  UNL1       -0.4371
     27 O          21.7348   69.5868   -1.7011 O.2     1  UNL1       -0.5170
     28 O          21.6146   72.1965   -1.9068 O.3     1  UNL1       -0.2858
     29 O          21.1049   71.5559    0.3173 O.3     1  UNL1       -0.3258
     30 O          21.1388   75.6563    0.8031 O.3     1  UNL1       -0.3794
     31 O          23.2908   74.0839    1.8729 O.3     1  UNL1       -0.3794
     32 O          20.0355   74.4971   -1.6090 O.3     1  UNL1       -0.3775
     33 C          21.5615   74.4060    0.2523 C.3     1  UNL1        0.1715
     34 C          22.0699   73.5256    1.3956 C.3     1  UNL1        0.1694
     35 C          20.3774   73.7443   -0.4503 C.3     1  UNL1        0.1967
     36 C          22.2901   72.0810    0.9266 C.3     1  UNL1        0.1761
     37 C          20.6847   72.2950   -0.8312 C.3     1  UNL1        0.2704
     38 H          21.8862   76.0819    1.2502 H       1  UNL1        0.2105
     39 H          23.1381   74.9962    2.1654 H       1  UNL1        0.2105
     40 H          19.8430   75.4126   -1.3545 H       1  UNL1        0.2106
     41 O          23.1137   69.9268    1.5510 O.3     1  UNL1       -0.3794
     42 C          22.6456   71.1516    2.0850 C.3     1  UNL1        0.1693
     43 H          23.3441   69.3253    2.2769 H       1  UNL1        0.2105
@<TRIPOS>UNITY_ATOM_ATTR
2 1
charge -1
26 1
charge -1
@<TRIPOS>BOND
     1    25    28    1
     2    25    24    1
     3    25    26    1
     4    25    27    2
     5     1     4    1
     6     1    24    1
     7     1     2    1
     8     1     3    2
     9     6    11    1
    10     6    12    1
    11    29    36    1
    12    29    37    1
    13     7     9    1
    14     7    13    1
    15     8    10    1
    16     8    14    1
    17    28    37    1
    18     4     5    1
    19    30    33    1
    20    30    38    1
    21    31    34    1
    22    31    39    1
    23    32    35    1
    24    32    40    1
    25    41    42    1
    26    41    43    1
    27    15    19    2
    28    16    22    2
    29    17    12    1
    30    17    19   ar
    31    17    20   ar
    32    18    19   ar
    33    18    22   ar
    34    18    23    1
    35     9    10    1
    36     9    11    1
    37    10    12    1
    38    11     5    1
    39    33    34    1
    40    33    35    1
    41    34    36    1
    42    35    37    1
    43    36    42    1
    44    20    21   ar
    45    21    22   ar
