@<TRIPOS>MOLECULE
*****
 43 45 0 0 0
SMALL
GASTEIGER

@<TRIPOS>ATOM
      1 P          22.9546   71.6009   -2.8229 P.3     1  UNL1        0.2189
      2 O          23.0838   73.1919   -2.5570 O.co2   1  UNL1       -0.4371
      3 O          24.2163   70.9308   -3.2822 O.2     1  UNL1       -0.5170
      4 O          21.6885   71.4756   -3.8225 O.3     1  UNL1       -0.3112
      5 C          20.8318   70.3560   -3.6914 C.3     1  UNL1        0.1811
      6 O          18.9460   71.5193   -4.6233 O.3     1  UNL1       -0.3308
      7 O          17.3231   70.2513   -2.4438 O.3     1  UNL1       -0.3794
      8 O          16.7392   68.6937   -4.6046 O.3     1  UNL1       -0.3779
      9 C          18.4234   69.7157   -3.1793 C.3     1  UNL1        0.1713
     10 C          17.9882   69.3526   -4.5833 C.3     1  UNL1        0.1895
     11 C          19.4122   70.8451   -3.4344 C.3     1  UNL1        0.1764
     12 C          17.9442   70.7114   -5.2612 C.3     1  UNL1        0.2383
     13 H          16.6777   69.5481   -2.2688 H       1  UNL1        0.2105
     14 H          16.8197   67.8339   -4.1614 H       1  UNL1        0.2106
     15 O          16.0178   70.1801   -7.2571 O.2     1  UNL1       -0.2464
     16 O          19.1628   70.4331  -10.6171 O.2     1  UNL1       -0.2670
     17 N          18.2322   70.6328   -6.6654 N.ar    1  UNL1       -0.2551
     18 N          17.5862   70.3056   -8.9286 N.ar    1  UNL1       -0.2743
     19 C          17.1921   70.3604   -7.5852 C.ar    1  UNL1        0.3323
     20 C          19.5315   70.8260   -7.1188 C.ar    1  UNL1        0.0869
     21 C          19.8918   70.7708   -8.4025 C.ar    1  UNL1        0.0795
     22 C          18.8654   70.4902   -9.4277 C.ar    1  UNL1        0.2626
     23 H          16.8798   70.1153   -9.5874 H       1  UNL1        0.1734
     24 O          22.3685   71.0454   -1.4226 O.3     1  UNL1       -0.2703
     25 P          21.4663   71.7641   -0.2899 P.3     1  UNL1        0.2208
     26 O          20.7195   70.5220    0.4313 O.co2   1  UNL1       -0.4371
     27 O          20.5395   72.8200   -0.8191 O.2     1  UNL1       -0.5170
     28 O          22.5275   72.2921    0.8045 O.3     1  UNL1       -0.2858
     29 O          24.2072   71.3615    2.1907 O.3     1  UNL1       -0.3226
     30 O          22.2688   73.9025    4.8088 O.3     1  UNL1       -0.3794
     31 O          20.7424   72.2588    2.9372 O.3     1  UNL1       -0.3775
     32 O          24.8562   74.6390    3.7071 O.3     1  UNL1       -0.3792
     33 C          22.7597   73.4631    3.5424 C.3     1  UNL1        0.1718
     34 C          22.1347   72.1125    3.1918 C.3     1  UNL1        0.1968
     35 C          24.2814   73.3351    3.6436 C.3     1  UNL1        0.1723
     36 C          22.8050   71.5028    1.9598 C.3     1  UNL1        0.2706
     37 C          24.8606   72.6050    2.4353 C.3     1  UNL1        0.1830
     38 H          21.3035   73.9909    4.7686 H       1  UNL1        0.2105
     39 H          20.3109   72.6454    3.7148 H       1  UNL1        0.2106
     40 H          24.4957   75.1144    4.4718 H       1  UNL1        0.2106
     41 O          26.4635   70.8942    2.3621 O.co2   1  UNL1       -0.5466
     42 O          27.1480   72.9286    3.1312 O.co2   1  UNL1       -0.5466
     43 C          26.2749   72.1964    2.6903 C.2     1  UNL1        0.0799
@<TRIPOS>UNITY_ATOM_ATTR
2 1
charge -1
26 1
charge -1
41 1
charge -1
@<TRIPOS>BOND
     1     1     4    1
     2     1    24    1
     3     1     2    1
     4     1     3    2
     5    25    28    1
     6    25    24    1
     7    25    26    1
     8    25    27    2
     9     6    11    1
    10     6    12    1
    11    29    36    1
    12    29    37    1
    13     7     9    1
    14     7    13    1
    15     8    10    1
    16     8    14    1
    17     4     5    1
    18    28    36    1
    19    30    33    1
    20    30    38    1
    21    31    34    1
    22    31    39    1
    23    32    35    1
    24    32    40    1
    25    41    43   ar
    26    15    19    2
    27    42    43   ar
    28    16    22    2
    29    17    12    1
    30    17    19   ar
    31    17    20   ar
    32    18    19   ar
    33    18    22   ar
    34    18    23    1
    35     9    10    1
    36     9    11    1
    37    10    12    1
    38    11     5    1
    39    33    34    1
    40    33    35    1
    41    34    36    1
    42    35    37    1
    43    37    43    1
    44    20    21   ar
    45    21    22   ar
@<TRIPOS>MOLECULE
*****
 43 45 0 0 0
SMALL
GASTEIGER

@<TRIPOS>ATOM
      1 P          22.5153   72.6711   -1.6186 P.3     1  UNL1        0.2189
      2 O          21.1825   73.1129   -0.8142 O.co2   1  UNL1       -0.4371
      3 O          23.4897   73.7801   -1.8879 O.2     1  UNL1       -0.5170
      4 O          21.9449   71.9046   -2.9243 O.3     1  UNL1       -0.3112
      5 C          21.4666   72.6797   -4.0083 C.3     1  UNL1        0.1811
      6 O          20.7830   70.6470   -5.0938 O.3     1  UNL1       -0.3308
      7 O          21.5335   71.9887   -7.6683 O.3     1  UNL1       -0.3794
      8 O          18.8187   72.2423   -7.6336 O.3     1  UNL1       -0.3779
      9 C          20.9449   72.5500   -6.4949 C.3     1  UNL1        0.1713
     10 C          19.4891   72.1464   -6.3944 C.3     1  UNL1        0.1895
     11 C          21.5529   71.8536   -5.2851 C.3     1  UNL1        0.1764
     12 C          19.5924   70.7155   -5.8946 C.3     1  UNL1        0.2383
     13 H          21.1606   72.4179   -8.4546 H       1  UNL1        0.2105
     14 H          18.7788   73.1722   -7.9085 H       1  UNL1        0.2106
     15 O          17.1381   69.7777   -6.9305 O.2     1  UNL1       -0.2464
     16 O          15.3408   69.2779   -2.7158 O.2     1  UNL1       -0.2670
     17 N          18.4663   70.3332   -5.0905 N.ar    1  UNL1       -0.2551
     18 N          16.2449   69.5306   -4.8304 N.ar    1  UNL1       -0.2743
     19 C          17.2794   69.8755   -5.7101 C.ar    1  UNL1        0.3323
     20 C          18.5445   70.4119   -3.7053 C.ar    1  UNL1        0.0869
     21 C          17.5500   70.0795   -2.8799 C.ar    1  UNL1        0.0795
     22 C          16.2752   69.5924   -3.4466 C.ar    1  UNL1        0.2626
     23 H          15.4079   69.2111   -5.2386 H       1  UNL1        0.1734
     24 O          23.1008   71.4648   -0.7160 O.3     1  UNL1       -0.2703
     25 P          22.7613   71.0105    0.7980 P.3     1  UNL1        0.2208
     26 O          24.0640   70.1508    1.2272 O.co2   1  UNL1       -0.4371
     27 O          21.4601   70.2758    0.9432 O.2     1  UNL1       -0.5170
     28 O          22.8646   72.3669    1.6652 O.3     1  UNL1       -0.2858
     29 O          24.0543   72.9481    3.6289 O.3     1  UNL1       -0.3226
     30 O          20.4977   74.9795    4.1685 O.3     1  UNL1       -0.3794
     31 O          20.5009   72.2504    3.1264 O.3     1  UNL1       -0.3775
     32 O          22.8951   76.4200    3.3760 O.3     1  UNL1       -0.3792
     33 C          21.5713   74.4075    3.4215 C.3     1  UNL1        0.1718
     34 C          21.6345   72.9030    3.6864 C.3     1  UNL1        0.1968
     35 C          22.8704   75.0816    3.8685 C.3     1  UNL1        0.1723
     36 C          22.9045   72.2953    3.0893 C.3     1  UNL1        0.2706
     37 C          24.0939   74.3426    3.3344 C.3     1  UNL1        0.1830
     38 H          19.6615   74.5664    3.9014 H       1  UNL1        0.2105
     39 H          19.6914   72.6313    3.5006 H       1  UNL1        0.2106
     40 H          22.1214   76.9013    3.7086 H       1  UNL1        0.2106
     41 O          26.4364   74.2777    3.4359 O.co2   1  UNL1       -0.5466
     42 O          25.3619   75.5379    5.0033 O.co2   1  UNL1       -0.5466
     43 C          25.3346   74.7976    4.0315 C.2     1  UNL1        0.0799
@<TRIPOS>UNITY_ATOM_ATTR
2 1
charge -1
26 1
charge -1
41 1
charge -1
@<TRIPOS>BOND
     1     1     4    1
     2     1    24    1
     3     1     2    1
     4     1     3    2
     5    25    28    1
     6    25    24    1
     7    25    26    1
     8    25    27    2
     9     6    11    1
    10     6    12    1
    11    29    36    1
    12    29    37    1
    13     7     9    1
    14     7    13    1
    15     8    10    1
    16     8    14    1
    17     4     5    1
    18    28    36    1
    19    30    33    1
    20    30    38    1
    21    31    34    1
    22    31    39    1
    23    32    35    1
    24    32    40    1
    25    41    43   ar
    26    15    19    2
    27    42    43   ar
    28    16    22    2
    29    17    12    1
    30    17    19   ar
    31    17    20   ar
    32    18    19   ar
    33    18    22   ar
    34    18    23    1
    35     9    10    1
    36     9    11    1
    37    10    12    1
    38    11     5    1
    39    33    34    1
    40    33    35    1
    41    34    36    1
    42    35    37    1
    43    37    43    1
    44    20    21   ar
    45    21    22   ar
@<TRIPOS>MOLECULE
*****
 43 45 0 0 0
SMALL
GASTEIGER

@<TRIPOS>ATOM
      1 P          23.4475   73.6392   -4.1494 P.3     1  UNL1        0.2189
      2 O          22.7862   75.1144   -4.2225 O.co2   1  UNL1       -0.4371
      3 O          24.9428   73.6207   -4.0244 O.2     1  UNL1       -0.5170
      4 O          22.8411   72.8771   -5.4414 O.3     1  UNL1       -0.3112
      5 C          21.6233   72.1691   -5.2989 C.3     1  UNL1        0.1811
      6 O          20.4765   70.3197   -6.3199 O.3     1  UNL1       -0.3308
      7 O          20.7006   71.8425   -8.8933 O.3     1  UNL1       -0.3794
      8 O          18.1236   72.3205   -8.1406 O.3     1  UNL1       -0.3779
      9 C          20.4870   72.3321   -7.5693 C.3     1  UNL1        0.1713
     10 C          19.0678   72.0453   -7.1270 C.3     1  UNL1        0.1895
     11 C          21.2993   71.4698   -6.6128 C.3     1  UNL1        0.1764
     12 C          19.1383   70.5682   -6.7790 C.3     1  UNL1        0.2383
     13 H          20.1916   72.3779   -9.5225 H       1  UNL1        0.2105
     14 H          18.1164   73.2732   -8.3257 H       1  UNL1        0.2106
     15 O          16.4363   69.8761   -7.2224 O.2     1  UNL1       -0.2464
     16 O          15.6841   69.1906   -2.7270 O.2     1  UNL1       -0.2670
     17 N          18.2140   70.2046   -5.7425 N.ar    1  UNL1       -0.2551
     18 N          16.0640   69.5363   -4.9829 N.ar    1  UNL1       -0.2743
     19 C          16.8782   69.8744   -6.0719 C.ar    1  UNL1        0.3323
     20 C          18.6334   70.1761   -4.4180 C.ar    1  UNL1        0.0869
     21 C          17.8457   69.8517   -3.3908 C.ar    1  UNL1        0.0795
     22 C          16.4353   69.4944   -3.6488 C.ar    1  UNL1        0.2626
     23 H          15.1291   69.3046   -5.1872 H       1  UNL1        0.1734
     24 O          22.6603   72.9492   -2.9178 O.3     1  UNL1       -0.2703
     25 P          22.8693   71.5198   -2.1920 P.3     1  UNL1        0.2208
     26 O          24.2297   70.9581   -2.8659 O.co2   1  UNL1       -0.4371
     27 O          21.6938   70.5930   -2.3071 O.2     1  UNL1       -0.5170
     28 O          23.2866   71.8869   -0.6775 O.3     1  UNL1       -0.2858
     29 O          24.6402   70.9772    1.0398 O.3     1  UNL1       -0.3226
     30 O          21.1997   71.9522    3.1087 O.3     1  UNL1       -0.3794
     31 O          21.0389   70.7150    0.4671 O.3     1  UNL1       -0.3775
     32 O          23.5731   73.6120    3.3595 O.3     1  UNL1       -0.3792
     33 C          22.1949   72.0932    2.0950 C.3     1  UNL1        0.1718
     34 C          22.2316   70.8300    1.2345 C.3     1  UNL1        0.1968
     35 C          23.5446   72.3073    2.7839 C.3     1  UNL1        0.1723
     36 C          23.4329   70.8473    0.2882 C.3     1  UNL1        0.2706
     37 C          24.7003   72.1851    1.7950 C.3     1  UNL1        0.1830
     38 H          20.3332   71.8150    2.6945 H       1  UNL1        0.2105
     39 H          20.2725   70.7037    1.0612 H       1  UNL1        0.2106
     40 H          22.8423   73.7030    3.9908 H       1  UNL1        0.2106
     41 O          26.5767   70.8611    2.2722 O.co2   1  UNL1       -0.5466
     42 O          26.4951   72.9313    3.2245 O.co2   1  UNL1       -0.5466
     43 C          26.0041   72.0662    2.5150 C.2     1  UNL1        0.0799
@<TRIPOS>UNITY_ATOM_ATTR
2 1
charge -1
26 1
charge -1
41 1
charge -1
@<TRIPOS>BOND
     1     1     4    1
     2     1    24    1
     3     1     2    1
     4     1     3    2
     5    25    28    1
     6    25    24    1
     7    25    26    1
     8    25    27    2
     9     6    11    1
    10     6    12    1
    11    29    36    1
    12    29    37    1
    13     7     9    1
    14     7    13    1
    15     8    10    1
    16     8    14    1
    17     4     5    1
    18    28    36    1
    19    30    33    1
    20    30    38    1
    21    31    34    1
    22    31    39    1
    23    32    35    1
    24    32    40    1
    25    41    43   ar
    26    15    19    2
    27    42    43   ar
    28    16    22    2
    29    17    12    1
    30    17    19   ar
    31    17    20   ar
    32    18    19   ar
    33    18    22   ar
    34    18    23    1
    35     9    10    1
    36     9    11    1
    37    10    12    1
    38    11     5    1
    39    33    34    1
    40    33    35    1
    41    34    36    1
    42    35    37    1
    43    37    43    1
    44    20    21   ar
    45    21    22   ar
@<TRIPOS>MOLECULE
*****
 43 45 0 0 0
SMALL
GASTEIGER

@<TRIPOS>ATOM
      1 P          20.4302   72.2000   -1.7003 P.3     1  UNL1        0.2189
      2 O          19.1182   72.6001   -0.8415 O.co2   1  UNL1       -0.4371
      3 O          20.7834   73.1572   -2.8006 O.2     1  UNL1       -0.5170
      4 O          20.1434   70.6755   -2.1603 O.3     1  UNL1       -0.3112
      5 C          19.6251   70.4470   -3.4579 C.3     1  UNL1        0.1811
      6 O          17.9267   71.5625   -4.7418 O.3     1  UNL1       -0.3308
      7 O          15.9419   70.1898   -2.9620 O.3     1  UNL1       -0.3794
      8 O          15.8763   68.6604   -5.2187 O.3     1  UNL1       -0.3779
      9 C          17.1901   69.7101   -3.4625 C.3     1  UNL1        0.1713
     10 C          17.0673   69.3627   -4.9310 C.3     1  UNL1        0.1895
     11 C          18.1649   70.8793   -3.4921 C.3     1  UNL1        0.1764
     12 C          17.1099   70.7337   -5.5840 C.3     1  UNL1        0.2383
     13 H          15.3026   69.4603   -2.9339 H       1  UNL1        0.2105
     14 H          15.8978   67.7945   -4.7808 H       1  UNL1        0.2106
     15 O          15.6362   70.3011   -7.9542 O.2     1  UNL1       -0.2464
     16 O          19.4140   70.6109  -10.5764 O.2     1  UNL1       -0.2670
     17 N          17.6832   70.6964   -6.8996 N.ar    1  UNL1       -0.2551
     18 N          17.5193   70.4548   -9.2578 N.ar    1  UNL1       -0.2743
     19 C          16.8547   70.4721   -8.0245 C.ar    1  UNL1        0.3323
     20 C          19.0502   70.8823   -7.0661 C.ar    1  UNL1        0.0869
     21 C          19.6693   70.8633   -8.2481 C.ar    1  UNL1        0.0795
     22 C          18.8761   70.6340   -9.4735 C.ar    1  UNL1        0.2626
     23 H          16.9637   70.2983  -10.0554 H       1  UNL1        0.1734
     24 O          21.5685   72.0290   -0.5654 O.3     1  UNL1       -0.2703
     25 P          21.4502   71.7832    1.0281 P.3     1  UNL1        0.2208
     26 O          21.4642   70.1696    1.1555 O.co2   1  UNL1       -0.4371
     27 O          20.2626   72.4437    1.6665 O.2     1  UNL1       -0.5170
     28 O          22.8756   72.2509    1.6213 O.3     1  UNL1       -0.2858
     29 O          24.5185   73.6961    0.7150 O.3     1  UNL1       -0.3226
     30 O          26.8386   70.9936    2.8084 O.3     1  UNL1       -0.3794
     31 O          24.5627   70.0758    1.2233 O.3     1  UNL1       -0.3775
     32 O          26.3816   73.6588    3.8757 O.3     1  UNL1       -0.3792
     33 C          25.6790   71.7815    2.5387 C.3     1  UNL1        0.1718
     34 C          25.1009   71.3922    1.1780 C.3     1  UNL1        0.1968
     35 C          26.0972   73.2536    2.5380 C.3     1  UNL1        0.1723
     36 C          24.0008   72.3656    0.7522 C.3     1  UNL1        0.2706
     37 C          24.9915   74.1465    1.9824 C.3     1  UNL1        0.1830
     38 H          26.5971   70.0540    2.8138 H       1  UNL1        0.2105
     39 H          25.2553   69.4529    1.4930 H       1  UNL1        0.2106
     40 H          27.0837   73.0981    4.2410 H       1  UNL1        0.2106
     41 O          25.6863   76.2241    2.8205 O.co2   1  UNL1       -0.5466
     42 O          25.7603   75.9371    0.5597 O.co2   1  UNL1       -0.5466
     43 C          25.5151   75.5126    1.6789 C.2     1  UNL1        0.0799
@<TRIPOS>UNITY_ATOM_ATTR
2 1
charge -1
26 1
charge -1
41 1
charge -1
@<TRIPOS>BOND
     1     1     4    1
     2     1    24    1
     3     1     2    1
     4     1     3    2
     5    25    28    1
     6    25    24    1
     7    25    26    1
     8    25    27    2
     9     6    11    1
    10     6    12    1
    11    29    36    1
    12    29    37    1
    13     7     9    1
    14     7    13    1
    15     8    10    1
    16     8    14    1
    17     4     5    1
    18    28    36    1
    19    30    33    1
    20    30    38    1
    21    31    34    1
    22    31    39    1
    23    32    35    1
    24    32    40    1
    25    41    43   ar
    26    15    19    2
    27    42    43   ar
    28    16    22    2
    29    17    12    1
    30    17    19   ar
    31    17    20   ar
    32    18    19   ar
    33    18    22   ar
    34    18    23    1
    35     9    10    1
    36     9    11    1
    37    10    12    1
    38    11     5    1
    39    33    34    1
    40    33    35    1
    41    34    36    1
    42    35    37    1
    43    37    43    1
    44    20    21   ar
    45    21    22   ar
@<TRIPOS>MOLECULE
*****
 43 45 0 0 0
SMALL
GASTEIGER

@<TRIPOS>ATOM
      1 P          21.5038   72.6174   -4.7245 P.3     1  UNL1        0.2189
      2 O          21.3562   74.2246   -4.6062 O.co2   1  UNL1       -0.4371
      3 O          22.4353   72.1443   -5.8016 O.2     1  UNL1       -0.5170
      4 O          19.9768   72.0942   -4.8365 O.3     1  UNL1       -0.3112
      5 C          19.4365   71.3498   -3.7601 C.3     1  UNL1        0.1811
      6 O          17.5607   71.7442   -5.2104 O.3     1  UNL1       -0.3308
      7 O          15.9398   70.1783   -3.2326 O.3     1  UNL1       -0.3794
      8 O          16.3907   68.3552   -5.2098 O.3     1  UNL1       -0.3779
      9 C          17.2924   69.9852   -3.6469 C.3     1  UNL1        0.1713
     10 C          17.3344   69.3920   -5.0393 C.3     1  UNL1        0.1895
     11 C          17.9170   71.3564   -3.8658 C.3     1  UNL1        0.1764
     12 C          17.0362   70.6027   -5.9070 C.3     1  UNL1        0.2383
     13 H          15.5197   69.3158   -3.0865 H       1  UNL1        0.2105
     14 H          16.6244   67.6077   -4.6365 H       1  UNL1        0.2106
     15 O          15.6430   70.7461   -8.3596 O.2     1  UNL1       -0.2464
     16 O          19.5228   70.2651  -10.8010 O.2     1  UNL1       -0.2670
     17 N          17.6575   70.5178   -7.1984 N.ar    1  UNL1       -0.2551
     18 N          17.5766   70.5054   -9.5732 N.ar    1  UNL1       -0.2743
     19 C          16.8669   70.6009   -8.3689 C.ar    1  UNL1        0.3323
     20 C          19.0341   70.3558   -7.2965 C.ar    1  UNL1        0.0869
     21 C          19.6964   70.2664   -8.4515 C.ar    1  UNL1        0.0795
     22 C          18.9446   70.3432   -9.7212 C.ar    1  UNL1        0.2626
     23 H          17.0473   70.5585  -10.4017 H       1  UNL1        0.1734
     24 O          21.9286   72.1808   -3.2272 O.3     1  UNL1       -0.2703
     25 P          23.3823   72.0492   -2.5322 P.3     1  UNL1        0.2208
     26 O          24.1017   73.4489   -2.9115 O.co2   1  UNL1       -0.4371
     27 O          24.1524   70.8273   -2.9417 O.2     1  UNL1       -0.5170
     28 O          23.0905   72.1574   -0.9493 O.3     1  UNL1       -0.2858
     29 O          24.3312   70.9470    0.6646 O.3     1  UNL1       -0.3226
     30 O          20.8604   71.7981    2.7376 O.3     1  UNL1       -0.3794
     31 O          20.7471   70.9540   -0.0569 O.3     1  UNL1       -0.3775
     32 O          23.2966   73.2816    3.2992 O.3     1  UNL1       -0.3792
     33 C          21.9005   72.0286    1.7873 C.3     1  UNL1        0.1718
     34 C          21.9125   70.8985    0.7576 C.3     1  UNL1        0.1968
     35 C          23.2303   72.0739    2.5433 C.3     1  UNL1        0.1723
     36 C          23.1499   70.9864   -0.1369 C.3     1  UNL1        0.2706
     37 C          24.4174   72.0322    1.5854 C.3     1  UNL1        0.1830
     38 H          20.0055   71.7654    2.2800 H       1  UNL1        0.2105
     39 H          19.9581   70.8990    0.5042 H       1  UNL1        0.2106
     40 H          22.5464   73.3206    3.9128 H       1  UNL1        0.2106
     41 O          26.1226   72.8548    2.9700 O.co2   1  UNL1       -0.5466
     42 O          26.2533   70.6650    2.3480 O.co2   1  UNL1       -0.5466
     43 C          25.6847   71.7462    2.3233 C.2     1  UNL1        0.0799
@<TRIPOS>UNITY_ATOM_ATTR
2 1
charge -1
26 1
charge -1
41 1
charge -1
@<TRIPOS>BOND
     1     1     4    1
     2     1    24    1
     3     1     2    1
     4     1     3    2
     5    25    28    1
     6    25    24    1
     7    25    26    1
     8    25    27    2
     9     6    11    1
    10     6    12    1
    11    29    36    1
    12    29    37    1
    13     7     9    1
    14     7    13    1
    15     8    10    1
    16     8    14    1
    17     4     5    1
    18    28    36    1
    19    30    33    1
    20    30    38    1
    21    31    34    1
    22    31    39    1
    23    32    35    1
    24    32    40    1
    25    41    43   ar
    26    15    19    2
    27    42    43   ar
    28    16    22    2
    29    17    12    1
    30    17    19   ar
    31    17    20   ar
    32    18    19   ar
    33    18    22   ar
    34    18    23    1
    35     9    10    1
    36     9    11    1
    37    10    12    1
    38    11     5    1
    39    33    34    1
    40    33    35    1
    41    34    36    1
    42    35    37    1
    43    37    43    1
    44    20    21   ar
    45    21    22   ar
@<TRIPOS>MOLECULE
*****
 43 45 0 0 0
SMALL
GASTEIGER

@<TRIPOS>ATOM
      1 P          23.1110   71.6996   -2.4075 P.3     1  UNL1        0.2189
      2 O          23.4446   73.2297   -1.9997 O.co2   1  UNL1       -0.4371
      3 O          24.1916   70.9993   -3.1781 O.2     1  UNL1       -0.5170
      4 O          21.6740   71.7984   -3.1444 O.3     1  UNL1       -0.3112
      5 C          21.5394   72.6733   -4.2494 C.3     1  UNL1        0.1811
      6 O          20.8276   70.6570   -5.3474 O.3     1  UNL1       -0.3308
      7 O          21.5519   72.0218   -7.9173 O.3     1  UNL1       -0.3794
      8 O          18.8395   72.2926   -7.8426 O.3     1  UNL1       -0.3779
      9 C          20.9830   72.5741   -6.7299 C.3     1  UNL1        0.1713
     10 C          19.5261   72.1788   -6.6137 C.3     1  UNL1        0.1895
     11 C          21.6029   71.8606   -5.5362 C.3     1  UNL1        0.1764
     12 C          19.6267   70.7419   -6.1309 C.3     1  UNL1        0.2383
     13 H          21.1711   72.4620   -8.6937 H       1  UNL1        0.2105
     14 H          18.8020   73.2257   -8.1068 H       1  UNL1        0.2106
     15 O          17.1604   69.8090   -7.1426 O.2     1  UNL1       -0.2464
     16 O          15.4090   69.2985   -2.9099 O.2     1  UNL1       -0.2670
     17 N          18.5091   70.3583   -5.3157 N.ar    1  UNL1       -0.2551
     18 N          16.2901   69.5566   -5.0336 N.ar    1  UNL1       -0.2743
     19 C          17.3152   69.9032   -5.9236 C.ar    1  UNL1        0.3323
     20 C          18.6025   70.4329   -3.9312 C.ar    1  UNL1        0.0869
     21 C          17.6169   70.0989   -3.0959 C.ar    1  UNL1        0.0795
     22 C          16.3357   69.6145   -3.6500 C.ar    1  UNL1        0.2626
     23 H          15.4484   69.2388   -5.4334 H       1  UNL1        0.1734
     24 O          22.7457   71.0172   -0.9885 O.3     1  UNL1       -0.2703
     25 P          21.3970   71.0750   -0.0989 P.3     1  UNL1        0.2208
     26 O          21.7602   70.1565    1.1836 O.co2   1  UNL1       -0.4371
     27 O          20.1572   70.6512   -0.8319 O.2     1  UNL1       -0.5170
     28 O          21.3517   72.5807    0.4784 O.3     1  UNL1       -0.2858
     29 O          23.0586   74.0445    1.2219 O.3     1  UNL1       -0.3226
     30 O          19.9623   74.9915    3.7879 O.3     1  UNL1       -0.3794
     31 O          20.5216   72.2063    3.1065 O.3     1  UNL1       -0.3775
     32 O          20.6373   76.7760    1.5945 O.3     1  UNL1       -0.3792
     33 C          20.5535   74.5696    2.5589 C.3     1  UNL1        0.1718
     34 C          21.3747   73.3017    2.7947 C.3     1  UNL1        0.1968
     35 C          21.4531   75.7001    2.0543 C.3     1  UNL1        0.1723
     36 C          22.2054   72.9503    1.5598 C.3     1  UNL1        0.2706
     37 C          22.3405   75.2345    0.9035 C.3     1  UNL1        0.1830
     38 H          19.3860   74.2888    4.1277 H       1  UNL1        0.2105
     39 H          19.9913   72.4226    3.8890 H       1  UNL1        0.2106
     40 H          20.0674   77.0816    2.3175 H       1  UNL1        0.2106
     41 O          24.1963   76.3965    1.7446 O.co2   1  UNL1       -0.5466
     42 O          23.6123   76.7983   -0.4225 O.co2   1  UNL1       -0.5466
     43 C          23.4294   76.2230    0.6398 C.2     1  UNL1        0.0799
@<TRIPOS>UNITY_ATOM_ATTR
2 1
charge -1
26 1
charge -1
41 1
charge -1
@<TRIPOS>BOND
     1     1     4    1
     2     1    24    1
     3     1     2    1
     4     1     3    2
     5    25    28    1
     6    25    24    1
     7    25    26    1
     8    25    27    2
     9     6    11    1
    10     6    12    1
    11    29    36    1
    12    29    37    1
    13     7     9    1
    14     7    13    1
    15     8    10    1
    16     8    14    1
    17     4     5    1
    18    28    36    1
    19    30    33    1
    20    30    38    1
    21    31    34    1
    22    31    39    1
    23    32    35    1
    24    32    40    1
    25    41    43   ar
    26    15    19    2
    27    42    43   ar
    28    16    22    2
    29    17    12    1
    30    17    19   ar
    31    17    20   ar
    32    18    19   ar
    33    18    22   ar
    34    18    23    1
    35     9    10    1
    36     9    11    1
    37    10    12    1
    38    11     5    1
    39    33    34    1
    40    33    35    1
    41    34    36    1
    42    35    37    1
    43    37    43    1
    44    20    21   ar
    45    21    22   ar
@<TRIPOS>MOLECULE
*****
 43 45 0 0 0
SMALL
GASTEIGER

@<TRIPOS>ATOM
      1 P          22.6760   71.2128   -3.0486 P.3     1  UNL1        0.2189
      2 O          24.2523   70.8674   -2.9269 O.co2   1  UNL1       -0.4371
      3 O          21.7801   70.0247   -3.2424 O.2     1  UNL1       -0.5170
      4 O          22.6132   72.3371   -4.2105 O.3     1  UNL1       -0.3112
      5 C          21.3594   72.6333   -4.7976 C.3     1  UNL1        0.1811
      6 O          20.4818   70.6566   -5.8464 O.3     1  UNL1       -0.3308
      7 O          20.8362   72.1049   -8.4480 O.3     1  UNL1       -0.3794
      8 O          18.1652   72.3794   -7.9723 O.3     1  UNL1       -0.3779
      9 C          20.4492   72.6185   -7.1732 C.3     1  UNL1        0.1713
     10 C          19.0216   72.2229   -6.8603 C.3     1  UNL1        0.1895
     11 C          21.2301   71.8640   -6.1060 C.3     1  UNL1        0.1764
     12 C          19.1808   70.7704   -6.4445 C.3     1  UNL1        0.2383
     13 H          20.3502   72.5718   -9.1462 H       1  UNL1        0.2105
     14 H          18.0965   73.3209   -8.1976 H       1  UNL1        0.2106
     15 O          16.6370   69.7477   -7.1225 O.2     1  UNL1       -0.2464
     16 O          15.4609   69.2363   -2.6954 O.2     1  UNL1       -0.2670
     17 N          18.1903   70.3623   -5.4890 N.ar    1  UNL1       -0.2551
     18 N          16.0533   69.4949   -4.9169 N.ar    1  UNL1       -0.2743
     19 C          16.9438   69.8622   -5.9343 C.ar    1  UNL1        0.3323
     20 C          18.4580   70.4574   -4.1288 C.ar    1  UNL1        0.0869
     21 C          17.5992   70.1033   -3.1707 C.ar    1  UNL1        0.0795
     22 C          16.2740   69.5718   -3.5512 C.ar    1  UNL1        0.2626
     23 H          15.1781   69.1458   -5.2024 H       1  UNL1        0.1734
     24 O          22.3859   72.0627   -1.7045 O.3     1  UNL1       -0.2703
     25 P          21.1379   72.0310   -0.6773 P.3     1  UNL1        0.2208
     26 O          21.2576   70.5680    0.0051 O.co2   1  UNL1       -0.4371
     27 O          19.8078   72.3087   -1.3156 O.2     1  UNL1       -0.5170
     28 O          21.5463   73.0616    0.4947 O.3     1  UNL1       -0.2858
     29 O          21.4840   72.9413    2.8592 O.3     1  UNL1       -0.3226
     30 O          20.4119   76.8745    2.1889 O.3     1  UNL1       -0.3794
     31 O          19.3273   74.7384    0.5170 O.3     1  UNL1       -0.3775
     32 O          23.0865   76.2309    3.1290 O.3     1  UNL1       -0.3792
     33 C          21.0848   75.6438    1.9233 C.3     1  UNL1        0.1718
     34 C          20.0559   74.5311    1.7216 C.3     1  UNL1        0.1968
     35 C          21.9827   75.3275    3.1215 C.3     1  UNL1        0.1723
     36 C          20.7348   73.1620    1.6636 C.3     1  UNL1        0.2706
     37 C          22.5205   73.9010    3.0535 C.3     1  UNL1        0.1830
     38 H          19.8352   77.0959    1.4409 H       1  UNL1        0.2105
     39 H          18.8941   75.6055    0.5468 H       1  UNL1        0.2106
     40 H          22.7579   77.1425    3.1718 H       1  UNL1        0.2106
     41 O          22.6281   72.2900    4.7548 O.co2   1  UNL1       -0.5466
     42 O          23.9245   74.1497    4.9999 O.co2   1  UNL1       -0.5466
     43 C          23.1128   73.4945    4.3635 C.2     1  UNL1        0.0799
@<TRIPOS>UNITY_ATOM_ATTR
2 1
charge -1
26 1
charge -1
41 1
charge -1
@<TRIPOS>BOND
     1     1     4    1
     2     1    24    1
     3     1     2    1
     4     1     3    2
     5    25    28    1
     6    25    24    1
     7    25    26    1
     8    25    27    2
     9     6    11    1
    10     6    12    1
    11    29    36    1
    12    29    37    1
    13     7     9    1
    14     7    13    1
    15     8    10    1
    16     8    14    1
    17     4     5    1
    18    28    36    1
    19    30    33    1
    20    30    38    1
    21    31    34    1
    22    31    39    1
    23    32    35    1
    24    32    40    1
    25    41    43   ar
    26    15    19    2
    27    42    43   ar
    28    16    22    2
    29    17    12    1
    30    17    19   ar
    31    17    20   ar
    32    18    19   ar
    33    18    22   ar
    34    18    23    1
    35     9    10    1
    36     9    11    1
    37    10    12    1
    38    11     5    1
    39    33    34    1
    40    33    35    1
    41    34    36    1
    42    35    37    1
    43    37    43    1
    44    20    21   ar
    45    21    22   ar
@<TRIPOS>MOLECULE
*****
 43 45 0 0 0
SMALL
GASTEIGER

@<TRIPOS>ATOM
      1 P          20.4174   72.1158   -2.2408 P.3     1  UNL1        0.2189
      2 O          19.4316   72.7151   -1.1060 O.co2   1  UNL1       -0.4371
      3 O          20.4429   72.8856   -3.5287 O.2     1  UNL1       -0.5170
      4 O          19.9759   70.5637   -2.3587 O.3     1  UNL1       -0.3112
      5 C          19.4092   70.1124   -3.5752 C.3     1  UNL1        0.1811
      6 O          17.7581   71.2910   -4.8646 O.3     1  UNL1       -0.3308
      7 O          15.7108   69.8557   -3.2093 O.3     1  UNL1       -0.3794
      8 O          15.7115   68.4234   -5.5298 O.3     1  UNL1       -0.3779
      9 C          16.9724   69.3904   -3.6893 C.3     1  UNL1        0.1713
     10 C          16.8957   69.1061   -5.1744 C.3     1  UNL1        0.1895
     11 C          17.9527   70.5542   -3.6379 C.3     1  UNL1        0.1764
     12 C          16.9654   70.5032   -5.7670 C.3     1  UNL1        0.2383
     13 H          15.0677   69.1293   -3.2327 H       1  UNL1        0.2105
     14 H          15.7150   67.5397   -5.1286 H       1  UNL1        0.2106
     15 O          15.5434   70.5686   -8.2063 O.2     1  UNL1       -0.2464
     16 O          19.4305   70.5584  -10.6831 O.2     1  UNL1       -0.2670
     17 N          17.5808   70.5183   -7.0639 N.ar    1  UNL1       -0.2551
     18 N          17.4807   70.5624   -9.4376 N.ar    1  UNL1       -0.2743
     19 C          16.7756   70.5511   -8.2269 C.ar    1  UNL1        0.3323
     20 C          18.9659   70.5024   -7.1746 C.ar    1  UNL1        0.0869
     21 C          19.6237   70.5136   -8.3356 C.ar    1  UNL1        0.0795
     22 C          18.8568   70.5468   -9.5982 C.ar    1  UNL1        0.2626
     23 H          16.9416   70.5831  -10.2611 H       1  UNL1        0.1734
     24 O          21.8402   72.0319   -1.4782 O.3     1  UNL1       -0.2703
     25 P          22.2231   71.4958   -0.0019 P.3     1  UNL1        0.2208
     26 O          23.7910   71.1179   -0.1408 O.co2   1  UNL1       -0.4371
     27 O          21.3572   70.3718    0.4889 O.2     1  UNL1       -0.5170
     28 O          22.2027   72.8126    0.9298 O.3     1  UNL1       -0.2858
     29 O          23.4818   74.5936    1.8248 O.3     1  UNL1       -0.3226
     30 O          22.3922   72.5416    5.2409 O.3     1  UNL1       -0.3794
     31 O          23.2444   71.0928    2.8516 O.3     1  UNL1       -0.3775
     32 O          21.0681   75.0363    4.5525 O.3     1  UNL1       -0.3792
     33 C          22.2363   73.0299    3.9086 C.3     1  UNL1        0.1718
     34 C          23.3711   72.4984    3.0327 C.3     1  UNL1        0.1968
     35 C          22.2736   74.5590    3.9580 C.3     1  UNL1        0.1723
     36 C          23.3700   73.1791    1.6632 C.3     1  UNL1        0.2706
     37 C          22.3989   75.1587    2.5604 C.3     1  UNL1        0.1830
     38 H          22.3717   71.5716    5.2345 H       1  UNL1        0.2105
     39 H          23.2441   70.6545    3.7166 H       1  UNL1        0.2106
     40 H          20.9762   74.6619    5.4426 H       1  UNL1        0.2106
     41 O          23.1459   76.9391    3.8922 O.co2   1  UNL1       -0.5466
     42 O          22.7254   77.3876    1.6965 O.co2   1  UNL1       -0.5466
     43 C          22.7627   76.6059    2.6348 C.2     1  UNL1        0.0799
@<TRIPOS>UNITY_ATOM_ATTR
2 1
charge -1
26 1
charge -1
41 1
charge -1
@<TRIPOS>BOND
     1     1     4    1
     2     1    24    1
     3     1     2    1
     4     1     3    2
     5    25    28    1
     6    25    24    1
     7    25    26    1
     8    25    27    2
     9     6    11    1
    10     6    12    1
    11    29    36    1
    12    29    37    1
    13     7     9    1
    14     7    13    1
    15     8    10    1
    16     8    14    1
    17     4     5    1
    18    28    36    1
    19    30    33    1
    20    30    38    1
    21    31    34    1
    22    31    39    1
    23    32    35    1
    24    32    40    1
    25    41    43   ar
    26    15    19    2
    27    42    43   ar
    28    16    22    2
    29    17    12    1
    30    17    19   ar
    31    17    20   ar
    32    18    19   ar
    33    18    22   ar
    34    18    23    1
    35     9    10    1
    36     9    11    1
    37    10    12    1
    38    11     5    1
    39    33    34    1
    40    33    35    1
    41    34    36    1
    42    35    37    1
    43    37    43    1
    44    20    21   ar
    45    21    22   ar
@<TRIPOS>MOLECULE
*****
 43 45 0 0 0
SMALL
GASTEIGER

@<TRIPOS>ATOM
      1 P          21.1815   71.7093   -1.6472 P.3     1  UNL1        0.2189
      2 O          20.0096   71.6688   -0.5319 O.co2   1  UNL1       -0.4371
      3 O          21.2778   72.9929   -2.4186 O.2     1  UNL1       -0.5170
      4 O          20.9249   70.3772   -2.5290 O.3     1  UNL1       -0.3112
      5 C          20.3731   70.5202   -3.8250 C.3     1  UNL1        0.1811
      6 O          18.5681   71.6362   -4.9538 O.3     1  UNL1       -0.3308
      7 O          16.7789   70.4747   -2.8464 O.3     1  UNL1       -0.3794
      8 O          16.3570   68.8139   -4.9677 O.3     1  UNL1       -0.3779
      9 C          17.9305   69.9045   -3.4687 C.3     1  UNL1        0.1713
     10 C          17.6029   69.4736   -4.8826 C.3     1  UNL1        0.1895
     11 C          18.9397   71.0206   -3.7015 C.3     1  UNL1        0.1764
     12 C          17.6154   70.7980   -5.6269 C.3     1  UNL1        0.2383
     13 H          16.1197   69.7805   -2.6876 H       1  UNL1        0.2105
     14 H          16.4004   67.9767   -4.4787 H       1  UNL1        0.2106
     15 O          15.8344   70.2436   -7.7476 O.2     1  UNL1       -0.2464
     16 O          19.2401   70.2572  -10.8533 O.2     1  UNL1       -0.2670
     17 N          18.0098   70.6516   -6.9994 N.ar    1  UNL1       -0.2551
     18 N          17.5325   70.2499   -9.2922 N.ar    1  UNL1       -0.2743
     19 C          17.0363   70.3733   -7.9878 C.ar    1  UNL1        0.3323
     20 C          19.3465   70.7850   -7.3549 C.ar    1  UNL1        0.0869
     21 C          19.8043   70.6648   -8.6026 C.ar    1  UNL1        0.0795
     22 C          18.8525   70.3735   -9.6946 C.ar    1  UNL1        0.2626
     23 H          16.8738   70.0542   -9.9973 H       1  UNL1        0.1734
     24 O          22.5042   71.3335   -0.7976 O.3     1  UNL1       -0.2703
     25 P          22.7185   71.1096    0.7891 P.3     1  UNL1        0.2208
     26 O          24.2274   70.5305    0.8805 O.co2   1  UNL1       -0.4371
     27 O          21.6810   70.2365    1.4335 O.2     1  UNL1       -0.5170
     28 O          22.8158   72.5983    1.4030 O.3     1  UNL1       -0.2858
     29 O          21.3433   73.2389    3.1439 O.3     1  UNL1       -0.3226
     30 O          22.7220   76.9010    1.8187 O.3     1  UNL1       -0.3794
     31 O          22.0175   74.8048   -0.0903 O.3     1  UNL1       -0.3775
     32 O          23.7243   75.7774    4.3054 O.3     1  UNL1       -0.3792
     33 C          22.7986   75.5031    2.0980 C.3     1  UNL1        0.1718
     34 C          21.7241   74.7625    1.3014 C.3     1  UNL1        0.1968
     35 C          22.5771   75.3081    3.5996 C.3     1  UNL1        0.1723
     36 C          21.6233   73.3024    1.7449 C.3     1  UNL1        0.2706
     37 C          22.3602   73.8374    3.9443 C.3     1  UNL1        0.1830
     38 H          22.8597   77.0494    0.8698 H       1  UNL1        0.2105
     39 H          22.0832   75.7284   -0.3785 H       1  UNL1        0.2106
     40 H          23.8735   76.7124    4.0946 H       1  UNL1        0.2106
     41 O          22.6314   72.8930    6.0741 O.co2   1  UNL1       -0.5466
     42 O          20.8036   74.2166    5.7483 O.co2   1  UNL1       -0.5466
     43 C          21.8249   73.6911    5.3315 C.2     1  UNL1        0.0799
@<TRIPOS>UNITY_ATOM_ATTR
2 1
charge -1
26 1
charge -1
41 1
charge -1
@<TRIPOS>BOND
     1     1     4    1
     2     1    24    1
     3     1     2    1
     4     1     3    2
     5    25    28    1
     6    25    24    1
     7    25    26    1
     8    25    27    2
     9     6    11    1
    10     6    12    1
    11    29    36    1
    12    29    37    1
    13     7     9    1
    14     7    13    1
    15     8    10    1
    16     8    14    1
    17     4     5    1
    18    28    36    1
    19    30    33    1
    20    30    38    1
    21    31    34    1
    22    31    39    1
    23    32    35    1
    24    32    40    1
    25    41    43   ar
    26    15    19    2
    27    42    43   ar
    28    16    22    2
    29    17    12    1
    30    17    19   ar
    31    17    20   ar
    32    18    19   ar
    33    18    22   ar
    34    18    23    1
    35     9    10    1
    36     9    11    1
    37    10    12    1
    38    11     5    1
    39    33    34    1
    40    33    35    1
    41    34    36    1
    42    35    37    1
    43    37    43    1
    44    20    21   ar
    45    21    22   ar
@<TRIPOS>MOLECULE
*****
 43 45 0 0 0
SMALL
GASTEIGER

@<TRIPOS>ATOM
      1 P          21.9003   72.4842   -5.7545 P.3     1  UNL1        0.2189
      2 O          21.2743   73.9147   -5.3295 O.co2   1  UNL1       -0.4371
      3 O          23.0857   72.5587   -6.6716 O.2     1  UNL1       -0.5170
      4 O          20.6292   71.6550   -6.3153 O.3     1  UNL1       -0.3112
      5 C          20.0966   72.0068   -7.5790 C.3     1  UNL1        0.1811
      6 O          18.9024   69.9667   -7.1435 O.3     1  UNL1       -0.3308
      7 O          18.1164   70.0276  -10.0366 O.3     1  UNL1       -0.3794
      8 O          15.8787   70.9647   -8.7913 O.3     1  UNL1       -0.3779
      9 C          18.2831   71.1116   -9.1225 C.3     1  UNL1        0.1713
     10 C          17.1223   71.1618   -8.1517 C.3     1  UNL1        0.1895
     11 C          19.4514   70.7772   -8.2052 C.3     1  UNL1        0.1764
     12 C          17.4686   70.0397   -7.1879 C.3     1  UNL1        0.2383
     13 H          17.3753   70.2184  -10.6333 H       1  UNL1        0.2105
     14 H          15.7040   71.7053   -9.3938 H       1  UNL1        0.2106
     15 O          16.3147   68.0656   -5.5301 O.2     1  UNL1       -0.2464
     16 O          15.5983   71.0857   -2.1227 O.2     1  UNL1       -0.2670
     17 N          16.9722   70.2827   -5.8629 N.ar    1  UNL1       -0.2551
     18 N          15.9581   69.5719   -3.8350 N.ar    1  UNL1       -0.2743
     19 C          16.4110   69.2216   -5.1138 C.ar    1  UNL1        0.3323
     20 C          17.0453   71.5590   -5.3181 C.ar    1  UNL1        0.0869
     21 C          16.6094   71.8775   -4.0977 C.ar    1  UNL1        0.0795
     22 C          16.0086   70.8268   -3.2501 C.ar    1  UNL1        0.2626
     23 H          15.5615   68.8502   -3.2953 H       1  UNL1        0.1734
     24 O          22.1944   71.7791   -4.3300 O.3     1  UNL1       -0.2703
     25 P          23.4489   71.9117   -3.3189 P.3     1  UNL1        0.2208
     26 O          24.3272   73.1035   -3.9736 O.co2   1  UNL1       -0.4371
     27 O          24.2048   70.6325   -3.1044 O.2     1  UNL1       -0.5170
     28 O          22.8266   72.5547   -1.9766 O.3     1  UNL1       -0.2858
     29 O          20.8691   73.8547   -1.6805 O.3     1  UNL1       -0.3226
     30 O          23.3493   75.3911    1.2447 O.3     1  UNL1       -0.3794
     31 O          24.3958   74.7811   -1.4137 O.3     1  UNL1       -0.3775
     32 O          21.1778   73.5981    1.9666 O.3     1  UNL1       -0.3792
     33 C          22.8168   74.3836    0.3848 C.3     1  UNL1        0.1718
     34 C          23.0143   74.7985   -1.0733 C.3     1  UNL1        0.1968
     35 C          21.3264   74.2336    0.6983 C.3     1  UNL1        0.1723
     36 C          22.2572   73.8620   -2.0160 C.3     1  UNL1        0.2706
     37 C          20.6175   73.3891   -0.3565 C.3     1  UNL1        0.1830
     38 H          24.2957   75.5039    1.0635 H       1  UNL1        0.2105
     39 H          24.8823   75.3730   -0.8193 H       1  UNL1        0.2106
     40 H          21.6248   74.1256    2.6469 H       1  UNL1        0.2106
     41 O          18.5084   72.8265   -1.2148 O.co2   1  UNL1       -0.5466
     42 O          18.5569   74.1577    0.6358 O.co2   1  UNL1       -0.5466
     43 C          19.1343   73.5193   -0.2313 C.2     1  UNL1        0.0799
@<TRIPOS>UNITY_ATOM_ATTR
2 1
charge -1
26 1
charge -1
41 1
charge -1
@<TRIPOS>BOND
     1     1     4    1
     2     1    24    1
     3     1     2    1
     4     1     3    2
     5    25    28    1
     6    25    24    1
     7    25    26    1
     8    25    27    2
     9     6    11    1
    10     6    12    1
    11    29    36    1
    12    29    37    1
    13     7     9    1
    14     7    13    1
    15     8    10    1
    16     8    14    1
    17     4     5    1
    18    28    36    1
    19    30    33    1
    20    30    38    1
    21    31    34    1
    22    31    39    1
    23    32    35    1
    24    32    40    1
    25    41    43   ar
    26    15    19    2
    27    42    43   ar
    28    16    22    2
    29    17    12    1
    30    17    19   ar
    31    17    20   ar
    32    18    19   ar
    33    18    22   ar
    34    18    23    1
    35     9    10    1
    36     9    11    1
    37    10    12    1
    38    11     5    1
    39    33    34    1
    40    33    35    1
    41    34    36    1
    42    35    37    1
    43    37    43    1
    44    20    21   ar
    45    21    22   ar
@<TRIPOS>MOLECULE
*****
 43 45 0 0 0
SMALL
GASTEIGER

@<TRIPOS>ATOM
      1 P          21.9187   72.4714   -5.7303 P.3     1  UNL1        0.2189
      2 O          21.2141   73.8793   -5.3561 O.co2   1  UNL1       -0.4371
      3 O          23.1365   72.5837   -6.5999 O.2     1  UNL1       -0.5170
      4 O          20.7089   71.5781   -6.3275 O.3     1  UNL1       -0.3112
      5 C          20.1316   71.9608   -7.5623 C.3     1  UNL1        0.1811
      6 O          18.9039   69.9362   -7.1484 O.3     1  UNL1       -0.3308
      7 O          18.1448   70.0238  -10.0480 O.3     1  UNL1       -0.3794
      8 O          15.9100   70.9871   -8.8177 O.3     1  UNL1       -0.3779
      9 C          18.3191   71.1005   -9.1266 C.3     1  UNL1        0.1713
     10 C          17.1506   71.1626   -8.1659 C.3     1  UNL1        0.1895
     11 C          19.4741   70.7441   -8.2008 C.3     1  UNL1        0.1764
     12 C          17.4717   70.0305   -7.2051 C.3     1  UNL1        0.2383
     13 H          17.4119   70.2286  -10.6502 H       1  UNL1        0.2105
     14 H          15.7516   71.7333   -9.4177 H       1  UNL1        0.2106
     15 O          16.3408   68.0493   -5.5400 O.2     1  UNL1       -0.2464
     16 O          15.5681   71.0780   -2.1527 O.2     1  UNL1       -0.2670
     17 N          16.9671   70.2738   -5.8834 N.ar    1  UNL1       -0.2551
     18 N          15.9561   69.5599   -3.8550 N.ar    1  UNL1       -0.2743
     19 C          16.4187   69.2089   -5.1301 C.ar    1  UNL1        0.3323
     20 C          17.0196   71.5541   -5.3457 C.ar    1  UNL1        0.0869
     21 C          16.5747   71.8732   -4.1287 C.ar    1  UNL1        0.0795
     22 C          15.9862   70.8187   -3.2771 C.ar    1  UNL1        0.2626
     23 H          15.5682   68.8356   -3.3125 H       1  UNL1        0.1734
     24 O          22.1841   71.8024   -4.2829 O.3     1  UNL1       -0.2703
     25 P          23.4343   71.9335   -3.2663 P.3     1  UNL1        0.2208
     26 O          24.2325   73.2256   -3.8263 O.co2   1  UNL1       -0.4371
     27 O          24.2698   70.6911   -3.1543 O.2     1  UNL1       -0.5170
     28 O          22.7816   72.4289   -1.8767 O.3     1  UNL1       -0.2858
     29 O          23.1239   70.8769   -0.1207 O.3     1  UNL1       -0.3226
     30 O          20.6074   73.6244    1.6644 O.3     1  UNL1       -0.3794
     31 O          20.1353   72.7502   -1.0829 O.3     1  UNL1       -0.3775
     32 O          23.4417   73.6062    2.3107 O.3     1  UNL1       -0.3792
     33 C          21.6335   73.1819    0.7759 C.3     1  UNL1        0.1718
     34 C          21.0618   72.1433   -0.1895 C.3     1  UNL1        0.1968
     35 C          22.7543   72.5667    1.6169 C.3     1  UNL1        0.1723
     36 C          22.1750   71.4798   -1.0014 C.3     1  UNL1        0.2706
     37 C          23.7571   71.8162    0.7452 C.3     1  UNL1        0.1830
     38 H          19.8841   74.0191    1.1523 H       1  UNL1        0.2105
     39 H          19.4263   73.1734   -0.5744 H       1  UNL1        0.2106
     40 H          22.8146   74.0918    2.8691 H       1  UNL1        0.2106
     41 O          24.1070   70.7601    2.8101 O.co2   1  UNL1       -0.5466
     42 O          25.7135   70.4849    1.2156 O.co2   1  UNL1       -0.5466
     43 C          24.6467   70.9550    1.5814 C.2     1  UNL1        0.0799
@<TRIPOS>UNITY_ATOM_ATTR
2 1
charge -1
26 1
charge -1
41 1
charge -1
@<TRIPOS>BOND
     1     1     4    1
     2     1    24    1
     3     1     2    1
     4     1     3    2
     5    25    28    1
     6    25    24    1
     7    25    26    1
     8    25    27    2
     9     6    11    1
    10     6    12    1
    11    29    36    1
    12    29    37    1
    13     7     9    1
    14     7    13    1
    15     8    10    1
    16     8    14    1
    17     4     5    1
    18    28    36    1
    19    30    33    1
    20    30    38    1
    21    31    34    1
    22    31    39    1
    23    32    35    1
    24    32    40    1
    25    41    43   ar
    26    15    19    2
    27    42    43   ar
    28    16    22    2
    29    17    12    1
    30    17    19   ar
    31    17    20   ar
    32    18    19   ar
    33    18    22   ar
    34    18    23    1
    35     9    10    1
    36     9    11    1
    37    10    12    1
    38    11     5    1
    39    33    34    1
    40    33    35    1
    41    34    36    1
    42    35    37    1
    43    37    43    1
    44    20    21   ar
    45    21    22   ar
@<TRIPOS>MOLECULE
*****
 43 45 0 0 0
SMALL
GASTEIGER

@<TRIPOS>ATOM
      1 P          22.3094   71.1268    0.4858 P.3     1  UNL1        0.2189
      2 O          23.5163   70.6002    1.4265 O.co2   1  UNL1       -0.4371
      3 O          21.0398   70.3324    0.5800 O.2     1  UNL1       -0.5170
      4 O          22.9748   71.2159   -0.9864 O.3     1  UNL1       -0.3112
      5 C          22.4582   72.1605   -1.9058 C.3     1  UNL1        0.1811
      6 O          21.9123   70.5653   -3.6190 O.3     1  UNL1       -0.3308
      7 O          23.2446   72.4472   -5.5359 O.3     1  UNL1       -0.3794
      8 O          20.5973   72.9653   -5.9351 O.3     1  UNL1       -0.3779
      9 C          22.4553   72.7407   -4.3829 C.3     1  UNL1        0.1713
     10 C          20.9918   72.4792   -4.6692 C.3     1  UNL1        0.1895
     11 C          22.7647   71.6926   -3.3227 C.3     1  UNL1        0.1764
     12 C          20.9177   70.9648   -4.5753 C.3     1  UNL1        0.2383
     13 H          23.0641   73.1037   -6.2274 H       1  UNL1        0.2105
     14 H          20.6618   73.9337   -5.9440 H       1  UNL1        0.2106
     15 O          18.7037   70.5342   -6.2751 O.2     1  UNL1       -0.2464
     16 O          16.0337   69.2018   -2.7623 O.2     1  UNL1       -0.2670
     17 N          19.6320   70.5055   -4.1313 N.ar    1  UNL1       -0.2551
     18 N          17.3757   69.8720   -4.5238 N.ar    1  UNL1       -0.2743
     19 C          18.5865   70.3218   -5.0668 C.ar    1  UNL1        0.3323
     20 C          19.4173   70.2408   -2.7842 C.ar    1  UNL1        0.0869
     21 C          18.2577   69.8124   -2.2816 C.ar    1  UNL1        0.0795
     22 C          17.1139   69.5957   -3.1916 C.ar    1  UNL1        0.2626
     23 H          16.6324   69.7386   -5.1554 H       1  UNL1        0.1734
     24 O          22.1660   72.6788    0.9142 O.3     1  UNL1       -0.2703
     25 P          21.2696   73.3853    2.0593 P.3     1  UNL1        0.2208
     26 O          20.5804   72.1311    2.8158 O.co2   1  UNL1       -0.4371
     27 O          20.2973   74.4040    1.5390 O.2     1  UNL1       -0.5170
     28 O          22.3402   73.9619    3.1194 O.3     1  UNL1       -0.2858
     29 O          24.4845   73.1062    3.6475 O.3     1  UNL1       -0.3226
     30 O          23.3876   74.8839    7.2118 O.3     1  UNL1       -0.3794
     31 O          21.4513   73.3253    5.6769 O.3     1  UNL1       -0.3775
     32 O          25.3263   76.1756    5.4729 O.3     1  UNL1       -0.3792
     33 C          23.4298   74.7246    5.7938 C.3     1  UNL1        0.1718
     34 C          22.8493   73.3621    5.4144 C.3     1  UNL1        0.1968
     35 C          24.8911   74.8228    5.3502 C.3     1  UNL1        0.1723
     36 C          23.0863   73.0594    3.9341 C.3     1  UNL1        0.2706
     37 C          25.0633   74.3848    3.8986 C.3     1  UNL1        0.1830
     38 H          22.4685   74.8251    7.5168 H       1  UNL1        0.2105
     39 H          21.2937   73.5168    6.6144 H       1  UNL1        0.2106
     40 H          25.2218   76.4668    6.3922 H       1  UNL1        0.2106
     41 O          26.7143   72.9036    3.1358 O.co2   1  UNL1       -0.5466
     42 O          27.3841   75.0112    3.6912 O.co2   1  UNL1       -0.5466
     43 C          26.5063   74.1689    3.5772 C.2     1  UNL1        0.0799
@<TRIPOS>UNITY_ATOM_ATTR
2 1
charge -1
26 1
charge -1
41 1
charge -1
@<TRIPOS>BOND
     1     1     4    1
     2     1    24    1
     3     1     2    1
     4     1     3    2
     5    25    28    1
     6    25    24    1
     7    25    26    1
     8    25    27    2
     9     6    11    1
    10     6    12    1
    11    29    36    1
    12    29    37    1
    13     7     9    1
    14     7    13    1
    15     8    10    1
    16     8    14    1
    17     4     5    1
    18    28    36    1
    19    30    33    1
    20    30    38    1
    21    31    34    1
    22    31    39    1
    23    32    35    1
    24    32    40    1
    25    41    43   ar
    26    15    19    2
    27    42    43   ar
    28    16    22    2
    29    17    12    1
    30    17    19   ar
    31    17    20   ar
    32    18    19   ar
    33    18    22   ar
    34    18    23    1
    35     9    10    1
    36     9    11    1
    37    10    12    1
    38    11     5    1
    39    33    34    1
    40    33    35    1
    41    34    36    1
    42    35    37    1
    43    37    43    1
    44    20    21   ar
    45    21    22   ar
@<TRIPOS>MOLECULE
*****
 43 45 0 0 0
SMALL
GASTEIGER

@<TRIPOS>ATOM
      1 P          23.1333   71.6795   -3.2811 P.3     1  UNL1        0.2189
      2 O          22.9684   72.1505   -4.8205 O.co2   1  UNL1       -0.4371
      3 O          24.1814   70.6311   -3.0481 O.2     1  UNL1       -0.5170
      4 O          21.6302   71.2820   -2.8332 O.3     1  UNL1       -0.3112
      5 C          20.8020   70.6115   -3.7654 C.3     1  UNL1        0.1811
      6 O          18.8238   71.6088   -4.6982 O.3     1  UNL1       -0.3308
      7 O          17.3220   70.2534   -2.4847 O.3     1  UNL1       -0.3794
      8 O          16.8450   68.6202   -4.6157 O.3     1  UNL1       -0.3779
      9 C          18.4551   69.7935   -3.2218 C.3     1  UNL1        0.1713
     10 C          18.0387   69.3749   -4.6159 C.3     1  UNL1        0.1895
     11 C          19.3506   70.9924   -3.5032 C.3     1  UNL1        0.1764
     12 C          17.8833   70.7150   -5.3144 C.3     1  UNL1        0.2383
     13 H          16.7350   69.5049   -2.2931 H       1  UNL1        0.2105
     14 H          16.9958   67.7767   -4.1600 H       1  UNL1        0.2106
     15 O          15.9296   70.3107   -7.3135 O.2     1  UNL1       -0.2464
     16 O          19.0812   70.4303  -10.6746 O.2     1  UNL1       -0.2670
     17 N          18.1656   70.6364   -6.7198 N.ar    1  UNL1       -0.2551
     18 N          17.5012   70.3697   -8.9855 N.ar    1  UNL1       -0.2743
     19 C          17.1116   70.4309   -7.6411 C.ar    1  UNL1        0.3323
     20 C          19.4731   70.7641   -7.1727 C.ar    1  UNL1        0.0869
     21 C          19.8290   70.7037   -8.4574 C.ar    1  UNL1        0.0795
     22 C          18.7882   70.4903   -9.4843 C.ar    1  UNL1        0.2626
     23 H          16.7851   70.2251   -9.6455 H       1  UNL1        0.1734
     24 O          23.3887   73.0719   -2.5009 O.3     1  UNL1       -0.2703
     25 P          24.2087   74.3962   -2.9338 P.3     1  UNL1        0.2208
     26 O          23.0417   75.4210   -3.3904 O.co2   1  UNL1       -0.4371
     27 O          25.2623   74.1550   -3.9758 O.2     1  UNL1       -0.5170
     28 O          24.7652   75.0046   -1.5472 O.3     1  UNL1       -0.2858
     29 O          23.0289   74.8806    0.0587 O.3     1  UNL1       -0.3226
     30 O          26.0691   76.6307    2.2410 O.3     1  UNL1       -0.3794
     31 O          25.5537   77.4626   -0.5116 O.3     1  UNL1       -0.3775
     32 O          25.4118   73.8275    2.6423 O.3     1  UNL1       -0.3792
     33 C          25.5042   75.7844    1.2397 C.3     1  UNL1        0.1718
     34 C          24.6937   76.6274    0.2548 C.3     1  UNL1        0.1968
     35 C          24.6005   74.7650    1.9370 C.3     1  UNL1        0.1723
     36 C          23.8887   75.7377   -0.6934 C.3     1  UNL1        0.2706
     37 C          23.7387   74.0055    0.9325 C.3     1  UNL1        0.1830
     38 H          26.6474   77.2870    1.8212 H       1  UNL1        0.2105
     39 H          26.0678   78.0297    0.0838 H       1  UNL1        0.2106
     40 H          25.9655   74.2981    3.2849 H       1  UNL1        0.2106
     41 O          22.4045   73.7983    2.8504 O.co2   1  UNL1       -0.5466
     42 O          22.0391   72.3086    1.1632 O.co2   1  UNL1       -0.5466
     43 C          22.6433   73.2640    1.6271 C.2     1  UNL1        0.0799
@<TRIPOS>UNITY_ATOM_ATTR
2 1
charge -1
26 1
charge -1
41 1
charge -1
@<TRIPOS>BOND
     1     1     4    1
     2     1    24    1
     3     1     2    1
     4     1     3    2
     5    25    28    1
     6    25    24    1
     7    25    26    1
     8    25    27    2
     9     6    11    1
    10     6    12    1
    11    29    36    1
    12    29    37    1
    13     7     9    1
    14     7    13    1
    15     8    10    1
    16     8    14    1
    17     4     5    1
    18    28    36    1
    19    30    33    1
    20    30    38    1
    21    31    34    1
    22    31    39    1
    23    32    35    1
    24    32    40    1
    25    41    43   ar
    26    15    19    2
    27    42    43   ar
    28    16    22    2
    29    17    12    1
    30    17    19   ar
    31    17    20   ar
    32    18    19   ar
    33    18    22   ar
    34    18    23    1
    35     9    10    1
    36     9    11    1
    37    10    12    1
    38    11     5    1
    39    33    34    1
    40    33    35    1
    41    34    36    1
    42    35    37    1
    43    37    43    1
    44    20    21   ar
    45    21    22   ar
@<TRIPOS>MOLECULE
*****
 43 45 0 0 0
SMALL
GASTEIGER

@<TRIPOS>ATOM
      1 P          22.6452   71.2320   -3.1379 P.3     1  UNL1        0.2189
      2 O          24.2173   70.9468   -2.8809 O.co2   1  UNL1       -0.4371
      3 O          21.7948   70.0048   -3.2877 O.2     1  UNL1       -0.5170
      4 O          22.6355   72.2512   -4.3945 O.3     1  UNL1       -0.3112
      5 C          21.3939   72.5752   -4.9928 C.3     1  UNL1        0.1811
      6 O          20.4954   70.5752   -5.9778 O.3     1  UNL1       -0.3308
      7 O          20.8024   71.9609   -8.6192 O.3     1  UNL1       -0.3794
      8 O          18.1409   72.2499   -8.1005 O.3     1  UNL1       -0.3779
      9 C          20.4396   72.5051   -7.3500 C.3     1  UNL1        0.1713
     10 C          19.0178   72.1188   -7.0012 C.3     1  UNL1        0.1895
     11 C          21.2397   71.7752   -6.2799 C.3     1  UNL1        0.1764
     12 C          19.1835   70.6764   -6.5541 C.3     1  UNL1        0.2383
     13 H          20.3038   72.4116   -9.3191 H       1  UNL1        0.2105
     14 H          18.0688   73.1859   -8.3468 H       1  UNL1        0.2106
     15 O          16.5677   69.7985   -7.1569 O.2     1  UNL1       -0.2464
     16 O          15.5359   69.2285   -2.7010 O.2     1  UNL1       -0.2670
     17 N          18.2106   70.2923   -5.5708 N.ar    1  UNL1       -0.2551
     18 N          16.0560   69.5164   -4.9370 N.ar    1  UNL1       -0.2743
     19 C          16.9246   69.8662   -5.9792 C.ar    1  UNL1        0.3323
     20 C          18.5342   70.3380   -4.2202 C.ar    1  UNL1        0.0869
     21 C          17.6956   70.0013   -3.2383 C.ar    1  UNL1        0.0795
     22 C          16.3319   69.5461   -3.5796 C.ar    1  UNL1        0.2626
     23 H          15.1542   69.2186   -5.1965 H       1  UNL1        0.1734
     24 O          22.2412   72.1835   -1.8952 O.3     1  UNL1       -0.2703
     25 P          22.7580   73.6564   -1.4743 P.3     1  UNL1        0.2208
     26 O          21.4903   74.6042   -1.8136 O.co2   1  UNL1       -0.4371
     27 O          24.0375   74.0735   -2.1397 O.2     1  UNL1       -0.5170
     28 O          22.8215   73.6228    0.1373 O.3     1  UNL1       -0.2858
     29 O          24.1067   74.5396    1.9028 O.3     1  UNL1       -0.3226
     30 O          23.9946   70.5404    2.9333 O.3     1  UNL1       -0.3794
     31 O          24.4143   71.3428    0.1558 O.3     1  UNL1       -0.3775
     32 O          22.3357   72.4599    4.3525 O.3     1  UNL1       -0.3792
     33 C          23.5020   71.7542    2.3659 C.3     1  UNL1        0.1718
     34 C          24.4541   72.2293    1.2680 C.3     1  UNL1        0.1968
     35 C          23.4146   72.7969    3.4826 C.3     1  UNL1        0.1723
     36 C          24.0864   73.6369    0.7964 C.3     1  UNL1        0.2706
     37 C          23.1705   74.1949    2.9216 C.3     1  UNL1        0.1830
     38 H          24.0587   69.8627    2.2419 H       1  UNL1        0.2105
     39 H          24.6463   70.4476    0.4478 H       1  UNL1        0.2106
     40 H          22.4788   71.5722    4.7162 H       1  UNL1        0.2106
     41 O          24.0506   76.3076    3.4345 O.co2   1  UNL1       -0.5466
     42 O          23.0833   75.1422    5.1389 O.co2   1  UNL1       -0.5466
     43 C          23.4130   75.2354    3.9660 C.2     1  UNL1        0.0799
@<TRIPOS>UNITY_ATOM_ATTR
2 1
charge -1
26 1
charge -1
41 1
charge -1
@<TRIPOS>BOND
     1     1     4    1
     2     1    24    1
     3     1     2    1
     4     1     3    2
     5    25    28    1
     6    25    24    1
     7    25    26    1
     8    25    27    2
     9     6    11    1
    10     6    12    1
    11    29    36    1
    12    29    37    1
    13     7     9    1
    14     7    13    1
    15     8    10    1
    16     8    14    1
    17     4     5    1
    18    28    36    1
    19    30    33    1
    20    30    38    1
    21    31    34    1
    22    31    39    1
    23    32    35    1
    24    32    40    1
    25    41    43   ar
    26    15    19    2
    27    42    43   ar
    28    16    22    2
    29    17    12    1
    30    17    19   ar
    31    17    20   ar
    32    18    19   ar
    33    18    22   ar
    34    18    23    1
    35     9    10    1
    36     9    11    1
    37    10    12    1
    38    11     5    1
    39    33    34    1
    40    33    35    1
    41    34    36    1
    42    35    37    1
    43    37    43    1
    44    20    21   ar
    45    21    22   ar
@<TRIPOS>MOLECULE
*****
 43 45 0 0 0
SMALL
GASTEIGER

@<TRIPOS>ATOM
      1 P          22.9173   73.2719   -4.1968 P.3     1  UNL1        0.2189
      2 O          23.8662   71.9637   -4.1134 O.co2   1  UNL1       -0.4371
      3 O          23.5870   74.5078   -4.7221 O.2     1  UNL1       -0.5170
      4 O          22.2884   73.3912   -2.7108 O.3     1  UNL1       -0.3112
      5 C          21.4784   72.3331   -2.2325 C.3     1  UNL1        0.1811
      6 O          21.1715   72.1587    0.1451 O.3     1  UNL1       -0.3308
      7 O          19.6956   74.7622   -0.0418 O.3     1  UNL1       -0.3794
      8 O          22.1449   75.5305    0.8785 O.3     1  UNL1       -0.3779
      9 C          20.8377   74.3163   -0.7736 C.3     1  UNL1        0.1713
     10 C          22.0697   74.3508    0.1057 C.3     1  UNL1        0.1895
     11 C          20.6749   72.8253   -1.0357 C.3     1  UNL1        0.1764
     12 C          21.8853   73.1054    0.9560 C.3     1  UNL1        0.2383
     13 H          19.7769   75.7124    0.1376 H       1  UNL1        0.2105
     14 H          22.2624   76.2945    0.2916 H       1  UNL1        0.2106
     15 O          23.3983   73.9651    3.1805 O.2     1  UNL1       -0.2464
     16 O          26.6686   70.8109    2.4059 O.2     1  UNL1       -0.2670
     17 N          23.1358   72.5265    1.3584 N.ar    1  UNL1       -0.2551
     18 N          25.0262   72.3939    2.7920 N.ar    1  UNL1       -0.2743
     19 C          23.8159   73.0326    2.4913 C.ar    1  UNL1        0.3323
     20 C          23.6751   71.4692    0.6357 C.ar    1  UNL1        0.0869
     21 C          24.8297   70.8707    0.9346 C.ar    1  UNL1        0.0795
     22 C          25.6033   71.3396    2.1029 C.ar    1  UNL1        0.2626
     23 H          25.5188   72.7302    3.5753 H       1  UNL1        0.1734
     24 O          21.6659   72.7568   -5.0807 O.3     1  UNL1       -0.2703
     25 P          20.9978   73.3562   -6.4254 P.3     1  UNL1        0.2208
     26 O          22.0587   72.9495   -7.5784 O.co2   1  UNL1       -0.4371
     27 O          20.6899   74.8241   -6.3583 O.2     1  UNL1       -0.5170
     28 O          19.7167   72.4152   -6.7005 O.3     1  UNL1       -0.2858
     29 O          19.1955   70.2436   -5.9122 O.3     1  UNL1       -0.3226
     30 O          17.5108   70.1955   -9.6841 O.3     1  UNL1       -0.3794
     31 O          20.1405   71.3923   -9.2520 O.3     1  UNL1       -0.3775
     32 O          15.8211   70.4715   -7.3347 O.3     1  UNL1       -0.3792
     33 C          17.9327   70.7817   -8.4527 C.3     1  UNL1        0.1718
     34 C          19.4430   70.6057   -8.2931 C.3     1  UNL1        0.1968
     35 C          17.1915   70.0763   -7.3148 C.3     1  UNL1        0.1723
     36 C          19.8961   71.0129   -6.8904 C.3     1  UNL1        0.2706
     37 C          17.7836   70.4380   -5.9557 C.3     1  UNL1        0.1830
     38 H          17.9689   70.6280  -10.4220 H       1  UNL1        0.2105
     39 H          19.8577   71.1393  -10.1444 H       1  UNL1        0.2106
     40 H          15.4323   70.2471   -8.1946 H       1  UNL1        0.2106
     41 O          17.7865   69.8544   -3.6839 O.co2   1  UNL1       -0.5466
     42 O          16.5265   68.5713   -5.0858 O.co2   1  UNL1       -0.5466
     43 C          17.2845   69.5107   -4.8959 C.2     1  UNL1        0.0799
@<TRIPOS>UNITY_ATOM_ATTR
2 1
charge -1
26 1
charge -1
41 1
charge -1
@<TRIPOS>BOND
     1     1     4    1
     2     1    24    1
     3     1     2    1
     4     1     3    2
     5    25    28    1
     6    25    24    1
     7    25    26    1
     8    25    27    2
     9     6    11    1
    10     6    12    1
    11    29    36    1
    12    29    37    1
    13     7     9    1
    14     7    13    1
    15     8    10    1
    16     8    14    1
    17     4     5    1
    18    28    36    1
    19    30    33    1
    20    30    38    1
    21    31    34    1
    22    31    39    1
    23    32    35    1
    24    32    40    1
    25    41    43   ar
    26    15    19    2
    27    42    43   ar
    28    16    22    2
    29    17    12    1
    30    17    19   ar
    31    17    20   ar
    32    18    19   ar
    33    18    22   ar
    34    18    23    1
    35     9    10    1
    36     9    11    1
    37    10    12    1
    38    11     5    1
    39    33    34    1
    40    33    35    1
    41    34    36    1
    42    35    37    1
    43    37    43    1
    44    20    21   ar
    45    21    22   ar
@<TRIPOS>MOLECULE
*****
 43 45 0 0 0
SMALL
GASTEIGER

@<TRIPOS>ATOM
      1 P          22.5871   71.2106    0.8804 P.3     1  UNL1        0.2189
      2 O          21.1714   70.4980    0.5531 O.co2   1  UNL1       -0.4371
      3 O          23.7261   70.2682    1.1382 O.2     1  UNL1       -0.5170
      4 O          22.2373   72.2356    2.0825 O.3     1  UNL1       -0.3112
      5 C          23.1340   72.3285    3.1742 C.3     1  UNL1        0.1811
      6 O          24.4981   73.8919    4.3877 O.3     1  UNL1       -0.3308
      7 O          23.3416   76.0035    2.6002 O.3     1  UNL1       -0.3794
      8 O          25.7924   75.5600    1.4900 O.3     1  UNL1       -0.3779
      9 C          23.6860   74.6516    2.2963 C.3     1  UNL1        0.1713
     10 C          25.1898   74.5017    2.2052 C.3     1  UNL1        0.1895
     11 C          23.3537   73.7975    3.5121 C.3     1  UNL1        0.1764
     12 C          25.5939   74.4808    3.6695 C.3     1  UNL1        0.2383
     13 H          23.5450   76.5685    1.8380 H       1  UNL1        0.2105
     14 H          25.5040   75.5298    0.5638 H       1  UNL1        0.2106
     15 O          27.4296   74.9492    5.7642 O.2     1  UNL1       -0.2464
     16 O          30.0972   71.4241    4.4598 O.2     1  UNL1       -0.2670
     17 N          26.7767   73.7006    3.9005 N.ar    1  UNL1       -0.2551
     18 N          28.7570   73.1937    5.1119 N.ar    1  UNL1       -0.2743
     19 C          27.6328   74.0195    4.9810 C.ar    1  UNL1        0.3323
     20 C          27.0776   72.6328    3.0637 C.ar    1  UNL1        0.0869
     21 C          28.1529   71.8546    3.2012 C.ar    1  UNL1        0.0795
     22 C          29.0989   72.1209    4.3046 C.ar    1  UNL1        0.2626
     23 H          29.3689   73.3975    5.8558 H       1  UNL1        0.1734
     24 O          22.7997   72.1936   -0.3850 O.3     1  UNL1       -0.2703
     25 P          21.8503   73.3459   -1.0052 P.3     1  UNL1        0.2208
     26 O          22.7324   74.6907   -0.8211 O.co2   1  UNL1       -0.4371
     27 O          20.4827   73.4144   -0.3898 O.2     1  UNL1       -0.5170
     28 O          21.8562   73.0696   -2.5946 O.3     1  UNL1       -0.2858
     29 O          20.9614   71.0223   -3.3802 O.3     1  UNL1       -0.3226
     30 O          23.0398   72.3572   -6.6918 O.3     1  UNL1       -0.3794
     31 O          24.1974   72.5987   -4.0204 O.3     1  UNL1       -0.3775
     32 O          20.1403   72.5520   -6.6125 O.3     1  UNL1       -0.3792
     33 C          22.2735   72.4877   -5.4943 C.3     1  UNL1        0.1718
     34 C          23.0299   71.8468   -4.3304 C.3     1  UNL1        0.1968
     35 C          20.9332   71.7816   -5.7113 C.3     1  UNL1        0.1723
     36 C          22.1468   71.7619   -3.0847 C.3     1  UNL1        0.2706
     37 C          20.1679   71.6242   -4.4006 C.3     1  UNL1        0.1830
     38 H          23.8962   72.7985   -6.5775 H       1  UNL1        0.2105
     39 H          24.7622   72.6568   -4.8066 H       1  UNL1        0.2106
     40 H          20.6162   72.6598   -7.4509 H       1  UNL1        0.2106
     41 O          18.5849   70.2502   -3.3481 O.co2   1  UNL1       -0.5466
     42 O          18.5765   70.2891   -5.6279 O.co2   1  UNL1       -0.5466
     43 C          19.0374   70.6602   -4.5589 C.2     1  UNL1        0.0799
@<TRIPOS>UNITY_ATOM_ATTR
2 1
charge -1
26 1
charge -1
41 1
charge -1
@<TRIPOS>BOND
     1     1     4    1
     2     1    24    1
     3     1     2    1
     4     1     3    2
     5    25    28    1
     6    25    24    1
     7    25    26    1
     8    25    27    2
     9     6    11    1
    10     6    12    1
    11    29    36    1
    12    29    37    1
    13     7     9    1
    14     7    13    1
    15     8    10    1
    16     8    14    1
    17     4     5    1
    18    28    36    1
    19    30    33    1
    20    30    38    1
    21    31    34    1
    22    31    39    1
    23    32    35    1
    24    32    40    1
    25    41    43   ar
    26    15    19    2
    27    42    43   ar
    28    16    22    2
    29    17    12    1
    30    17    19   ar
    31    17    20   ar
    32    18    19   ar
    33    18    22   ar
    34    18    23    1
    35     9    10    1
    36     9    11    1
    37    10    12    1
    38    11     5    1
    39    33    34    1
    40    33    35    1
    41    34    36    1
    42    35    37    1
    43    37    43    1
    44    20    21   ar
    45    21    22   ar
@<TRIPOS>MOLECULE
*****
 43 45 0 0 0
SMALL
GASTEIGER

@<TRIPOS>ATOM
      1 P          22.6009   72.0149   -3.3323 P.3     1  UNL1        0.2189
      2 O          22.1380   70.4982   -3.0096 O.co2   1  UNL1       -0.4371
      3 O          23.9777   72.1468   -3.9143 O.2     1  UNL1       -0.5170
      4 O          22.3475   72.8026   -1.9418 O.3     1  UNL1       -0.3112
      5 C          23.3528   72.7568   -0.9459 C.3     1  UNL1        0.1811
      6 O          24.4267   71.2599    0.5980 O.3     1  UNL1       -0.3308
      7 O          21.6945   70.1438    1.1278 O.3     1  UNL1       -0.3794
      8 O          22.0977   71.7767    3.2743 O.3     1  UNL1       -0.3779
      9 C          22.0839   71.4910    0.8597 C.3     1  UNL1        0.1713
     10 C          22.7669   72.0902    2.0708 C.3     1  UNL1        0.1895
     11 C          23.2140   71.4592   -0.1602 C.3     1  UNL1        0.1764
     12 C          24.1508   71.4684    1.9921 C.3     1  UNL1        0.2383
     13 H          20.9733   70.1385    1.7771 H       1  UNL1        0.2105
     14 H          21.2222   72.1956    3.2760 H       1  UNL1        0.2106
     15 O          26.8451   70.7051    2.3593 O.2     1  UNL1       -0.2464
     16 O          27.9581   74.8124    4.1299 O.2     1  UNL1       -0.2670
     17 N          25.1659   72.3186    2.5469 N.ar    1  UNL1       -0.2551
     18 N          27.3967   72.7511    3.2417 N.ar    1  UNL1       -0.2743
     19 C          26.4891   71.8381    2.6888 C.ar    1  UNL1        0.3323
     20 C          24.8474   73.6122    2.9419 C.ar    1  UNL1        0.0869
     21 C          25.7233   74.4710    3.4673 C.ar    1  UNL1        0.0795
     22 C          27.1270   74.0473    3.6502 C.ar    1  UNL1        0.2626
     23 H          28.3237   72.4386    3.3522 H       1  UNL1        0.1734
     24 O          21.4131   72.5627   -4.2819 O.3     1  UNL1       -0.2703
     25 P          21.4194   73.0206   -5.8324 P.3     1  UNL1        0.2208
     26 O          22.6519   72.1804   -6.4611 O.co2   1  UNL1       -0.4371
     27 O          21.5153   74.5049   -6.0357 O.2     1  UNL1       -0.5170
     28 O          20.0995   72.3421   -6.4649 O.3     1  UNL1       -0.2858
     29 O          19.4462   70.1805   -5.7508 O.3     1  UNL1       -0.3226
     30 O          17.2910   70.5968   -9.2508 O.3     1  UNL1       -0.3794
     31 O          20.0715   71.4818   -9.1097 O.3     1  UNL1       -0.3775
     32 O          15.9622   70.8611   -6.6787 O.3     1  UNL1       -0.3792
     33 C          17.9320   71.0397   -8.0546 C.3     1  UNL1        0.1718
     34 C          19.4211   70.6986   -8.1155 C.3     1  UNL1        0.1968
     35 C          17.2708   70.3278   -6.8722 C.3     1  UNL1        0.1723
     36 C          20.0951   70.9477   -6.7655 C.3     1  UNL1        0.2706
     37 C          18.0712   70.5208   -5.5874 C.3     1  UNL1        0.1830
     38 H          17.6947   71.0360  -10.0159 H       1  UNL1        0.2105
     39 H          19.6487   71.3288   -9.9689 H       1  UNL1        0.2106
     40 H          15.4425   70.7448   -7.4893 H       1  UNL1        0.2106
     41 O          18.4103   69.6521   -3.4352 O.co2   1  UNL1       -0.5466
     42 O          16.6539   68.8203   -4.6278 O.co2   1  UNL1       -0.5466
     43 C          17.6137   69.5700   -4.5296 C.2     1  UNL1        0.0799
@<TRIPOS>UNITY_ATOM_ATTR
2 1
charge -1
26 1
charge -1
41 1
charge -1
@<TRIPOS>BOND
     1     1     4    1
     2     1    24    1
     3     1     2    1
     4     1     3    2
     5    25    28    1
     6    25    24    1
     7    25    26    1
     8    25    27    2
     9     6    11    1
    10     6    12    1
    11    29    36    1
    12    29    37    1
    13     7     9    1
    14     7    13    1
    15     8    10    1
    16     8    14    1
    17     4     5    1
    18    28    36    1
    19    30    33    1
    20    30    38    1
    21    31    34    1
    22    31    39    1
    23    32    35    1
    24    32    40    1
    25    41    43   ar
    26    15    19    2
    27    42    43   ar
    28    16    22    2
    29    17    12    1
    30    17    19   ar
    31    17    20   ar
    32    18    19   ar
    33    18    22   ar
    34    18    23    1
    35     9    10    1
    36     9    11    1
    37    10    12    1
    38    11     5    1
    39    33    34    1
    40    33    35    1
    41    34    36    1
    42    35    37    1
    43    37    43    1
    44    20    21   ar
    45    21    22   ar
@<TRIPOS>MOLECULE
*****
 43 45 0 0 0
SMALL
GASTEIGER

@<TRIPOS>ATOM
      1 P          23.1185   71.9723   -3.5647 P.3     1  UNL1        0.2189
      2 O          23.5024   70.4309   -3.2557 O.co2   1  UNL1       -0.4371
      3 O          24.2004   72.7743   -4.2266 O.2     1  UNL1       -0.5170
      4 O          22.5975   72.5360   -2.1404 O.3     1  UNL1       -0.3112
      5 C          23.4862   72.5137   -1.0385 C.3     1  UNL1        0.1811
      6 O          24.3899   70.9747    0.5716 O.3     1  UNL1       -0.3308
      7 O          21.5521   70.1844    1.1322 O.3     1  UNL1       -0.3794
      8 O          22.1282   71.8517    3.2117 O.3     1  UNL1       -0.3779
      9 C          22.0857   71.4691    0.8109 C.3     1  UNL1        0.1713
     10 C          22.8286   72.0405    1.9999 C.3     1  UNL1        0.1895
     11 C          23.2066   71.2726   -0.2007 C.3     1  UNL1        0.1764
     12 C          24.1369   71.2696    1.9545 C.3     1  UNL1        0.2383
     13 H          20.8341   70.2842    1.7772 H       1  UNL1        0.2105
     14 H          21.3034   72.3627    3.1914 H       1  UNL1        0.2106
     15 O          23.9752   73.9737    2.7534 O.2     1  UNL1       -0.2464
     16 O          28.4243   74.0752    3.9532 O.2     1  UNL1       -0.2670
     17 N          25.2377   72.0271    2.4792 N.ar    1  UNL1       -0.2551
     18 N          26.1915   74.0220    3.3493 N.ar    1  UNL1       -0.2743
     19 C          25.0506   73.3795    2.8507 C.ar    1  UNL1        0.3323
     20 C          26.4844   71.4303    2.6229 C.ar    1  UNL1        0.0869
     21 C          27.5626   72.0555    3.0998 C.ar    1  UNL1        0.0795
     22 C          27.4524   73.4708    3.5101 C.ar    1  UNL1        0.2626
     23 H          26.0863   74.9648    3.6126 H       1  UNL1        0.1734
     24 O          21.7557   71.8415   -4.4242 O.3     1  UNL1       -0.2703
     25 P          20.9068   72.9474   -5.2427 P.3     1  UNL1        0.2208
     26 O          21.7821   73.1654   -6.5868 O.co2   1  UNL1       -0.4371
     27 O          20.6321   74.2066   -4.4727 O.2     1  UNL1       -0.5170
     28 O          19.5864   72.1648   -5.7391 O.3     1  UNL1       -0.2858
     29 O          18.8620   69.9306   -5.4339 O.3     1  UNL1       -0.3226
     30 O          17.5021   70.7414   -9.2498 O.3     1  UNL1       -0.3794
     31 O          20.1574   71.6200   -8.4062 O.3     1  UNL1       -0.3775
     32 O          15.6414   70.6949   -7.0168 O.3     1  UNL1       -0.3792
     33 C          17.8554   71.0449   -7.9003 C.3     1  UNL1        0.1718
     34 C          19.3324   70.7220   -7.6730 C.3     1  UNL1        0.1968
     35 C          16.9769   70.1955   -6.9791 C.3     1  UNL1        0.1723
     36 C          19.6906   70.8152   -6.1891 C.3     1  UNL1        0.2706
     37 C          17.4743   70.2414   -5.5372 C.3     1  UNL1        0.1830
     38 H          18.0477   71.2696   -9.8537 H       1  UNL1        0.2105
     39 H          19.9353   71.5664   -9.3486 H       1  UNL1        0.2106
     40 H          15.3130   70.6712   -7.9292 H       1  UNL1        0.2106
     41 O          16.1613   68.2980   -5.5139 O.co2   1  UNL1       -0.5466
     42 O          16.8912   69.0842   -3.5019 O.co2   1  UNL1       -0.5466
     43 C          16.8289   69.1706   -4.7191 C.2     1  UNL1        0.0799
@<TRIPOS>UNITY_ATOM_ATTR
2 1
charge -1
26 1
charge -1
41 1
charge -1
@<TRIPOS>BOND
     1     1     4    1
     2     1    24    1
     3     1     2    1
     4     1     3    2
     5    25    28    1
     6    25    24    1
     7    25    26    1
     8    25    27    2
     9     6    11    1
    10     6    12    1
    11    29    36    1
    12    29    37    1
    13     7     9    1
    14     7    13    1
    15     8    10    1
    16     8    14    1
    17     4     5    1
    18    28    36    1
    19    30    33    1
    20    30    38    1
    21    31    34    1
    22    31    39    1
    23    32    35    1
    24    32    40    1
    25    41    43   ar
    26    15    19    2
    27    42    43   ar
    28    16    22    2
    29    17    12    1
    30    17    19   ar
    31    17    20   ar
    32    18    19   ar
    33    18    22   ar
    34    18    23    1
    35     9    10    1
    36     9    11    1
    37    10    12    1
    38    11     5    1
    39    33    34    1
    40    33    35    1
    41    34    36    1
    42    35    37    1
    43    37    43    1
    44    20    21   ar
    45    21    22   ar
@<TRIPOS>MOLECULE
*****
 43 45 0 0 0
SMALL
GASTEIGER

@<TRIPOS>ATOM
      1 P          23.1841   71.8811   -3.3139 P.3     1  UNL1        0.2189
      2 O          23.0575   72.3731   -4.8504 O.co2   1  UNL1       -0.4371
      3 O          24.1688   70.7726   -3.0827 O.2     1  UNL1       -0.5170
      4 O          21.6575   71.5668   -2.8795 O.3     1  UNL1       -0.3112
      5 C          20.8289   70.8603   -3.7844 C.3     1  UNL1        0.1811
      6 O          18.8567   71.8300   -4.7578 O.3     1  UNL1       -0.3308
      7 O          17.3443   70.5593   -2.5019 O.3     1  UNL1       -0.3794
      8 O          16.8677   68.8527   -4.5746 O.3     1  UNL1       -0.3779
      9 C          18.4778   70.0698   -3.2188 C.3     1  UNL1        0.1713
     10 C          18.0639   69.6030   -4.5983 C.3     1  UNL1        0.1895
     11 C          19.3781   71.2549   -3.5402 C.3     1  UNL1        0.1764
     12 C          17.9149   70.9178   -5.3446 C.3     1  UNL1        0.2383
     13 H          16.7542   69.8200   -2.2853 H       1  UNL1        0.2105
     14 H          17.0144   68.0255   -4.0888 H       1  UNL1        0.2106
     15 O          16.0177   70.1654   -7.2967 O.2     1  UNL1       -0.2464
     16 O          19.1241   70.4530  -10.6896 O.2     1  UNL1       -0.2670
     17 N          18.2009   70.7883   -6.7454 N.ar    1  UNL1       -0.2551
     18 N          17.5669   70.3083   -8.9845 N.ar    1  UNL1       -0.2743
     19 C          17.1763   70.4043   -7.6424 C.ar    1  UNL1        0.3323
     20 C          19.4828   71.0420   -7.2179 C.ar    1  UNL1        0.0869
     21 C          19.8400   70.9464   -8.5001 C.ar    1  UNL1        0.0795
     22 C          18.8292   70.5499   -9.5022 C.ar    1  UNL1        0.2626
     23 H          16.8712   70.0405   -9.6276 H       1  UNL1        0.1734
     24 O          23.5131   73.2503   -2.5203 O.3     1  UNL1       -0.2703
     25 P          24.2367   74.6116   -3.0071 P.3     1  UNL1        0.2208
     26 O          25.3695   74.0812   -4.0347 O.co2   1  UNL1       -0.4371
     27 O          24.7658   75.4617   -1.8885 O.2     1  UNL1       -0.5170
     28 O          23.1461   75.3421   -3.9449 O.3     1  UNL1       -0.2858
     29 O          22.3980   75.5350   -6.1837 O.3     1  UNL1       -0.3226
     30 O          23.2743   79.4626   -5.2487 O.3     1  UNL1       -0.3794
     31 O          25.0589   77.3071   -4.4100 O.3     1  UNL1       -0.3775
     32 O          20.5098   78.5698   -5.3548 O.3     1  UNL1       -0.3792
     33 C          22.8492   78.1248   -4.9888 C.3     1  UNL1        0.1718
     34 C          23.9809   77.1536   -5.3260 C.3     1  UNL1        0.1968
     35 C          21.6251   77.8395   -5.8618 C.3     1  UNL1        0.1723
     36 C          23.4909   75.7056   -5.2805 C.3     1  UNL1        0.2706
     37 C          21.2758   76.3541   -5.8629 C.3     1  UNL1        0.1830
     38 H          24.0515   79.6666   -4.7049 H       1  UNL1        0.2105
     39 H          25.3745   78.2237   -4.4334 H       1  UNL1        0.2106
     40 H          20.7192   79.5169   -5.3486 H       1  UNL1        0.2106
     41 O          19.7330   74.8263   -6.7504 O.co2   1  UNL1       -0.5466
     42 O          20.0573   76.7660   -7.9043 O.co2   1  UNL1       -0.5466
     43 C          20.3066   76.0379   -6.9552 C.2     1  UNL1        0.0799
@<TRIPOS>UNITY_ATOM_ATTR
2 1
charge -1
26 1
charge -1
41 1
charge -1
@<TRIPOS>BOND
     1     1     4    1
     2     1    24    1
     3     1     2    1
     4     1     3    2
     5    25    28    1
     6    25    24    1
     7    25    26    1
     8    25    27    2
     9     6    11    1
    10     6    12    1
    11    29    36    1
    12    29    37    1
    13     7     9    1
    14     7    13    1
    15     8    10    1
    16     8    14    1
    17     4     5    1
    18    28    36    1
    19    30    33    1
    20    30    38    1
    21    31    34    1
    22    31    39    1
    23    32    35    1
    24    32    40    1
    25    41    43   ar
    26    15    19    2
    27    42    43   ar
    28    16    22    2
    29    17    12    1
    30    17    19   ar
    31    17    20   ar
    32    18    19   ar
    33    18    22   ar
    34    18    23    1
    35     9    10    1
    36     9    11    1
    37    10    12    1
    38    11     5    1
    39    33    34    1
    40    33    35    1
    41    34    36    1
    42    35    37    1
    43    37    43    1
    44    20    21   ar
    45    21    22   ar
@<TRIPOS>MOLECULE
*****
 43 45 0 0 0
SMALL
GASTEIGER

@<TRIPOS>ATOM
      1 P          22.1703   72.9987   -5.1821 P.3     1  UNL1        0.2189
      2 O          22.0981   74.6154   -5.1897 O.co2   1  UNL1       -0.4371
      3 O          23.2871   72.4105   -5.9937 O.2     1  UNL1       -0.5170
      4 O          20.6773   72.5411   -5.6057 O.3     1  UNL1       -0.3112
      5 C          20.3465   72.5037   -6.9818 C.3     1  UNL1        0.1811
      6 O          19.3193   70.4444   -6.2876 O.3     1  UNL1       -0.3308
      7 O          19.3226   69.6815   -9.1875 O.3     1  UNL1       -0.3794
      8 O          16.7443   70.4717   -8.7822 O.3     1  UNL1       -0.3779
      9 C          19.1181   70.9622   -8.5902 C.3     1  UNL1        0.1713
     10 C          17.7445   71.0320   -7.9574 C.3     1  UNL1        0.1895
     11 C          20.0332   71.0666   -7.3778 C.3     1  UNL1        0.1764
     12 C          17.9492   70.2485   -6.6720 C.3     1  UNL1        0.2383
     13 H          18.7484   69.5914   -9.9646 H       1  UNL1        0.2105
     14 H          16.6519   71.0063   -9.5869 H       1  UNL1        0.2106
     15 O          16.8420   68.5742   -4.6852 O.2     1  UNL1       -0.2464
     16 O          14.6920   72.1061   -2.6486 O.2     1  UNL1       -0.2670
     17 N          17.0967   70.7043   -5.6107 N.ar    1  UNL1       -0.2551
     18 N          15.7714   70.3347   -3.6734 N.ar    1  UNL1       -0.2743
     19 C          16.5931   69.7811   -4.6640 C.ar    1  UNL1        0.3323
     20 C          16.7690   72.0512   -5.5142 C.ar    1  UNL1        0.0869
     21 C          15.9846   72.5641   -4.5642 C.ar    1  UNL1        0.0795
     22 C          15.4166   71.6670   -3.5365 C.ar    1  UNL1        0.2626
     23 H          15.4072   69.7112   -3.0041 H       1  UNL1        0.1734
     24 O          22.2252   72.6454   -3.6057 O.3     1  UNL1       -0.2703
     25 P          22.3733   71.2293   -2.8398 P.3     1  UNL1        0.2208
     26 O          23.9677   70.9523   -2.8798 O.co2   1  UNL1       -0.4371
     27 O          21.5390   70.1247   -3.4209 O.2     1  UNL1       -0.5170
     28 O          22.0570   71.5650   -1.2939 O.3     1  UNL1       -0.2858
     29 O          23.9417   72.4589   -0.1722 O.3     1  UNL1       -0.3226
     30 O          21.2510   72.0106    2.9306 O.3     1  UNL1       -0.3794
     31 O          21.5227   69.9335    0.8943 O.3     1  UNL1       -0.3775
     32 O          21.7855   74.6486    1.8324 O.3     1  UNL1       -0.3792
     33 C          21.6590   72.2553    1.5847 C.3     1  UNL1        0.1718
     34 C          22.4089   71.0361    1.0475 C.3     1  UNL1        0.1968
     35 C          22.5709   73.4844    1.5830 C.3     1  UNL1        0.1723
     36 C          23.0584   71.3443   -0.3024 C.3     1  UNL1        0.2706
     37 C          23.2783   73.6514    0.2413 C.3     1  UNL1        0.1830
     38 H          20.6705   71.2337    2.9565 H       1  UNL1        0.2105
     39 H          21.1068   69.7327    1.7470 H       1  UNL1        0.2106
     40 H          21.3298   74.5550    2.6835 H       1  UNL1        0.2106
     41 O          24.7747   75.0686   -0.8785 O.co2   1  UNL1       -0.5466
     42 O          24.9034   75.0093    1.3973 O.co2   1  UNL1       -0.5466
     43 C          24.3961   74.6367    0.3500 C.2     1  UNL1        0.0799
@<TRIPOS>UNITY_ATOM_ATTR
2 1
charge -1
26 1
charge -1
41 1
charge -1
@<TRIPOS>BOND
     1     1     4    1
     2     1    24    1
     3     1     2    1
     4     1     3    2
     5    25    28    1
     6    25    24    1
     7    25    26    1
     8    25    27    2
     9     6    11    1
    10     6    12    1
    11    29    36    1
    12    29    37    1
    13     7     9    1
    14     7    13    1
    15     8    10    1
    16     8    14    1
    17     4     5    1
    18    28    36    1
    19    30    33    1
    20    30    38    1
    21    31    34    1
    22    31    39    1
    23    32    35    1
    24    32    40    1
    25    41    43   ar
    26    15    19    2
    27    42    43   ar
    28    16    22    2
    29    17    12    1
    30    17    19   ar
    31    17    20   ar
    32    18    19   ar
    33    18    22   ar
    34    18    23    1
    35     9    10    1
    36     9    11    1
    37    10    12    1
    38    11     5    1
    39    33    34    1
    40    33    35    1
    41    34    36    1
    42    35    37    1
    43    37    43    1
    44    20    21   ar
    45    21    22   ar
