@<TRIPOS>MOLECULE
UD2
 46 48 0 0 0
SMALL
GASTEIGER

@<TRIPOS>ATOM
      1 P          22.0126   71.0053   -2.7572 P.3     1  UNL1        0.2189
      2 O          21.5300   69.4699   -2.7243 O.3     1  UNL1       -0.4371
      3 O          23.2867   71.1067   -3.5024 O.2     1  UNL1       -0.5170
      4 O          20.8921   71.9044   -3.4850 O.3     1  UNL1       -0.3112
      5 C          19.8600   72.5879   -2.7715 C.3     1  UNL1        0.1811
      6 C          17.7410   71.4396   -5.4413 C.3     1  UNL1        0.2383
      7 C          17.8905   70.2121   -4.5070 C.3     1  UNL1        0.1895
      8 O          16.7197   69.3940   -4.5484 O.3     1  UNL1       -0.3779
      9 C          18.0503   70.8779   -3.1182 C.3     1  UNL1        0.1713
     10 C          18.5105   72.3127   -3.4393 C.3     1  UNL1        0.1764
     11 O          18.6424   72.4105   -4.8664 O.3     1  UNL1       -0.3308
     12 O          16.8004   70.8959   -2.4268 O.3     1  UNL1       -0.3794
     13 H          16.7651   68.6128   -3.9806 H       1  UNL1        0.2106
     14 H          16.4346   70.0185   -2.2509 H       1  UNL1        0.2105
     15 N          18.1491   71.1013   -6.8066 N.ar    1  UNL1       -0.2551
     16 C          17.2239   70.7110   -7.7013 C.ar    1  UNL1        0.3323
     17 N          17.5704   70.3939   -8.9629 N.ar    1  UNL1       -0.2743
     18 C          18.8600   70.4655   -9.3508 C.ar    1  UNL1        0.2626
     19 C          19.8442   70.8759   -8.4197 C.ar    1  UNL1        0.0795
     20 C          19.4678   71.1919   -7.1627 C.ar    1  UNL1        0.0869
     21 O          16.0573   70.6421   -7.3655 O.2     1  UNL1       -0.2464
     22 O          19.1750   70.1792  -10.4925 O.2     1  UNL1       -0.2670
     23 H          16.8909   70.1132   -9.5949 H       1  UNL1        0.1734
     24 O          22.2279   71.5329   -1.2510 O.3     1  UNL1       -0.2703
     25 P          22.4981   70.8060    0.1602 P.3     1  UNL1        0.2208
     26 O          21.3119   69.7585    0.4594 O.3     1  UNL1       -0.4371
     27 O          23.7891   70.0859    0.1053 O.2     1  UNL1       -0.5170
     28 O          22.5480   71.9098    1.3314 O.3     1  UNL1       -0.2865
     29 C          21.4520   72.7754    1.6326 C.3     1  UNL1        0.2611
     30 C          21.8227   74.2151    1.2686 C.3     1  UNL1        0.1582
     31 C          23.0139   74.6583    2.1236 C.3     1  UNL1        0.1625
     32 C          22.6500   74.5090    3.6034 C.3     1  UNL1        0.1686
     33 C          22.2473   73.0575    3.8774 C.3     1  UNL1        0.1760
     34 O          23.3203   76.0259    1.8428 O.3     1  UNL1       -0.3801
     35 O          21.5579   75.3753    3.9164 O.3     1  UNL1       -0.3794
     36 O          21.1551   72.6994    3.0284 O.3     1  UNL1       -0.3263
     37 H          24.0670   76.3734    2.3498 H       1  UNL1        0.2105
     38 H          21.2730   75.3322    4.8400 H       1  UNL1        0.2105
     39 C          23.4819   74.3458   -0.5111 C.2     1  UNL1        0.2231
     40 C          23.8556   74.4159   -1.9685 C.3     1  UNL1        0.0946
     41 N          22.1853   74.2835   -0.1493 N.am    1  UNL1       -0.2994
     42 O          24.3485   74.3455    0.3381 O.2     1  UNL1       -0.2751
     43 H          21.4921   74.2847   -0.8279 H       1  UNL1        0.1496
     44 C          21.8249   72.9133    5.3407 C.3     1  UNL1        0.1693
     45 O          22.6926   73.6924    6.1668 O.3     1  UNL1       -0.3794
     46 H          22.4832   73.6483    7.1098 H       1  UNL1        0.2105
@<TRIPOS>BOND
     1    29    30    1
     2    30    41    1
     3    30    31    1
     4    31    34    1
     5    31    32    1
     6    32    35    1
     7    32    33    1
     8    33    36    1
     9    33    44    1
    10    39    40    1
    11    39    42    2
    12    39    41   am
    13    41    43    1
    14    29    28    1
    15    34    37    1
    16    35    38    1
    17    29    36    1
    18    44    45    1
    19    45    46    1
    20    15     6    1
    21    15    16   ar
    22    16    21    2
    23    16    17   ar
    24    17    23    1
    25    17    18   ar
    26    18    19   ar
    27    19    20   ar
    28    15    20   ar
    29    18    22    2
    30     6     7    1
    31     6    11    1
    32     7     9    1
    33     7     8    1
    34     8    13    1
    35     9    10    1
    36     9    12    1
    37    10     5    1
    38    10    11    1
    39    12    14    1
    40     5     4    1
    41     4     1    1
    42     1     2    1
    43     1    24    1
    44     1     3    2
    45    24    25    1
    46    28    25    1
    47    25    26    1
    48    25    27    2
@<TRIPOS>MOLECULE
UD2
 46 48 0 0 0
SMALL
GASTEIGER

@<TRIPOS>ATOM
      1 P          22.8872   71.9645   -3.3269 P.3     1  UNL1        0.2189
      2 O          23.5215   70.4854   -3.2909 O.3     1  UNL1       -0.4371
      3 O          23.5435   72.7576   -4.3896 O.2     1  UNL1       -0.5170
      4 O          21.3086   71.8641   -3.6295 O.3     1  UNL1       -0.3112
      5 C          20.3107   72.0719   -2.6283 C.3     1  UNL1        0.1811
      6 C          18.0097   71.3402   -5.2942 C.3     1  UNL1        0.2383
      7 C          18.0438   70.0458   -4.4426 C.3     1  UNL1        0.1895
      8 O          16.7879   69.3665   -4.4966 O.3     1  UNL1       -0.3779
      9 C          18.3122   70.5984   -3.0213 C.3     1  UNL1        0.1713
     10 C          18.9224   71.9914   -3.2680 C.3     1  UNL1        0.1764
     11 O          19.0286   72.1663   -4.6899 O.3     1  UNL1       -0.3308
     12 O          17.0900   70.7096   -2.2902 O.3     1  UNL1       -0.3794
     13 H          16.7595   68.5499   -3.9797 H       1  UNL1        0.2106
     14 H          16.6326   69.8685   -2.1570 H       1  UNL1        0.2105
     15 N          18.3428   71.0481   -6.6902 N.ar    1  UNL1       -0.2551
     16 C          17.3590   70.7883   -7.5697 C.ar    1  UNL1        0.3323
     17 N          17.6361   70.5164   -8.8587 N.ar    1  UNL1       -0.2743
     18 C          18.9137   70.5026   -9.2900 C.ar    1  UNL1        0.2626
     19 C          19.9591   70.7754   -8.3753 C.ar    1  UNL1        0.0795
     20 C          19.6521   71.0489   -7.0898 C.ar    1  UNL1        0.0869
     21 O          16.2024   70.7976   -7.1949 O.2     1  UNL1       -0.2464
     22 O          19.1658   70.2571  -10.4565 O.2     1  UNL1       -0.2670
     23 H          16.9148   70.3301   -9.4794 H       1  UNL1        0.1734
     24 O          23.1155   72.6815   -1.9032 O.3     1  UNL1       -0.2703
     25 P          23.2636   74.2150   -1.4348 P.3     1  UNL1        0.2208
     26 O          24.7280   74.7571   -1.8292 O.3     1  UNL1       -0.4371
     27 O          22.2356   75.0383   -2.1083 O.2     1  UNL1       -0.5170
     28 O          23.0674   74.3102    0.1606 O.3     1  UNL1       -0.2865
     29 C          21.8127   74.0844    0.8054 C.3     1  UNL1        0.2611
     30 C          21.9499   74.3658    2.3037 C.3     1  UNL1        0.1582
     31 C          22.9651   73.3900    2.9068 C.3     1  UNL1        0.1625
     32 C          22.5083   71.9560    2.6250 C.3     1  UNL1        0.1686
     33 C          22.3495   71.7674    1.1139 C.3     1  UNL1        0.1760
     34 O          23.0451   73.5969    4.3189 O.3     1  UNL1       -0.3801
     35 O          21.2562   71.7179    3.2707 O.3     1  UNL1       -0.3794
     36 O          21.4157   72.7253    0.6115 O.3     1  UNL1       -0.3263
     37 H          23.6714   73.0119    4.7668 H       1  UNL1        0.2105
     38 H          20.9055   70.8267    3.1339 H       1  UNL1        0.2105
     39 C          21.5782   76.6685    3.0087 C.2     1  UNL1        0.2231
     40 C          22.0552   78.0823    3.2138 C.3     1  UNL1        0.0946
     41 N          22.4146   75.7409    2.5027 N.am    1  UNL1       -0.2994
     42 O          20.4401   76.3639    3.2990 O.2     1  UNL1       -0.2751
     43 H          23.3243   75.9842    2.2695 H       1  UNL1        0.1496
     44 C          21.8359   70.3551    0.8276 C.3     1  UNL1        0.1693
     45 O          22.9312   69.5149    0.4579 O.3     1  UNL1       -0.3794
     46 H          22.6789   68.6024    0.2615 H       1  UNL1        0.2105
@<TRIPOS>BOND
     1    29    30    1
     2    30    41    1
     3    30    31    1
     4    31    34    1
     5    31    32    1
     6    32    35    1
     7    32    33    1
     8    33    36    1
     9    33    44    1
    10    39    40    1
    11    39    42    2
    12    39    41   am
    13    41    43    1
    14    29    28    1
    15    34    37    1
    16    35    38    1
    17    29    36    1
    18    44    45    1
    19    45    46    1
    20    15     6    1
    21    15    16   ar
    22    16    21    2
    23    16    17   ar
    24    17    23    1
    25    17    18   ar
    26    18    19   ar
    27    19    20   ar
    28    15    20   ar
    29    18    22    2
    30     6     7    1
    31     6    11    1
    32     7     9    1
    33     7     8    1
    34     8    13    1
    35     9    10    1
    36     9    12    1
    37    10     5    1
    38    10    11    1
    39    12    14    1
    40     5     4    1
    41     4     1    1
    42     1     2    1
    43     1    24    1
    44     1     3    2
    45    24    25    1
    46    28    25    1
    47    25    26    1
    48    25    27    2
@<TRIPOS>MOLECULE
UD2
 46 48 0 0 0
SMALL
GASTEIGER

@<TRIPOS>ATOM
      1 P          22.0084   74.2718   -6.2406 P.3     1  UNL1        0.2189
      2 O          23.3128   75.2113   -6.3251 O.3     1  UNL1       -0.4371
      3 O          20.7976   75.0841   -6.4917 O.2     1  UNL1       -0.5170
      4 O          22.1130   73.1077   -7.3485 O.3     1  UNL1       -0.3112
      5 C          21.5964   73.2469   -8.6733 C.3     1  UNL1        0.1811
      6 C          18.8885   71.1741   -7.5300 C.3     1  UNL1        0.2383
      7 C          18.2322   72.5480   -7.8195 C.3     1  UNL1        0.1895
      8 O          16.8751   72.3872   -8.2370 O.3     1  UNL1       -0.3779
      9 C          19.1061   73.0884   -8.9779 C.3     1  UNL1        0.1713
     10 C          20.4181   72.2888   -8.8643 C.3     1  UNL1        0.1764
     11 O          20.2972   71.4286   -7.7202 O.3     1  UNL1       -0.3308
     12 O          18.4760   72.8404  -10.2358 O.3     1  UNL1       -0.3794
     13 H          16.4213   73.2189   -8.4294 H       1  UNL1        0.2106
     14 H          17.6173   73.2724  -10.3383 H       1  UNL1        0.2105
     15 N          18.6209   70.7547   -6.1526 N.ar    1  UNL1       -0.2551
     16 C          17.4640   70.1355   -5.8573 C.ar    1  UNL1        0.3323
     17 N          17.1916   69.7393   -4.5999 N.ar    1  UNL1       -0.2743
     18 C          18.0825   69.9577   -3.6114 C.ar    1  UNL1        0.2626
     19 C          19.3047   70.6075   -3.9082 C.ar    1  UNL1        0.0795
     20 C          19.5534   70.9901   -5.1784 C.ar    1  UNL1        0.0869
     21 O          16.6516   69.9318   -6.7386 O.2     1  UNL1       -0.2464
     22 O          17.8373   69.5992   -2.4730 O.2     1  UNL1       -0.2670
     23 H          16.3522   69.2952   -4.4041 H       1  UNL1        0.1734
     24 O          21.9170   73.6104   -4.7752 O.3     1  UNL1       -0.2703
     25 P          23.0085   73.0602   -3.7270 P.3     1  UNL1        0.2208
     26 O          23.1614   71.4662   -3.8992 O.3     1  UNL1       -0.4371
     27 O          24.3119   73.7108   -3.9845 O.2     1  UNL1       -0.5170
     28 O          22.5283   73.3947   -2.2270 O.3     1  UNL1       -0.2865
     29 C          21.3563   72.8265   -1.6399 C.3     1  UNL1        0.2611
     30 C          20.8511   73.7397   -0.5203 C.3     1  UNL1        0.1582
     31 C          21.9205   73.8327    0.5726 C.3     1  UNL1        0.1625
     32 C          22.2453   72.4233    1.0752 C.3     1  UNL1        0.1686
     33 C          22.6968   71.5606   -0.1063 C.3     1  UNL1        0.1760
     34 O          21.4279   74.6244    1.6560 O.3     1  UNL1       -0.3801
     35 O          21.0805   71.8479    1.6697 O.3     1  UNL1       -0.3794
     36 O          21.6699   71.5411   -1.0997 O.3     1  UNL1       -0.3263
     37 H          22.0551   74.7262    2.3851 H       1  UNL1        0.2105
     38 H          21.2135   70.9522    2.0103 H       1  UNL1        0.2105
     39 C          19.4870   75.7530   -0.6737 C.2     1  UNL1        0.2231
     40 C          19.2136   77.1263   -1.2285 C.3     1  UNL1        0.0946
     41 N          20.5858   75.0754   -1.0606 N.am    1  UNL1       -0.2994
     42 O          18.7177   75.2558    0.1221 O.2     1  UNL1       -0.2751
     43 H          21.2006   75.4721   -1.6975 H       1  UNL1        0.1496
     44 C          22.9662   70.1345    0.3775 C.3     1  UNL1        0.1693
     45 O          21.7263   69.4406    0.5309 O.3     1  UNL1       -0.3794
     46 H          21.8208   68.5279    0.8359 H       1  UNL1        0.2105
@<TRIPOS>BOND
     1    29    30    1
     2    30    41    1
     3    30    31    1
     4    31    34    1
     5    31    32    1
     6    32    35    1
     7    32    33    1
     8    33    36    1
     9    33    44    1
    10    39    40    1
    11    39    42    2
    12    39    41   am
    13    41    43    1
    14    29    28    1
    15    34    37    1
    16    35    38    1
    17    29    36    1
    18    44    45    1
    19    45    46    1
    20    15     6    1
    21    15    16   ar
    22    16    21    2
    23    16    17   ar
    24    17    23    1
    25    17    18   ar
    26    18    19   ar
    27    19    20   ar
    28    15    20   ar
    29    18    22    2
    30     6     7    1
    31     6    11    1
    32     7     9    1
    33     7     8    1
    34     8    13    1
    35     9    10    1
    36     9    12    1
    37    10     5    1
    38    10    11    1
    39    12    14    1
    40     5     4    1
    41     4     1    1
    42     1     2    1
    43     1    24    1
    44     1     3    2
    45    24    25    1
    46    28    25    1
    47    25    26    1
    48    25    27    2
@<TRIPOS>MOLECULE
UD2
 46 48 0 0 0
SMALL
GASTEIGER

@<TRIPOS>ATOM
      1 P          21.7698   70.5527   -0.3643 P.3     1  UNL1        0.2189
      2 O          21.6838   69.1909    0.4898 O.3     1  UNL1       -0.4371
      3 O          23.1269   70.6917   -0.9370 O.2     1  UNL1       -0.5170
      4 O          20.6866   70.5083   -1.5553 O.3     1  UNL1       -0.3112
      5 C          20.7143   71.4079   -2.6650 C.3     1  UNL1        0.1811
      6 C          18.2280   71.1590   -5.2520 C.3     1  UNL1        0.2383
      7 C          18.1219   69.8196   -4.4794 C.3     1  UNL1        0.1895
      8 O          16.7846   69.3172   -4.5106 O.3     1  UNL1       -0.3779
      9 C          18.5207   70.2399   -3.0435 C.3     1  UNL1        0.1713
     10 C          19.3028   71.5528   -3.2390 C.3     1  UNL1        0.1764
     11 O          19.3730   71.8027   -4.6518 O.3     1  UNL1       -0.3308
     12 O          17.3558   70.4648   -2.2478 O.3     1  UNL1       -0.3794
     13 H          16.6675   68.4803   -4.0411 H       1  UNL1        0.2106
     14 H          16.7949   69.6848   -2.1411 H       1  UNL1        0.2105
     15 N          18.4608   70.9153   -6.6772 N.ar    1  UNL1       -0.2551
     16 C          17.4134   70.7740   -7.5090 C.ar    1  UNL1        0.3323
     17 N          17.5979   70.5491   -8.8234 N.ar    1  UNL1       -0.2743
     18 C          18.8452   70.4634   -9.3288 C.ar    1  UNL1        0.2626
     19 C          19.9569   70.6112   -8.4649 C.ar    1  UNL1        0.0795
     20 C          19.7425   70.8402   -7.1522 C.ar    1  UNL1        0.0869
     21 O          16.2831   70.8491   -7.0672 O.2     1  UNL1       -0.2464
     22 O          19.0135   70.2603  -10.5183 O.2     1  UNL1       -0.2670
     23 H          16.8316   70.4484   -9.4089 H       1  UNL1        0.1734
     24 O          21.4605   71.8086    0.5949 O.3     1  UNL1       -0.2703
     25 P          21.9170   72.2170    2.0841 P.3     1  UNL1        0.2208
     26 O          20.6391   72.1874    3.0638 O.3     1  UNL1       -0.4371
     27 O          22.9324   71.2570    2.5698 O.2     1  UNL1       -0.5170
     28 O          22.5451   73.6995    2.0652 O.3     1  UNL1       -0.2865
     29 C          23.3859   74.2020    3.1053 C.3     1  UNL1        0.2611
     30 C          22.6927   75.3761    3.8007 C.3     1  UNL1        0.1582
     31 C          22.4807   76.5053    2.7876 C.3     1  UNL1        0.1625
     32 C          23.8337   76.9014    2.1902 C.3     1  UNL1        0.1686
     33 C          24.4831   75.6681    1.5567 C.3     1  UNL1        0.1760
     34 O          21.9003   77.6339    3.4455 O.3     1  UNL1       -0.3801
     35 O          24.6806   77.4109    3.2219 O.3     1  UNL1       -0.3794
     36 O          24.6234   74.6452    2.5446 O.3     1  UNL1       -0.3263
     37 H          21.7374   78.3878    2.8622 H       1  UNL1        0.2105
     38 H          25.5571   77.6815    2.9144 H       1  UNL1        0.2105
     39 C          21.2927   74.5149    5.5996 C.2     1  UNL1        0.2231
     40 C          19.9603   74.0649    6.1389 C.3     1  UNL1        0.0946
     41 N          21.3963   74.9383    4.3244 N.am    1  UNL1       -0.2994
     42 O          22.2737   74.4963    6.3133 O.2     1  UNL1       -0.2751
     43 H          20.6124   74.9525    3.7532 H       1  UNL1        0.1496
     44 C          25.8620   76.0423    1.0099 C.3     1  UNL1        0.1693
     45 O          25.7824   76.2170   -0.4062 O.3     1  UNL1       -0.3794
     46 H          26.6223   76.4560   -0.8214 H       1  UNL1        0.2105
@<TRIPOS>BOND
     1    29    30    1
     2    30    41    1
     3    30    31    1
     4    31    34    1
     5    31    32    1
     6    32    35    1
     7    32    33    1
     8    33    36    1
     9    33    44    1
    10    39    40    1
    11    39    42    2
    12    39    41   am
    13    41    43    1
    14    29    28    1
    15    34    37    1
    16    35    38    1
    17    29    36    1
    18    44    45    1
    19    45    46    1
    20    15     6    1
    21    15    16   ar
    22    16    21    2
    23    16    17   ar
    24    17    23    1
    25    17    18   ar
    26    18    19   ar
    27    19    20   ar
    28    15    20   ar
    29    18    22    2
    30     6     7    1
    31     6    11    1
    32     7     9    1
    33     7     8    1
    34     8    13    1
    35     9    10    1
    36     9    12    1
    37    10     5    1
    38    10    11    1
    39    12    14    1
    40     5     4    1
    41     4     1    1
    42     1     2    1
    43     1    24    1
    44     1     3    2
    45    24    25    1
    46    28    25    1
    47    25    26    1
    48    25    27    2
@<TRIPOS>MOLECULE
UD2
 46 48 0 0 0
SMALL
GASTEIGER

@<TRIPOS>ATOM
      1 P          22.8394   72.0452   -3.2287 P.3     1  UNL1        0.2189
      2 O          23.4910   70.5736   -3.1930 O.3     1  UNL1       -0.4371
      3 O          23.4918   72.8487   -4.2858 O.2     1  UNL1       -0.5170
      4 O          21.2637   71.9268   -3.5399 O.3     1  UNL1       -0.3112
      5 C          20.2562   72.1979   -2.5637 C.3     1  UNL1        0.1811
      6 C          17.9845   71.4351   -5.2459 C.3     1  UNL1        0.2383
      7 C          17.9996   70.1551   -4.3721 C.3     1  UNL1        0.1895
      8 O          16.7402   69.4827   -4.4306 O.3     1  UNL1       -0.3779
      9 C          18.2536   70.7302   -2.9571 C.3     1  UNL1        0.1713
     10 C          18.8756   72.1150   -3.2196 C.3     1  UNL1        0.1764
     11 O          19.0008   72.2651   -4.6427 O.3     1  UNL1       -0.3308
     12 O          17.0230   70.8613   -2.2436 O.3     1  UNL1       -0.3794
     13 H          16.7001   68.6753   -3.9004 H       1  UNL1        0.2106
     14 H          16.5586   70.0253   -2.1020 H       1  UNL1        0.2105
     15 N          18.3332   71.1173   -6.6324 N.ar    1  UNL1       -0.2551
     16 C          17.3599   70.8336   -7.5161 C.ar    1  UNL1        0.3323
     17 N          17.6515   70.5378   -8.7966 N.ar    1  UNL1       -0.2743
     18 C          18.9334   70.5236   -9.2150 C.ar    1  UNL1        0.2626
     19 C          19.9679   70.8213   -8.2957 C.ar    1  UNL1        0.0795
     20 C          19.6465   71.1185   -7.0190 C.ar    1  UNL1        0.0869
     21 O          16.1996   70.8429   -7.1529 O.2     1  UNL1       -0.2464
     22 O          19.1986   70.2565  -10.3738 O.2     1  UNL1       -0.2670
     23 H          16.9376   70.3345   -9.4205 H       1  UNL1        0.1734
     24 O          23.0516   72.7612   -1.8019 O.3     1  UNL1       -0.2703
     25 P          23.1061   74.2962   -1.3186 P.3     1  UNL1        0.2208
     26 O          24.6039   74.8610   -1.4949 O.3     1  UNL1       -0.4371
     27 O          22.1753   75.1045   -2.1364 O.2     1  UNL1       -0.5170
     28 O          22.6769   74.3865    0.2307 O.3     1  UNL1       -0.2865
     29 C          23.3895   73.7223    1.2758 C.3     1  UNL1        0.2611
     30 C          22.4967   72.6470    1.8999 C.3     1  UNL1        0.1582
     31 C          21.2688   73.3154    2.5261 C.3     1  UNL1        0.1625
     32 C          21.7332   74.3521    3.5528 C.3     1  UNL1        0.1686
     33 C          22.6556   75.3619    2.8647 C.3     1  UNL1        0.1760
     34 O          20.4663   72.3266    3.1753 O.3     1  UNL1       -0.3801
     35 O          22.4424   73.6970    4.6059 O.3     1  UNL1       -0.3794
     36 O          23.7605   74.6721    2.2771 O.3     1  UNL1       -0.3263
     37 H          19.6696   72.6802    3.5940 H       1  UNL1        0.2105
     38 H          22.7673   74.2949    5.2935 H       1  UNL1        0.2105
     39 C          22.4965   70.4290    0.8910 C.2     1  UNL1        0.2231
     40 C          22.0544   69.4607   -0.1746 C.3     1  UNL1        0.0946
     41 N          22.0664   71.7058    0.8629 N.am    1  UNL1       -0.2994
     42 O          23.2405   70.0597    1.7755 O.2     1  UNL1       -0.2751
     43 H          21.4724   72.0017    0.1554 H       1  UNL1        0.1496
     44 C          23.1716   76.3666    3.8966 C.3     1  UNL1        0.1693
     45 O          22.1669   76.5909    4.8878 O.3     1  UNL1       -0.3794
     46 H          22.4258   77.2189    5.5760 H       1  UNL1        0.2105
@<TRIPOS>BOND
     1    29    30    1
     2    30    41    1
     3    30    31    1
     4    31    34    1
     5    31    32    1
     6    32    35    1
     7    32    33    1
     8    33    36    1
     9    33    44    1
    10    39    40    1
    11    39    42    2
    12    39    41   am
    13    41    43    1
    14    29    28    1
    15    34    37    1
    16    35    38    1
    17    29    36    1
    18    44    45    1
    19    45    46    1
    20    15     6    1
    21    15    16   ar
    22    16    21    2
    23    16    17   ar
    24    17    23    1
    25    17    18   ar
    26    18    19   ar
    27    19    20   ar
    28    15    20   ar
    29    18    22    2
    30     6     7    1
    31     6    11    1
    32     7     9    1
    33     7     8    1
    34     8    13    1
    35     9    10    1
    36     9    12    1
    37    10     5    1
    38    10    11    1
    39    12    14    1
    40     5     4    1
    41     4     1    1
    42     1     2    1
    43     1    24    1
    44     1     3    2
    45    24    25    1
    46    28    25    1
    47    25    26    1
    48    25    27    2
@<TRIPOS>MOLECULE
UD2
 46 48 0 0 0
SMALL
GASTEIGER

@<TRIPOS>ATOM
      1 P          22.1007   70.7137   -0.3679 P.3     1  UNL1        0.2189
      2 O          21.7434   69.4538    0.5682 O.3     1  UNL1       -0.4371
      3 O          23.2395   70.3686   -1.2471 O.2     1  UNL1       -0.5170
      4 O          20.8213   71.0916   -1.2701 O.3     1  UNL1       -0.3112
      5 C          20.8558   71.1107   -2.6984 C.3     1  UNL1        0.1811
      6 C          18.3114   71.0890   -5.2404 C.3     1  UNL1        0.2383
      7 C          18.1394   69.7355   -4.5052 C.3     1  UNL1        0.1895
      8 O          16.7739   69.3148   -4.5239 O.3     1  UNL1       -0.3779
      9 C          18.5893   70.0874   -3.0661 C.3     1  UNL1        0.1713
     10 C          19.4451   71.3568   -3.2391 C.3     1  UNL1        0.1764
     11 O          19.5040   71.6448   -4.6451 O.3     1  UNL1       -0.3308
     12 O          17.4550   70.3570   -2.2406 O.3     1  UNL1       -0.3794
     13 H          16.6154   68.4724   -4.0767 H       1  UNL1        0.2106
     14 H          16.8503   69.6089   -2.1453 H       1  UNL1        0.2105
     15 N          18.5026   70.8753   -6.6766 N.ar    1  UNL1       -0.2551
     16 C          17.4315   70.7632   -7.4821 C.ar    1  UNL1        0.3323
     17 N          17.5776   70.5662   -8.8058 N.ar    1  UNL1       -0.2743
     18 C          18.8097   70.4797   -9.3471 C.ar    1  UNL1        0.2626
     19 C          19.9461   70.5970   -8.5111 C.ar    1  UNL1        0.0795
     20 C          19.7701   70.7983   -7.1882 C.ar    1  UNL1        0.0869
     21 O          16.3145   70.8393   -7.0078 O.2     1  UNL1       -0.2464
     22 O          18.9433   70.3018  -10.5451 O.2     1  UNL1       -0.2670
     23 H          16.7946   70.4863   -9.3721 H       1  UNL1        0.1734
     24 O          22.4968   71.9729    0.5545 O.3     1  UNL1       -0.2703
     25 P          21.7511   72.7696    1.7386 P.3     1  UNL1        0.2208
     26 O          20.7692   73.8773    1.1040 O.3     1  UNL1       -0.4371
     27 O          20.9614   71.8193    2.5520 O.2     1  UNL1       -0.5170
     28 O          22.8463   73.4936    2.6709 O.3     1  UNL1       -0.2865
     29 C          22.7396   74.8580    3.0811 C.3     1  UNL1        0.2611
     30 C          24.1241   75.3865    3.4639 C.3     1  UNL1        0.1582
     31 C          24.6566   74.5831    4.6545 C.3     1  UNL1        0.1625
     32 C          23.6577   74.6815    5.8107 C.3     1  UNL1        0.1686
     33 C          22.2908   74.1800    5.3373 C.3     1  UNL1        0.1760
     34 O          25.9170   75.1176    5.0655 O.3     1  UNL1       -0.3801
     35 O          23.5479   76.0421    6.2326 O.3     1  UNL1       -0.3794
     36 O          21.8675   74.9489    4.2096 O.3     1  UNL1       -0.3263
     37 H          26.3137   74.6553    5.8165 H       1  UNL1        0.2105
     38 H          22.9295   76.1792    6.9638 H       1  UNL1        0.2105
     39 C          25.9265   76.2106    2.0461 C.2     1  UNL1        0.2231
     40 C          26.8643   76.0595    0.8772 C.3     1  UNL1        0.0946
     41 N          25.0359   75.2389    2.3266 N.am    1  UNL1       -0.2994
     42 O          25.9724   77.2077    2.7360 O.2     1  UNL1       -0.2751
     43 H          24.9981   74.4420    1.7747 H       1  UNL1        0.1496
     44 C          21.2725   74.3309    6.4690 C.3     1  UNL1        0.1693
     45 O          21.9321   74.1789    7.7277 O.3     1  UNL1       -0.3794
     46 H          21.3460   74.2625    8.4922 H       1  UNL1        0.2105
@<TRIPOS>BOND
     1    29    30    1
     2    30    41    1
     3    30    31    1
     4    31    34    1
     5    31    32    1
     6    32    35    1
     7    32    33    1
     8    33    36    1
     9    33    44    1
    10    39    40    1
    11    39    42    2
    12    39    41   am
    13    41    43    1
    14    29    28    1
    15    34    37    1
    16    35    38    1
    17    29    36    1
    18    44    45    1
    19    45    46    1
    20    15     6    1
    21    15    16   ar
    22    16    21    2
    23    16    17   ar
    24    17    23    1
    25    17    18   ar
    26    18    19   ar
    27    19    20   ar
    28    15    20   ar
    29    18    22    2
    30     6     7    1
    31     6    11    1
    32     7     9    1
    33     7     8    1
    34     8    13    1
    35     9    10    1
    36     9    12    1
    37    10     5    1
    38    10    11    1
    39    12    14    1
    40     5     4    1
    41     4     1    1
    42     1     2    1
    43     1    24    1
    44     1     3    2
    45    24    25    1
    46    28    25    1
    47    25    26    1
    48    25    27    2
@<TRIPOS>MOLECULE
UD2
 46 48 0 0 0
SMALL
GASTEIGER

@<TRIPOS>ATOM
      1 P          20.1625   70.5991   -2.5356 P.3     1  UNL1        0.2189
      2 O          19.3177   69.2793   -2.1673 O.3     1  UNL1       -0.4371
      3 O          21.2499   70.2437   -3.4737 O.2     1  UNL1       -0.5170
      4 O          19.1912   71.6828   -3.2255 O.3     1  UNL1       -0.3112
      5 C          19.4317   73.0900   -3.1680 C.3     1  UNL1        0.1811
      6 C          18.0763   73.3605   -6.4886 C.3     1  UNL1        0.2383
      7 C          16.9355   72.7268   -5.6524 C.3     1  UNL1        0.1895
      8 O          15.6565   73.1086   -6.1626 O.3     1  UNL1       -0.3779
      9 C          17.1779   73.3422   -4.2524 C.3     1  UNL1        0.1713
     10 C          18.6527   73.7863   -4.2866 C.3     1  UNL1        0.1764
     11 O          19.1853   73.4035   -5.5646 O.3     1  UNL1       -0.3308
     12 O          16.3211   74.4666   -4.0466 O.3     1  UNL1       -0.3794
     13 H          14.9105   72.7367   -5.6730 H       1  UNL1        0.2106
     14 H          15.3785   74.2542   -4.0745 H       1  UNL1        0.2105
     15 N          18.3984   72.5187   -7.6430 N.ar    1  UNL1       -0.2551
     16 C          18.5494   73.0802   -8.8557 C.ar    1  UNL1        0.3323
     17 N          18.8454   72.3308   -9.9341 N.ar    1  UNL1       -0.2743
     18 C          18.9977   70.9964   -9.8123 C.ar    1  UNL1        0.2626
     19 C          18.8426   70.3922   -8.5415 C.ar    1  UNL1        0.0795
     20 C          18.5500   71.1683   -7.4768 C.ar    1  UNL1        0.0869
     21 O          18.4152   74.2822   -8.9803 O.2     1  UNL1       -0.2464
     22 O          19.2660   70.3171  -10.7875 O.2     1  UNL1       -0.2670
     23 H          18.9496   72.7516  -10.8015 H       1  UNL1        0.1734
     24 O          20.7946   71.2241   -1.1928 O.3     1  UNL1       -0.2703
     25 P          21.9849   70.7774   -0.2045 P.3     1  UNL1        0.2208
     26 O          21.5683   69.4212    0.5577 O.3     1  UNL1       -0.4371
     27 O          23.2165   70.5429   -0.9897 O.2     1  UNL1       -0.5170
     28 O          22.2503   71.9411    0.8762 O.3     1  UNL1       -0.2865
     29 C          21.2188   72.8019    1.3624 C.3     1  UNL1        0.2611
     30 C          21.5213   74.2449    0.9516 C.3     1  UNL1        0.1582
     31 C          22.8381   74.6855    1.5984 C.3     1  UNL1        0.1625
     32 C          22.7270   74.5255    3.1171 C.3     1  UNL1        0.1686
     33 C          22.3781   73.0712    3.4445 C.3     1  UNL1        0.1760
     34 O          23.0912   76.0558    1.2797 O.3     1  UNL1       -0.3801
     35 O          21.7014   75.3869    3.6144 O.3     1  UNL1       -0.3794
     36 O          21.1597   72.7159    2.7877 O.3     1  UNL1       -0.3263
     37 H          23.9116   76.4018    1.6571 H       1  UNL1        0.2105
     38 H          21.5751   75.3370    4.5723 H       1  UNL1        0.2105
     39 C          22.8529   74.2278   -1.0890 C.2     1  UNL1        0.2231
     40 C          22.9773   74.3083   -2.5879 C.3     1  UNL1        0.0946
     41 N          21.6415   74.3236   -0.5065 N.am    1  UNL1       -0.2994
     42 O          23.8437   74.0766   -0.4052 O.2     1  UNL1       -0.2751
     43 H          20.8492   74.4455   -1.0528 H       1  UNL1        0.1496
     44 C          22.2066   72.9162    4.9568 C.3     1  UNL1        0.1693
     45 O          23.1267   73.7765    5.6319 O.3     1  UNL1       -0.3794
     46 H          23.0740   73.7303    6.5963 H       1  UNL1        0.2105
@<TRIPOS>BOND
     1    29    30    1
     2    30    41    1
     3    30    31    1
     4    31    34    1
     5    31    32    1
     6    32    35    1
     7    32    33    1
     8    33    36    1
     9    33    44    1
    10    39    40    1
    11    39    42    2
    12    39    41   am
    13    41    43    1
    14    29    28    1
    15    34    37    1
    16    35    38    1
    17    29    36    1
    18    44    45    1
    19    45    46    1
    20    15     6    1
    21    15    16   ar
    22    16    21    2
    23    16    17   ar
    24    17    23    1
    25    17    18   ar
    26    18    19   ar
    27    19    20   ar
    28    15    20   ar
    29    18    22    2
    30     6     7    1
    31     6    11    1
    32     7     9    1
    33     7     8    1
    34     8    13    1
    35     9    10    1
    36     9    12    1
    37    10     5    1
    38    10    11    1
    39    12    14    1
    40     5     4    1
    41     4     1    1
    42     1     2    1
    43     1    24    1
    44     1     3    2
    45    24    25    1
    46    28    25    1
    47    25    26    1
    48    25    27    2
@<TRIPOS>MOLECULE
UD2
 46 48 0 0 0
SMALL
GASTEIGER

@<TRIPOS>ATOM
      1 P          21.8096   70.5465   -0.1773 P.3     1  UNL1        0.2189
      2 O          22.0999   69.0574    0.3608 O.3     1  UNL1       -0.4371
      3 O          23.0490   71.1145   -0.7517 O.2     1  UNL1       -0.5170
      4 O          20.6674   70.4939   -1.3115 O.3     1  UNL1       -0.3112
      5 C          20.7823   71.1747   -2.5624 C.3     1  UNL1        0.1811
      6 C          18.2838   71.1599   -5.1496 C.3     1  UNL1        0.2383
      7 C          18.0786   69.8178   -4.4020 C.3     1  UNL1        0.1895
      8 O          16.7076   69.4170   -4.4404 O.3     1  UNL1       -0.3779
      9 C          18.5079   70.1803   -2.9591 C.3     1  UNL1        0.1713
     10 C          19.3854   71.4349   -3.1313 C.3     1  UNL1        0.1764
     11 O          19.4736   71.7053   -4.5393 O.3     1  UNL1       -0.3308
     12 O          17.3631   70.4762   -2.1575 O.3     1  UNL1       -0.3794
     13 H          16.5288   68.5823   -3.9864 H       1  UNL1        0.2106
     14 H          16.7458   69.7382   -2.0644 H       1  UNL1        0.2105
     15 N          18.4975   70.9263   -6.5795 N.ar    1  UNL1       -0.2551
     16 C          17.4394   70.8195   -7.4028 C.ar    1  UNL1        0.3323
     17 N          17.6063   70.6047   -8.7212 N.ar    1  UNL1       -0.2743
     18 C          18.8465   70.4946   -9.2393 C.ar    1  UNL1        0.2626
     19 C          19.9694   70.6060   -8.3844 C.ar    1  UNL1        0.0795
     20 C          19.7727   70.8257   -7.0673 C.ar    1  UNL1        0.0869
     21 O          16.3154   70.9169   -6.9495 O.2     1  UNL1       -0.2464
     22 O          18.9989   70.3005  -10.4324 O.2     1  UNL1       -0.2670
     23 H          16.8325   70.5289   -9.3005 H       1  UNL1        0.1734
     24 O          21.3106   71.4708    1.0433 O.3     1  UNL1       -0.2703
     25 P          21.3578   73.0529    1.3394 P.3     1  UNL1        0.2208
     26 O          22.8776   73.5740    1.2288 O.3     1  UNL1       -0.4371
     27 O          20.5195   73.7653    0.3504 O.2     1  UNL1       -0.5170
     28 O          20.7987   73.3382    2.8222 O.3     1  UNL1       -0.2865
     29 C          20.7162   74.6492    3.3841 C.3     1  UNL1        0.2611
     30 C          21.6053   74.7294    4.6275 C.3     1  UNL1        0.1582
     31 C          21.0902   73.7400    5.6774 C.3     1  UNL1        0.1625
     32 C          19.6257   74.0597    5.9894 C.3     1  UNL1        0.1686
     33 C          18.8128   74.0053    4.6932 C.3     1  UNL1        0.1760
     34 O          21.8698   73.8605    6.8695 O.3     1  UNL1       -0.3801
     35 O          19.5328   75.3673    6.5576 O.3     1  UNL1       -0.3794
     36 O          19.3626   74.9263    3.7491 O.3     1  UNL1       -0.3263
     37 H          21.5988   73.2612    7.5784 H       1  UNL1        0.2105
     38 H          18.6307   75.6371    6.7800 H       1  UNL1        0.2105
     39 C          24.0121   75.0539    4.8260 C.2     1  UNL1        0.2231
     40 C          25.4291   74.7025    4.4557 C.3     1  UNL1        0.0946
     41 N          22.9833   74.3871    4.2665 N.am    1  UNL1       -0.2994
     42 O          23.7962   75.9380    5.6285 O.2     1  UNL1       -0.2751
     43 H          23.1555   73.6809    3.6241 H       1  UNL1        0.1496
     44 C          17.3594   74.3820    4.9868 C.3     1  UNL1        0.1693
     45 O          17.1923   75.7932    4.8350 O.3     1  UNL1       -0.3794
     46 H          16.2928   76.1040    5.0062 H       1  UNL1        0.2105
@<TRIPOS>BOND
     1    29    30    1
     2    30    41    1
     3    30    31    1
     4    31    34    1
     5    31    32    1
     6    32    35    1
     7    32    33    1
     8    33    36    1
     9    33    44    1
    10    39    40    1
    11    39    42    2
    12    39    41   am
    13    41    43    1
    14    29    28    1
    15    34    37    1
    16    35    38    1
    17    29    36    1
    18    44    45    1
    19    45    46    1
    20    15     6    1
    21    15    16   ar
    22    16    21    2
    23    16    17   ar
    24    17    23    1
    25    17    18   ar
    26    18    19   ar
    27    19    20   ar
    28    15    20   ar
    29    18    22    2
    30     6     7    1
    31     6    11    1
    32     7     9    1
    33     7     8    1
    34     8    13    1
    35     9    10    1
    36     9    12    1
    37    10     5    1
    38    10    11    1
    39    12    14    1
    40     5     4    1
    41     4     1    1
    42     1     2    1
    43     1    24    1
    44     1     3    2
    45    24    25    1
    46    28    25    1
    47    25    26    1
    48    25    27    2
@<TRIPOS>MOLECULE
UD2
 46 48 0 0 0
SMALL
GASTEIGER

@<TRIPOS>ATOM
      1 P          21.7500   70.5649   -0.3052 P.3     1  UNL1        0.2189
      2 O          21.7521   69.1694    0.4973 O.3     1  UNL1       -0.4371
      3 O          23.1013   70.8239   -0.8491 O.2     1  UNL1       -0.5170
      4 O          20.6903   70.4862   -1.5154 O.3     1  UNL1       -0.3112
      5 C          20.7341   71.3603   -2.6448 C.3     1  UNL1        0.1811
      6 C          18.2414   71.1520   -5.2293 C.3     1  UNL1        0.2383
      7 C          18.1189   69.8116   -4.4608 C.3     1  UNL1        0.1895
      8 O          16.7751   69.3269   -4.4918 O.3     1  UNL1       -0.3779
      9 C          18.5250   70.2221   -3.0241 C.3     1  UNL1        0.1713
     10 C          19.3238   71.5254   -3.2165 C.3     1  UNL1        0.1764
     11 O          19.3955   71.7788   -4.6286 O.3     1  UNL1       -0.3308
     12 O          17.3641   70.4596   -2.2262 O.3     1  UNL1       -0.3794
     13 H          16.6477   68.4900   -4.0248 H       1  UNL1        0.2106
     14 H          16.7932   69.6867   -2.1212 H       1  UNL1        0.2105
     15 N          18.4692   70.9098   -6.6556 N.ar    1  UNL1       -0.2551
     16 C          17.4189   70.7720   -7.4843 C.ar    1  UNL1        0.3323
     17 N          17.5987   70.5485   -8.7995 N.ar    1  UNL1       -0.2743
     18 C          18.8442   70.4609   -9.3090 C.ar    1  UNL1        0.2626
     19 C          19.9590   70.6051   -8.4484 C.ar    1  UNL1        0.0795
     20 C          19.7493   70.8326   -7.1347 C.ar    1  UNL1        0.0869
     21 O          16.2901   70.8489   -7.0388 O.2     1  UNL1       -0.2464
     22 O          19.0084   70.2591  -10.4993 O.2     1  UNL1       -0.2670
     23 H          16.8304   70.4503   -9.3828 H       1  UNL1        0.1734
     24 O          21.3353   71.7581    0.6935 O.3     1  UNL1       -0.2703
     25 P          21.5665   73.3517    0.6881 P.3     1  UNL1        0.2208
     26 O          23.1051   73.6690    0.3336 O.3     1  UNL1       -0.4371
     27 O          20.6886   73.9743   -0.3268 O.2     1  UNL1       -0.5170
     28 O          21.2158   73.9497    2.1414 O.3     1  UNL1       -0.2865
     29 C          21.3030   73.1798    3.3417 C.3     1  UNL1        0.2611
     30 C          20.4619   73.8417    4.4359 C.3     1  UNL1        0.1582
     31 C          21.0300   75.2328    4.7333 C.3     1  UNL1        0.1625
     32 C          22.5013   75.0965    5.1348 C.3     1  UNL1        0.1686
     33 C          23.2639   74.3861    4.0133 C.3     1  UNL1        0.1760
     34 O          20.2957   75.8290    5.8050 O.3     1  UNL1       -0.3801
     35 O          22.5992   74.3325    6.3381 O.3     1  UNL1       -0.3794
     36 O          22.6661   73.1120    3.7657 O.3     1  UNL1       -0.3263
     37 H          20.6018   76.7140    6.0465 H       1  UNL1        0.2105
     38 H          23.5056   74.2053    6.6514 H       1  UNL1        0.2105
     39 C          18.6744   75.0824    3.3389 C.2     1  UNL1        0.2231
     40 C          17.2493   75.2113    2.8688 C.3     1  UNL1        0.0946
     41 N          19.0754   73.9664    3.9791 N.am    1  UNL1       -0.2994
     42 O          19.4623   75.9837    3.1415 O.2     1  UNL1       -0.2751
     43 H          18.4455   73.2459    4.1380 H       1  UNL1        0.1496
     44 C          24.7226   74.1926    4.4320 C.3     1  UNL1        0.1693
     45 O          25.0797   75.1893    5.3919 O.3     1  UNL1       -0.3794
     46 H          25.9932   75.1275    5.7027 H       1  UNL1        0.2105
@<TRIPOS>BOND
     1    29    30    1
     2    30    41    1
     3    30    31    1
     4    31    34    1
     5    31    32    1
     6    32    35    1
     7    32    33    1
     8    33    36    1
     9    33    44    1
    10    39    40    1
    11    39    42    2
    12    39    41   am
    13    41    43    1
    14    29    28    1
    15    34    37    1
    16    35    38    1
    17    29    36    1
    18    44    45    1
    19    45    46    1
    20    15     6    1
    21    15    16   ar
    22    16    21    2
    23    16    17   ar
    24    17    23    1
    25    17    18   ar
    26    18    19   ar
    27    19    20   ar
    28    15    20   ar
    29    18    22    2
    30     6     7    1
    31     6    11    1
    32     7     9    1
    33     7     8    1
    34     8    13    1
    35     9    10    1
    36     9    12    1
    37    10     5    1
    38    10    11    1
    39    12    14    1
    40     5     4    1
    41     4     1    1
    42     1     2    1
    43     1    24    1
    44     1     3    2
    45    24    25    1
    46    28    25    1
    47    25    26    1
    48    25    27    2
@<TRIPOS>MOLECULE
UD2
 46 48 0 0 0
SMALL
GASTEIGER

@<TRIPOS>ATOM
      1 P          23.0181   72.5852   -3.7530 P.3     1  UNL1        0.2189
      2 O          24.1728   73.6613   -3.4366 O.3     1  UNL1       -0.4371
      3 O          23.5394   71.2196   -3.5242 O.2     1  UNL1       -0.5170
      4 O          21.7592   72.8485   -2.7837 O.3     1  UNL1       -0.3112
      5 C          21.8759   73.5013   -1.5182 C.3     1  UNL1        0.1811
      6 C          23.1544   72.3149    1.6274 C.3     1  UNL1        0.2383
      7 C          22.1972   71.1942    1.1481 C.3     1  UNL1        0.1895
      8 O          22.6376   69.9155    1.6094 O.3     1  UNL1       -0.3779
      9 C          22.3197   71.2982   -0.3918 C.3     1  UNL1        0.1713
     10 C          22.8521   72.7239   -0.6317 C.3     1  UNL1        0.1764
     11 O          22.9613   73.3613    0.6509 O.3     1  UNL1       -0.3308
     12 O          23.2455   70.3285   -0.8852 O.3     1  UNL1       -0.3794
     13 H          22.0707   69.1817    1.3357 H       1  UNL1        0.2106
     14 H          22.9890   69.4133   -0.7089 H       1  UNL1        0.2105
     15 N          22.7763   72.7797    2.9638 N.ar    1  UNL1       -0.2551
     16 C          21.5510   72.5023    3.4439 C.ar    1  UNL1        0.3323
     17 N          21.1765   72.9171    4.6687 N.ar    1  UNL1       -0.2743
     18 C          22.0320   73.6205    5.4380 C.ar    1  UNL1        0.2626
     19 C          23.3254   73.9187    4.9456 C.ar    1  UNL1        0.0795
     20 C          23.6755   73.4867    3.7159 C.ar    1  UNL1        0.0869
     21 O          20.7693   71.8688    2.7613 O.2     1  UNL1       -0.2464
     22 O          21.6945   73.9961    6.5468 O.2     1  UNL1       -0.2670
     23 H          20.2889   72.7095    4.9990 H       1  UNL1        0.1734
     24 O          22.5529   72.7323   -5.2877 O.3     1  UNL1       -0.2703
     25 P          21.3489   73.5104   -6.0211 P.3     1  UNL1        0.2208
     26 O          21.0760   74.9076   -5.2681 O.3     1  UNL1       -0.4371
     27 O          21.7167   73.7734   -7.4296 O.2     1  UNL1       -0.5170
     28 O          20.0177   72.6057   -5.9735 O.3     1  UNL1       -0.2865
     29 C          18.7536   73.0544   -6.4654 C.3     1  UNL1        0.2611
     30 C          17.6449   72.1442   -5.9312 C.3     1  UNL1        0.1582
     31 C          17.8686   70.7215   -6.4529 C.3     1  UNL1        0.1625
     32 C          17.9085   70.7508   -7.9832 C.3     1  UNL1        0.1686
     33 C          19.0074   71.7148   -8.4383 C.3     1  UNL1        0.1760
     34 O          16.7973   69.8803   -6.0191 O.3     1  UNL1       -0.3801
     35 O          16.6463   71.1930   -8.4856 O.3     1  UNL1       -0.3794
     36 O          18.7564   73.0119   -7.8938 O.3     1  UNL1       -0.3263
     37 H          16.8747   68.9624   -6.3134 H       1  UNL1        0.2105
     38 H          16.5998   71.2365   -9.4510 H       1  UNL1        0.2105
     39 C          16.5280   72.1596   -3.7656 C.2     1  UNL1        0.2231
     40 C          16.5620   72.1547   -2.2598 C.3     1  UNL1        0.0946
     41 N          17.6788   72.1397   -4.4665 N.am    1  UNL1       -0.2994
     42 O          15.4641   72.1816   -4.3484 O.2     1  UNL1       -0.2751
     43 H          18.5297   72.1232   -4.0009 H       1  UNL1        0.1496
     44 C          19.0142   71.7952   -9.9661 C.3     1  UNL1        0.1693
     45 O          18.2577   72.9321  -10.3874 O.3     1  UNL1       -0.3794
     46 H          18.2189   73.0459  -11.3468 H       1  UNL1        0.2105
@<TRIPOS>BOND
     1    29    30    1
     2    30    41    1
     3    30    31    1
     4    31    34    1
     5    31    32    1
     6    32    35    1
     7    32    33    1
     8    33    36    1
     9    33    44    1
    10    39    40    1
    11    39    42    2
    12    39    41   am
    13    41    43    1
    14    29    28    1
    15    34    37    1
    16    35    38    1
    17    29    36    1
    18    44    45    1
    19    45    46    1
    20    15     6    1
    21    15    16   ar
    22    16    21    2
    23    16    17   ar
    24    17    23    1
    25    17    18   ar
    26    18    19   ar
    27    19    20   ar
    28    15    20   ar
    29    18    22    2
    30     6     7    1
    31     6    11    1
    32     7     9    1
    33     7     8    1
    34     8    13    1
    35     9    10    1
    36     9    12    1
    37    10     5    1
    38    10    11    1
    39    12    14    1
    40     5     4    1
    41     4     1    1
    42     1     2    1
    43     1    24    1
    44     1     3    2
    45    24    25    1
    46    28    25    1
    47    25    26    1
    48    25    27    2
@<TRIPOS>MOLECULE
UD2
 46 48 0 0 0
SMALL
GASTEIGER

@<TRIPOS>ATOM
      1 P          21.4879   73.1553   -7.8117 P.3     1  UNL1        0.2189
      2 O          20.4428   74.0208   -6.9457 O.3     1  UNL1       -0.4371
      3 O          22.5111   72.5745   -6.9146 O.2     1  UNL1       -0.5170
      4 O          20.7043   71.9703   -8.5703 O.3     1  UNL1       -0.3112
      5 C          19.4491   72.1633   -9.2251 C.3     1  UNL1        0.1811
      6 C          17.9595   70.6538   -6.3200 C.3     1  UNL1        0.2383
      7 C          17.3551   72.0801   -6.3714 C.3     1  UNL1        0.1895
      8 O          16.0346   72.0944   -5.8257 O.3     1  UNL1       -0.3779
      9 C          17.3272   72.3670   -7.8927 C.3     1  UNL1        0.1713
     10 C          18.3608   71.3868   -8.4797 C.3     1  UNL1        0.1764
     11 O          18.9403   70.6668   -7.3800 O.3     1  UNL1       -0.3308
     12 O          16.0284   72.1038   -8.4262 O.3     1  UNL1       -0.3794
     13 H          15.6143   72.9650   -5.8350 H       1  UNL1        0.2106
     14 H          15.3284   72.6527   -8.0481 H       1  UNL1        0.2105
     15 N          18.6012   70.4118   -5.0259 N.ar    1  UNL1       -0.2551
     16 C          17.8986   69.8438   -4.0296 C.ar    1  UNL1        0.3323
     17 N          18.4628   69.6099   -2.8299 N.ar    1  UNL1       -0.2743
     18 C          19.7508   69.9427   -2.6091 C.ar    1  UNL1        0.2626
     19 C          20.5025   70.5404   -3.6493 C.ar    1  UNL1        0.0795
     20 C          19.9126   70.7594   -4.8433 C.ar    1  UNL1        0.0869
     21 O          16.7364   69.5384   -4.2146 O.2     1  UNL1       -0.2464
     22 O          20.2627   69.7312   -1.5239 O.2     1  UNL1       -0.2670
     23 H          17.9416   69.2007   -2.1221 H       1  UNL1        0.1734
     24 O          22.2028   74.1060   -8.8973 O.3     1  UNL1       -0.2703
     25 P          22.7932   75.6035   -8.8553 P.3     1  UNL1        0.2208
     26 O          21.5787   76.6559   -8.7493 O.3     1  UNL1       -0.4371
     27 O          23.6781   75.7524   -7.6793 O.2     1  UNL1       -0.5170
     28 O          23.6336   75.8868  -10.1992 O.3     1  UNL1       -0.2865
     29 C          24.7039   75.0489  -10.6392 C.3     1  UNL1        0.2611
     30 C          26.0047   75.8550  -10.6703 C.3     1  UNL1        0.1582
     31 C          25.8631   76.9976  -11.6806 C.3     1  UNL1        0.1625
     32 C          25.5100   76.4125  -13.0507 C.3     1  UNL1        0.1686
     33 C          24.2279   75.5847  -12.9278 C.3     1  UNL1        0.1760
     34 O          27.0984   77.7113  -11.7700 O.3     1  UNL1       -0.3801
     35 O          26.5771   75.5769  -13.5027 O.3     1  UNL1       -0.3794
     36 O          24.4167   74.5592  -11.9507 O.3     1  UNL1       -0.3263
     37 H          27.0806   78.4510  -12.3927 H       1  UNL1        0.2105
     38 H          26.4207   75.1709  -14.3668 H       1  UNL1        0.2105
     39 C          27.2194   75.8575   -8.5579 C.2     1  UNL1        0.2231
     40 C          27.4925   76.4255   -7.1899 C.3     1  UNL1        0.0946
     41 N          26.2696   76.4079   -9.3396 N.am    1  UNL1       -0.2994
     42 O          27.8546   74.9038   -8.9568 O.2     1  UNL1       -0.2751
     43 H          25.7608   77.1697   -9.0207 H       1  UNL1        0.1496
     44 C          23.9009   74.9476  -14.2797 C.3     1  UNL1        0.1693
     45 O          24.3359   75.8114  -15.3319 O.3     1  UNL1       -0.3794
     46 H          24.1603   75.4702  -16.2195 H       1  UNL1        0.2105
@<TRIPOS>BOND
     1    29    30    1
     2    30    41    1
     3    30    31    1
     4    31    34    1
     5    31    32    1
     6    32    35    1
     7    32    33    1
     8    33    36    1
     9    33    44    1
    10    39    40    1
    11    39    42    2
    12    39    41   am
    13    41    43    1
    14    29    28    1
    15    34    37    1
    16    35    38    1
    17    29    36    1
    18    44    45    1
    19    45    46    1
    20    15     6    1
    21    15    16   ar
    22    16    21    2
    23    16    17   ar
    24    17    23    1
    25    17    18   ar
    26    18    19   ar
    27    19    20   ar
    28    15    20   ar
    29    18    22    2
    30     6     7    1
    31     6    11    1
    32     7     9    1
    33     7     8    1
    34     8    13    1
    35     9    10    1
    36     9    12    1
    37    10     5    1
    38    10    11    1
    39    12    14    1
    40     5     4    1
    41     4     1    1
    42     1     2    1
    43     1    24    1
    44     1     3    2
    45    24    25    1
    46    28    25    1
    47    25    26    1
    48    25    27    2
@<TRIPOS>MOLECULE
UD2
 46 48 0 0 0
SMALL
GASTEIGER

@<TRIPOS>ATOM
      1 P          22.0537   70.8261   -2.6676 P.3     1  UNL1        0.2189
      2 O          23.5270   70.6969   -3.3033 O.3     1  UNL1       -0.4371
      3 O          21.2823   69.5967   -2.9546 O.2     1  UNL1       -0.5170
      4 O          22.1727   71.0254   -1.0739 O.3     1  UNL1       -0.3112
      5 C          21.0726   71.4303   -0.2571 C.3     1  UNL1        0.1811
      6 C          21.6551   74.2090    1.9511 C.3     1  UNL1        0.2383
      7 C          23.0480   73.8893    1.3512 C.3     1  UNL1        0.1895
      8 O          23.8444   75.0716    1.2524 O.3     1  UNL1       -0.3779
      9 C          22.6814   73.3512   -0.0536 C.3     1  UNL1        0.1713
     10 C          21.2095   72.9167    0.0820 C.3     1  UNL1        0.1764
     11 O          20.8199   73.1448    1.4457 O.3     1  UNL1       -0.3308
     12 O          22.8105   74.3835   -1.0326 O.3     1  UNL1       -0.3794
     13 H          24.7254   74.9229    0.8831 H       1  UNL1        0.2106
     14 H          23.7066   74.7359   -1.1179 H       1  UNL1        0.2105
     15 N          21.7040   74.1763    3.4145 N.ar    1  UNL1       -0.2551
     16 C          21.8416   72.9993    4.0505 C.ar    1  UNL1        0.3323
     17 N          21.8892   72.9395    5.3946 N.ar    1  UNL1       -0.2743
     18 C          21.8007   74.0678    6.1277 C.ar    1  UNL1        0.2626
     19 C          21.6565   75.3138    5.4713 C.ar    1  UNL1        0.0795
     20 C          21.6160   75.3446    4.1226 C.ar    1  UNL1        0.0869
     21 O          21.9229   71.9739    3.4022 O.2     1  UNL1       -0.2464
     22 O          21.8441   74.0151    7.3442 O.2     1  UNL1       -0.2670
     23 H          21.9876   72.0824    5.8372 H       1  UNL1        0.1734
     24 O          21.3005   72.0954   -3.3116 O.3     1  UNL1       -0.2703
     25 P          21.2608   72.7422   -4.7858 P.3     1  UNL1        0.2208
     26 O          20.8850   74.3044   -4.6760 O.3     1  UNL1       -0.4371
     27 O          22.5877   72.5984   -5.4237 O.2     1  UNL1       -0.5170
     28 O          20.1525   71.9843   -5.6746 O.3     1  UNL1       -0.2865
     29 C          19.0216   72.6486   -6.2412 C.3     1  UNL1        0.2611
     30 C          17.7385   71.9410   -5.7989 C.3     1  UNL1        0.1582
     31 C          17.7486   70.5045   -6.3307 C.3     1  UNL1        0.1625
     32 C          17.8983   70.5366   -7.8541 C.3     1  UNL1        0.1686
     33 C          19.1756   71.2985   -8.2172 C.3     1  UNL1        0.1760
     34 O          16.5211   69.8590   -5.9848 O.3     1  UNL1       -0.3801
     35 O          16.7688   71.1943   -8.4313 O.3     1  UNL1       -0.3794
     36 O          19.1153   72.6158   -7.6668 O.3     1  UNL1       -0.3263
     37 H          16.4589   68.9435   -6.2902 H       1  UNL1        0.2105
     38 H          16.7971   71.2516   -9.3966 H       1  UNL1        0.2105
     39 C          16.4855   72.0815   -3.7137 C.2     1  UNL1        0.2231
     40 C          16.4145   72.0608   -2.2094 C.3     1  UNL1        0.0946
     41 N          17.6703   71.9210   -4.3355 N.am    1  UNL1       -0.2994
     42 O          15.4757   72.2428   -4.3667 O.2     1  UNL1       -0.2751
     43 H          18.4781   71.7930   -3.8139 H       1  UNL1        0.1496
     44 C          19.3013   71.3866   -9.7394 C.3     1  UNL1        0.1693
     45 O          18.5267   72.4876  -10.2191 O.3     1  UNL1       -0.3794
     46 H          18.5597   72.6040  -11.1785 H       1  UNL1        0.2105
@<TRIPOS>BOND
     1    29    30    1
     2    30    41    1
     3    30    31    1
     4    31    34    1
     5    31    32    1
     6    32    35    1
     7    32    33    1
     8    33    36    1
     9    33    44    1
    10    39    40    1
    11    39    42    2
    12    39    41   am
    13    41    43    1
    14    29    28    1
    15    34    37    1
    16    35    38    1
    17    29    36    1
    18    44    45    1
    19    45    46    1
    20    15     6    1
    21    15    16   ar
    22    16    21    2
    23    16    17   ar
    24    17    23    1
    25    17    18   ar
    26    18    19   ar
    27    19    20   ar
    28    15    20   ar
    29    18    22    2
    30     6     7    1
    31     6    11    1
    32     7     9    1
    33     7     8    1
    34     8    13    1
    35     9    10    1
    36     9    12    1
    37    10     5    1
    38    10    11    1
    39    12    14    1
    40     5     4    1
    41     4     1    1
    42     1     2    1
    43     1    24    1
    44     1     3    2
    45    24    25    1
    46    28    25    1
    47    25    26    1
    48    25    27    2
@<TRIPOS>MOLECULE
UD2
 46 48 0 0 0
SMALL
GASTEIGER

@<TRIPOS>ATOM
      1 P          22.6266   70.4363   -0.1594 P.3     1  UNL1        0.2189
      2 O          21.3303   69.6572    0.3919 O.3     1  UNL1       -0.4371
      3 O          23.8425   69.6515    0.1481 O.2     1  UNL1       -0.5170
      4 O          22.4999   70.6275   -1.7534 O.3     1  UNL1       -0.3112
      5 C          21.2563   70.5354   -2.4508 C.3     1  UNL1        0.1811
      6 C          20.1620   72.5795   -5.2006 C.3     1  UNL1        0.2383
      7 C          18.8962   72.3927   -4.3260 C.3     1  UNL1        0.1895
      8 O          18.0372   73.5304   -4.4224 O.3     1  UNL1       -0.3779
      9 C          19.4979   72.2737   -2.9042 C.3     1  UNL1        0.1713
     10 C          20.9634   71.8660   -3.1484 C.3     1  UNL1        0.1764
     11 O          21.1368   71.7226   -4.5672 O.3     1  UNL1       -0.3308
     12 O          19.4339   73.5308   -2.2287 O.3     1  UNL1       -0.3794
     13 H          17.2311   73.4610   -3.8932 H       1  UNL1        0.2106
     14 H          18.5356   73.8642   -2.1008 H       1  UNL1        0.2105
     15 N          19.9078   72.1439   -6.5756 N.ar    1  UNL1       -0.2551
     16 C          19.0009   71.1794   -6.8122 C.ar    1  UNL1        0.3323
     17 N          18.7471   70.7594   -8.0658 N.ar    1  UNL1       -0.2743
     18 C          19.4026   71.3055   -9.1102 C.ar    1  UNL1        0.2626
     19 C          20.3591   72.3224   -8.8758 C.ar    1  UNL1        0.0795
     20 C          20.5904   72.7270   -7.6091 C.ar    1  UNL1        0.0869
     21 O          18.4022   70.6782   -5.8801 O.2     1  UNL1       -0.2464
     22 O          19.1735   70.9266  -10.2454 O.2     1  UNL1       -0.2670
     23 H          18.0910   70.0622   -8.2186 H       1  UNL1        0.1734
     24 O          22.7262   71.8799    0.5473 O.3     1  UNL1       -0.2703
     25 P          21.7719   72.7015    1.5510 P.3     1  UNL1        0.2208
     26 O          20.6547   73.4918    0.7020 O.3     1  UNL1       -0.4371
     27 O          21.1098   71.7621    2.4823 O.2     1  UNL1       -0.5170
     28 O          22.6551   73.7555    2.3888 O.3     1  UNL1       -0.2865
     29 C          22.9782   73.5769    3.7690 C.3     1  UNL1        0.2611
     30 C          22.1281   74.5237    4.6197 C.3     1  UNL1        0.1582
     31 C          22.4635   75.9711    4.2470 C.3     1  UNL1        0.1625
     32 C          23.9641   76.2030    4.4440 C.3     1  UNL1        0.1686
     33 C          24.7436   75.1912    3.5998 C.3     1  UNL1        0.1760
     34 O          21.7280   76.8631    5.0877 O.3     1  UNL1       -0.3801
     35 O          24.2969   76.0324    5.8229 O.3     1  UNL1       -0.3794
     36 O          24.3624   73.8661    3.9751 O.3     1  UNL1       -0.3263
     37 H          21.8915   77.7987    4.9061 H       1  UNL1        0.2105
     38 H          25.2346   76.1640    6.0211 H       1  UNL1        0.2105
     39 C          19.8705   74.0317    5.3934 C.2     1  UNL1        0.2231
     40 C          18.4104   73.7700    5.1321 C.3     1  UNL1        0.0946
     41 N          20.7081   74.2689    4.3647 N.am    1  UNL1       -0.2994
     42 O          20.2933   74.0291    6.5306 O.2     1  UNL1       -0.2751
     43 H          20.3706   74.2701    3.4552 H       1  UNL1        0.1496
     44 C          26.2434   75.3773    3.8370 C.3     1  UNL1        0.1693
     45 O          26.4594   75.8707    5.1608 O.3     1  UNL1       -0.3794
     46 H          27.3902   76.0127    5.3812 H       1  UNL1        0.2105
@<TRIPOS>BOND
     1    29    30    1
     2    30    41    1
     3    30    31    1
     4    31    34    1
     5    31    32    1
     6    32    35    1
     7    32    33    1
     8    33    36    1
     9    33    44    1
    10    39    40    1
    11    39    42    2
    12    39    41   am
    13    41    43    1
    14    29    28    1
    15    34    37    1
    16    35    38    1
    17    29    36    1
    18    44    45    1
    19    45    46    1
    20    15     6    1
    21    15    16   ar
    22    16    21    2
    23    16    17   ar
    24    17    23    1
    25    17    18   ar
    26    18    19   ar
    27    19    20   ar
    28    15    20   ar
    29    18    22    2
    30     6     7    1
    31     6    11    1
    32     7     9    1
    33     7     8    1
    34     8    13    1
    35     9    10    1
    36     9    12    1
    37    10     5    1
    38    10    11    1
    39    12    14    1
    40     5     4    1
    41     4     1    1
    42     1     2    1
    43     1    24    1
    44     1     3    2
    45    24    25    1
    46    28    25    1
    47    25    26    1
    48    25    27    2
@<TRIPOS>MOLECULE
UD2
 46 48 0 0 0
SMALL
GASTEIGER

@<TRIPOS>ATOM
      1 P          23.5823   74.0159   -3.7350 P.3     1  UNL1        0.2189
      2 O          23.0451   75.5122   -3.9878 O.3     1  UNL1       -0.4371
      3 O          25.0485   73.9781   -3.9292 O.2     1  UNL1       -0.5170
      4 O          23.2285   73.5661   -2.2296 O.3     1  UNL1       -0.3112
      5 C          22.2658   72.5547   -1.9267 C.3     1  UNL1        0.1811
      6 C          20.6996   73.8078    1.0589 C.3     1  UNL1        0.2383
      7 C          21.3323   75.0580    0.3965 C.3     1  UNL1        0.1895
      8 O          20.5686   76.2304    0.6865 O.3     1  UNL1       -0.3779
      9 C          21.2517   74.7046   -1.1088 C.3     1  UNL1        0.1713
     10 C          21.1139   73.1702   -1.1284 C.3     1  UNL1        0.1764
     11 O          21.1672   72.7184    0.2341 O.3     1  UNL1       -0.3308
     12 O          20.1071   75.3177   -1.7046 O.3     1  UNL1       -0.3794
     13 H          20.9248   77.0391    0.2944 H       1  UNL1        0.2106
     14 H          20.1132   76.2836   -1.6671 H       1  UNL1        0.2105
     15 N          21.1775   73.6555    2.4349 N.ar    1  UNL1       -0.2551
     16 C          21.4097   72.4258    2.9275 C.ar    1  UNL1        0.3323
     17 N          21.8490   72.2561    4.1886 N.ar    1  UNL1       -0.2743
     18 C          22.0660   73.3253    4.9813 C.ar    1  UNL1        0.2626
     19 C          21.8268   74.6257    4.4754 C.ar    1  UNL1        0.0795
     20 C          21.3906   74.7664    3.2060 C.ar    1  UNL1        0.0869
     21 O          21.2185   71.4526    2.2240 O.2     1  UNL1       -0.2464
     22 O          22.4640   73.1732    6.1228 O.2     1  UNL1       -0.2670
     23 H          22.0102   71.3624    4.5284 H       1  UNL1        0.1734
     24 O          22.8766   73.0091   -4.7751 O.3     1  UNL1       -0.2703
     25 P          21.9996   73.2147   -6.1098 P.3     1  UNL1        0.2208
     26 O          21.7100   74.7843   -6.3247 O.3     1  UNL1       -0.4371
     27 O          22.7428   72.6868   -7.2749 O.2     1  UNL1       -0.5170
     28 O          20.6035   72.4264   -5.9611 O.3     1  UNL1       -0.2865
     29 C          19.3522   72.9732   -6.3811 C.3     1  UNL1        0.2611
     30 C          18.2082   72.1690   -5.7589 C.3     1  UNL1        0.1582
     31 C          18.2774   70.7245   -6.2638 C.3     1  UNL1        0.1625
     32 C          18.2202   70.7266   -7.7939 C.3     1  UNL1        0.1686
     33 C          19.3642   71.5866   -8.3378 C.3     1  UNL1        0.1760
     34 O          17.1698   69.9843   -5.7456 O.3     1  UNL1       -0.3801
     35 O          16.9696   71.2667   -8.2244 O.3     1  UNL1       -0.3794
     36 O          19.2587   72.9086   -7.8057 O.3     1  UNL1       -0.3263
     37 H          17.1506   69.0586   -6.0249 H       1  UNL1        0.2105
     38 H          16.8644   71.2991   -9.1856 H       1  UNL1        0.2105
     39 C          17.3220   72.6397   -3.5383 C.2     1  UNL1        0.2231
     40 C          17.4531   72.6555   -2.0379 C.3     1  UNL1        0.0946
     41 N          18.3366   72.1843   -4.2995 N.am    1  UNL1       -0.2994
     42 O          16.3025   73.0371   -4.0625 O.2     1  UNL1       -0.2751
     43 H          19.1522   71.8674   -3.8809 H       1  UNL1        0.1496
     44 C          19.2786   71.6425   -9.8642 C.3     1  UNL1        0.1693
     45 O          18.6671   70.4464  -10.3519 O.3     1  UNL1       -0.3794
     46 H          18.5800   70.4127  -11.3144 H       1  UNL1        0.2105
@<TRIPOS>BOND
     1    29    30    1
     2    30    41    1
     3    30    31    1
     4    31    34    1
     5    31    32    1
     6    32    35    1
     7    32    33    1
     8    33    36    1
     9    33    44    1
    10    39    40    1
    11    39    42    2
    12    39    41   am
    13    41    43    1
    14    29    28    1
    15    34    37    1
    16    35    38    1
    17    29    36    1
    18    44    45    1
    19    45    46    1
    20    15     6    1
    21    15    16   ar
    22    16    21    2
    23    16    17   ar
    24    17    23    1
    25    17    18   ar
    26    18    19   ar
    27    19    20   ar
    28    15    20   ar
    29    18    22    2
    30     6     7    1
    31     6    11    1
    32     7     9    1
    33     7     8    1
    34     8    13    1
    35     9    10    1
    36     9    12    1
    37    10     5    1
    38    10    11    1
    39    12    14    1
    40     5     4    1
    41     4     1    1
    42     1     2    1
    43     1    24    1
    44     1     3    2
    45    24    25    1
    46    28    25    1
    47    25    26    1
    48    25    27    2
@<TRIPOS>MOLECULE
UD2
 46 48 0 0 0
SMALL
GASTEIGER

@<TRIPOS>ATOM
      1 P          21.7990   70.7217   -2.9100 P.3     1  UNL1        0.2189
      2 O          23.3715   70.7318   -3.2544 O.3     1  UNL1       -0.4371
      3 O          21.3272   69.3241   -2.7960 O.2     1  UNL1       -0.5170
      4 O          21.5504   71.4877   -1.5152 O.3     1  UNL1       -0.3112
      5 C          20.3720   72.2496   -1.2463 C.3     1  UNL1        0.1811
      6 C          21.5854   74.5049    1.2791 C.3     1  UNL1        0.2383
      7 C          22.8477   74.1076    0.4724 C.3     1  UNL1        0.1895
      8 O          23.8022   75.1709    0.4623 O.3     1  UNL1       -0.3779
      9 C          22.2679   73.8724   -0.9439 C.3     1  UNL1        0.1713
     10 C          20.7672   73.6237   -0.6999 C.3     1  UNL1        0.1764
     11 O          20.5519   73.6655    0.7198 O.3     1  UNL1       -0.3308
     12 O          22.4575   75.0300   -1.7592 O.3     1  UNL1       -0.3794
     13 H          24.6099   74.9701   -0.0297 H       1  UNL1        0.2106
     14 H          23.3843   75.2676   -1.8969 H       1  UNL1        0.2105
     15 N          21.7711   74.2158    2.7029 N.ar    1  UNL1       -0.2551
     16 C          21.4922   72.9879    3.1754 C.ar    1  UNL1        0.3323
     17 N          21.6533   72.6943    4.4793 N.ar    1  UNL1       -0.2743
     18 C          22.1018   73.6341    5.3362 C.ar    1  UNL1        0.2626
     19 C          22.4002   74.9305    4.8522 C.ar    1  UNL1        0.0795
     20 C          22.2334   75.1958    3.5395 C.ar    1  UNL1        0.0869
     21 O          21.0873   72.1307    2.4142 O.2     1  UNL1       -0.2464
     22 O          22.2484   73.3695    6.5165 O.2     1  UNL1       -0.2670
     23 H          21.4465   71.8043    4.8036 H       1  UNL1        0.1734
     24 O          20.9875   71.4684   -4.0835 O.3     1  UNL1       -0.2703
     25 P          21.3113   72.7178   -5.0465 P.3     1  UNL1        0.2208
     26 O          21.1841   74.0874   -4.2088 O.3     1  UNL1       -0.4371
     27 O          22.6869   72.5898   -5.5755 O.2     1  UNL1       -0.5170
     28 O          20.2649   72.7375   -6.2701 O.3     1  UNL1       -0.2865
     29 C          20.6658   72.8684   -7.6352 C.3     1  UNL1        0.2611
     30 C          20.0346   74.1273   -8.2348 C.3     1  UNL1        0.1582
     31 C          18.5097   73.9851   -8.2095 C.3     1  UNL1        0.1625
     32 C          18.1132   72.7176   -8.9715 C.3     1  UNL1        0.1686
     33 C          18.8186   71.5128   -8.3432 C.3     1  UNL1        0.1760
     34 O          17.9137   75.1242   -8.8345 O.3     1  UNL1       -0.3801
     35 O          18.5048   72.8408  -10.3400 O.3     1  UNL1       -0.3794
     36 O          20.2318   71.7226   -8.3707 O.3     1  UNL1       -0.3263
     37 H          16.9471   75.1013   -8.8533 H       1  UNL1        0.2105
     38 H          18.2847   72.0714  -10.8836 H       1  UNL1        0.2105
     39 C          21.3456   76.1588   -7.9310 C.2     1  UNL1        0.2231
     40 C          21.7529   77.3612   -7.1205 C.3     1  UNL1        0.0946
     41 N          20.4305   75.2966   -7.4458 N.am    1  UNL1       -0.2994
     42 O          21.8413   75.9658   -9.0215 O.2     1  UNL1       -0.2751
     43 H          20.0347   75.4500   -6.5735 H       1  UNL1        0.1496
     44 C          18.4746   70.2503   -9.1359 C.3     1  UNL1        0.1693
     45 O          19.2151   70.2378  -10.3581 O.3     1  UNL1       -0.3794
     46 H          19.0464   69.4640  -10.9129 H       1  UNL1        0.2105
@<TRIPOS>BOND
     1    29    30    1
     2    30    41    1
     3    30    31    1
     4    31    34    1
     5    31    32    1
     6    32    35    1
     7    32    33    1
     8    33    36    1
     9    33    44    1
    10    39    40    1
    11    39    42    2
    12    39    41   am
    13    41    43    1
    14    29    28    1
    15    34    37    1
    16    35    38    1
    17    29    36    1
    18    44    45    1
    19    45    46    1
    20    15     6    1
    21    15    16   ar
    22    16    21    2
    23    16    17   ar
    24    17    23    1
    25    17    18   ar
    26    18    19   ar
    27    19    20   ar
    28    15    20   ar
    29    18    22    2
    30     6     7    1
    31     6    11    1
    32     7     9    1
    33     7     8    1
    34     8    13    1
    35     9    10    1
    36     9    12    1
    37    10     5    1
    38    10    11    1
    39    12    14    1
    40     5     4    1
    41     4     1    1
    42     1     2    1
    43     1    24    1
    44     1     3    2
    45    24    25    1
    46    28    25    1
    47    25    26    1
    48    25    27    2
@<TRIPOS>MOLECULE
UD2
 46 48 0 0 0
SMALL
GASTEIGER

@<TRIPOS>ATOM
      1 P          23.0239   72.6239   -3.7713 P.3     1  UNL1        0.2189
      2 O          24.3779   73.4943   -3.7503 O.3     1  UNL1       -0.4371
      3 O          23.3341   71.2193   -3.4252 O.2     1  UNL1       -0.5170
      4 O          21.9838   73.2240   -2.6980 O.3     1  UNL1       -0.3112
      5 C          21.5209   72.4840   -1.5668 C.3     1  UNL1        0.1811
      6 C          23.1256   72.2766    1.6455 C.3     1  UNL1        0.2383
      7 C          22.5619   70.8541    1.3989 C.3     1  UNL1        0.1895
      8 O          23.3816   69.8651    2.0247 O.3     1  UNL1       -0.3779
      9 C          22.6360   70.7377   -0.1433 C.3     1  UNL1        0.1713
     10 C          22.6963   72.1986   -0.6287 C.3     1  UNL1        0.1764
     11 O          22.6099   73.0393    0.5328 O.3     1  UNL1       -0.3308
     12 O          23.8145   70.0312   -0.5342 O.3     1  UNL1       -0.3794
     13 H          23.0696   68.9586    1.8994 H       1  UNL1        0.2106
     14 H          23.8569   69.1232   -0.2054 H       1  UNL1        0.2105
     15 N          22.6302   72.8150    2.9142 N.ar    1  UNL1       -0.2551
     16 C          21.3615   72.5745    3.2902 C.ar    1  UNL1        0.3323
     17 N          20.8795   73.0570    4.4508 N.ar    1  UNL1       -0.2743
     18 C          21.6688   73.7924    5.2601 C.ar    1  UNL1        0.2626
     19 C          23.0067   74.0524    4.8773 C.ar    1  UNL1        0.0795
     20 C          23.4647   73.5526    3.7102 C.ar    1  UNL1        0.0869
     21 O          20.6386   71.9128    2.5705 O.2     1  UNL1       -0.2464
     22 O          21.2339   74.2293    6.3110 O.2     1  UNL1       -0.2670
     23 H          19.9619   72.8752    4.7061 H       1  UNL1        0.1734
     24 O          22.3703   72.6829   -5.2418 O.3     1  UNL1       -0.2703
     25 P          21.0739   73.4107   -5.8606 P.3     1  UNL1        0.2208
     26 O          20.9720   74.9093   -5.2798 O.3     1  UNL1       -0.4371
     27 O          21.1922   73.4604   -7.3343 O.2     1  UNL1       -0.5170
     28 O          19.7514   72.5865   -5.4554 O.3     1  UNL1       -0.2865
     29 C          19.6485   71.1673   -5.5843 C.3     1  UNL1        0.2611
     30 C          18.4657   70.8207   -6.4918 C.3     1  UNL1        0.1582
     31 C          17.1719   71.3239   -5.8442 C.3     1  UNL1        0.1625
     32 C          17.0361   70.7032   -4.4511 C.3     1  UNL1        0.1686
     33 C          18.2743   71.0545   -3.6221 C.3     1  UNL1        0.1760
     34 O          16.0548   70.9400   -6.6491 O.3     1  UNL1       -0.3801
     35 O          16.9267   69.2836   -4.5693 O.3     1  UNL1       -0.3794
     36 O          19.4447   70.5858   -4.2949 O.3     1  UNL1       -0.3263
     37 H          15.2006   71.2271   -6.2983 H       1  UNL1        0.2105
     38 H          16.8381   68.8235   -3.7229 H       1  UNL1        0.2105
     39 C          19.4258   70.8908   -8.7303 C.2     1  UNL1        0.2231
     40 C          19.6092   71.5528  -10.0707 C.3     1  UNL1        0.0946
     41 N          18.6437   71.4654   -7.7953 N.am    1  UNL1       -0.2994
     42 O          19.9824   69.8394   -8.4917 O.2     1  UNL1       -0.2751
     43 H          18.1993   72.3065   -7.9854 H       1  UNL1        0.1496
     44 C          18.1740   70.3883   -2.2486 C.3     1  UNL1        0.1693
     45 O          18.5030   69.0024   -2.3653 O.3     1  UNL1       -0.3794
     46 H          18.4602   68.5158   -1.5309 H       1  UNL1        0.2105
@<TRIPOS>BOND
     1    29    30    1
     2    30    41    1
     3    30    31    1
     4    31    34    1
     5    31    32    1
     6    32    35    1
     7    32    33    1
     8    33    36    1
     9    33    44    1
    10    39    40    1
    11    39    42    2
    12    39    41   am
    13    41    43    1
    14    29    28    1
    15    34    37    1
    16    35    38    1
    17    29    36    1
    18    44    45    1
    19    45    46    1
    20    15     6    1
    21    15    16   ar
    22    16    21    2
    23    16    17   ar
    24    17    23    1
    25    17    18   ar
    26    18    19   ar
    27    19    20   ar
    28    15    20   ar
    29    18    22    2
    30     6     7    1
    31     6    11    1
    32     7     9    1
    33     7     8    1
    34     8    13    1
    35     9    10    1
    36     9    12    1
    37    10     5    1
    38    10    11    1
    39    12    14    1
    40     5     4    1
    41     4     1    1
    42     1     2    1
    43     1    24    1
    44     1     3    2
    45    24    25    1
    46    28    25    1
    47    25    26    1
    48    25    27    2
@<TRIPOS>MOLECULE
UD2
 46 48 0 0 0
SMALL
GASTEIGER

@<TRIPOS>ATOM
      1 P          21.2985   70.8891   -3.1625 P.3     1  UNL1        0.2189
      2 O          21.5373   69.5587   -2.2881 O.3     1  UNL1       -0.4371
      3 O          22.5996   71.4059   -3.6409 O.2     1  UNL1       -0.5170
      4 O          20.3624   70.5399   -4.4256 O.3     1  UNL1       -0.3112
      5 C          18.9434   70.4049   -4.3276 C.3     1  UNL1        0.1811
      6 C          18.8625   72.7635   -7.0418 C.3     1  UNL1        0.2383
      7 C          18.4180   71.4219   -7.6779 C.3     1  UNL1        0.1895
      8 O          17.5087   71.6458   -8.7572 O.3     1  UNL1       -0.3779
      9 C          17.7083   70.7200   -6.4943 C.3     1  UNL1        0.1713
     10 C          18.2694   71.4273   -5.2459 C.3     1  UNL1        0.1764
     11 O          19.2351   72.3901   -5.6974 O.3     1  UNL1       -0.3308
     12 O          16.2942   70.9037   -6.5806 O.3     1  UNL1       -0.3794
     13 H          17.2023   70.8363   -9.1880 H       1  UNL1        0.2106
     14 H          15.8961   70.5292   -7.3779 H       1  UNL1        0.2105
     15 N          20.0112   73.3195   -7.7603 N.ar    1  UNL1       -0.2551
     16 C          20.8651   72.4945   -8.3919 C.ar    1  UNL1        0.3323
     17 N          21.9293   72.9779   -9.0598 N.ar    1  UNL1       -0.2743
     18 C          22.1547   74.3066   -9.1070 C.ar    1  UNL1        0.2626
     19 C          21.2633   75.1867   -8.4475 C.ar    1  UNL1        0.0795
     20 C          20.2023   74.6748   -7.7890 C.ar    1  UNL1        0.0869
     21 O          20.6741   71.2942   -8.3580 O.2     1  UNL1       -0.2464
     22 O          23.1173   74.7454   -9.7115 O.2     1  UNL1       -0.2670
     23 H          22.5358   72.3689   -9.5087 H       1  UNL1        0.1734
     24 O          20.5779   72.0066   -2.2540 O.3     1  UNL1       -0.2703
     25 P          20.7834   73.5918   -2.0594 P.3     1  UNL1        0.2208
     26 O          21.8910   74.1208   -3.1020 O.3     1  UNL1       -0.4371
     27 O          19.5024   74.2894   -2.3052 O.2     1  UNL1       -0.5170
     28 O          21.2766   73.8882   -0.5555 O.3     1  UNL1       -0.2865
     29 C          20.5915   73.3992    0.5990 C.3     1  UNL1        0.2611
     30 C          20.9480   74.2649    1.8098 C.3     1  UNL1        0.1582
     31 C          22.4517   74.1553    2.0801 C.3     1  UNL1        0.1625
     32 C          22.8155   72.6831    2.2918 C.3     1  UNL1        0.1686
     33 C          22.3870   71.8782    1.0620 C.3     1  UNL1        0.1760
     34 O          22.7814   74.9022    3.2534 O.3     1  UNL1       -0.3801
     35 O          22.1396   72.1857    3.4481 O.3     1  UNL1       -0.3794
     36 O          20.9843   72.0480    0.8486 O.3     1  UNL1       -0.3263
     37 H          23.7203   74.8776    3.4839 H       1  UNL1        0.2105
     38 H          22.3237   71.2560    3.6426 H       1  UNL1        0.2105
     39 C          19.3373   76.0911    1.7182 C.2     1  UNL1        0.2231
     40 C          18.9796   77.5262    1.4334 C.3     1  UNL1        0.0946
     41 N          20.6008   75.6610    1.5324 N.am    1  UNL1       -0.2994
     42 O          18.4875   75.3213    2.1151 O.2     1  UNL1       -0.2751
     43 H          21.2803   76.2759    1.2141 H       1  UNL1        0.1496
     44 C          22.6928   70.3967    1.2905 C.3     1  UNL1        0.1693
     45 O          21.7088   69.5989    0.6290 O.3     1  UNL1       -0.3794
     46 H          21.8401   68.6464    0.7315 H       1  UNL1        0.2105
@<TRIPOS>BOND
     1    29    30    1
     2    30    41    1
     3    30    31    1
     4    31    34    1
     5    31    32    1
     6    32    35    1
     7    32    33    1
     8    33    36    1
     9    33    44    1
    10    39    40    1
    11    39    42    2
    12    39    41   am
    13    41    43    1
    14    29    28    1
    15    34    37    1
    16    35    38    1
    17    29    36    1
    18    44    45    1
    19    45    46    1
    20    15     6    1
    21    15    16   ar
    22    16    21    2
    23    16    17   ar
    24    17    23    1
    25    17    18   ar
    26    18    19   ar
    27    19    20   ar
    28    15    20   ar
    29    18    22    2
    30     6     7    1
    31     6    11    1
    32     7     9    1
    33     7     8    1
    34     8    13    1
    35     9    10    1
    36     9    12    1
    37    10     5    1
    38    10    11    1
    39    12    14    1
    40     5     4    1
    41     4     1    1
    42     1     2    1
    43     1    24    1
    44     1     3    2
    45    24    25    1
    46    28    25    1
    47    25    26    1
    48    25    27    2
@<TRIPOS>MOLECULE
UD2
 46 48 0 0 0
SMALL
GASTEIGER

@<TRIPOS>ATOM
      1 P          22.2179   70.8168   -0.3578 P.3     1  UNL1        0.2189
      2 O          21.3527   69.5666    0.1711 O.3     1  UNL1       -0.4371
      3 O          23.6478   70.4409   -0.4105 O.2     1  UNL1       -0.5170
      4 O          21.7170   71.2308   -1.8314 O.3     1  UNL1       -0.3112
      5 C          21.1435   70.2969   -2.7481 C.3     1  UNL1        0.1811
      6 C          18.5230   70.8671   -5.1448 C.3     1  UNL1        0.2383
      7 C          18.1706   69.5029   -4.4994 C.3     1  UNL1        0.1895
      8 O          16.7564   69.3005   -4.4743 O.3     1  UNL1       -0.3779
      9 C          18.7306   69.6673   -3.0652 C.3     1  UNL1        0.1713
     10 C          19.7678   70.7991   -3.1934 C.3     1  UNL1        0.1764
     11 O          19.8123   71.1841   -4.5766 O.3     1  UNL1       -0.3308
     12 O          17.6887   70.0429   -2.1629 O.3     1  UNL1       -0.3794
     13 H          16.4859   68.4602   -4.0802 H       1  UNL1        0.2106
     14 H          16.9780   69.3918   -2.0885 H       1  UNL1        0.2105
     15 N          18.6176   70.7398   -6.6008 N.ar    1  UNL1       -0.2551
     16 C          17.4982   70.7625   -7.3459 C.ar    1  UNL1        0.3323
     17 N          17.5554   70.6474   -8.6859 N.ar    1  UNL1       -0.2743
     18 C          18.7454   70.5085   -9.3050 C.ar    1  UNL1        0.2626
     19 C          19.9318   70.4841   -8.5331 C.ar    1  UNL1        0.0795
     20 C          19.8451   70.6058   -7.1918 C.ar    1  UNL1        0.0869
     21 O          16.4183   70.8873   -6.8012 O.2     1  UNL1       -0.2464
     22 O          18.7986   70.4046  -10.5178 O.2     1  UNL1       -0.2670
     23 H          16.7385   70.6644   -9.2080 H       1  UNL1        0.1734
     24 O          22.0269   72.0639    0.6431 O.3     1  UNL1       -0.2703
     25 P          22.4340   73.6205    0.5799 P.3     1  UNL1        0.2208
     26 O          21.1027   74.5254    0.6310 O.3     1  UNL1       -0.4371
     27 O          23.2993   73.9516    1.7332 O.2     1  UNL1       -0.5170
     28 O          23.2293   73.9120   -0.7895 O.3     1  UNL1       -0.2865
     29 C          23.2291   75.1873   -1.4334 C.3     1  UNL1        0.2611
     30 C          23.8304   75.0527   -2.8345 C.3     1  UNL1        0.1582
     31 C          25.2865   74.5928   -2.7138 C.3     1  UNL1        0.1625
     32 C          26.0559   75.5921   -1.8456 C.3     1  UNL1        0.1686
     33 C          25.3687   75.7060   -0.4823 C.3     1  UNL1        0.1760
     34 O          25.8780   74.5350   -4.0139 O.3     1  UNL1       -0.3801
     35 O          26.0666   76.8703   -2.4839 O.3     1  UNL1       -0.3794
     36 O          24.0098   76.1073   -0.6676 O.3     1  UNL1       -0.3263
     37 H          26.8020   74.2496   -4.0128 H       1  UNL1        0.2105
     38 H          26.5377   77.5544   -1.9879 H       1  UNL1        0.2105
     39 C          22.8554   74.2523   -4.9194 C.2     1  UNL1        0.2231
     40 C          22.0710   73.2375   -5.7089 C.3     1  UNL1        0.0946
     41 N          23.0670   74.0651   -3.6017 N.am    1  UNL1       -0.2994
     42 O          23.2974   75.2393   -5.4697 O.2     1  UNL1       -0.2751
     43 H          22.7130   73.2767   -3.1612 H       1  UNL1        0.1496
     44 C          26.0966   76.7471    0.3701 C.3     1  UNL1        0.1693
     45 O          26.2146   76.2676    1.7112 O.3     1  UNL1       -0.3794
     46 H          26.6671   76.8780    2.3093 H       1  UNL1        0.2105
@<TRIPOS>BOND
     1    29    30    1
     2    30    41    1
     3    30    31    1
     4    31    34    1
     5    31    32    1
     6    32    35    1
     7    32    33    1
     8    33    36    1
     9    33    44    1
    10    39    40    1
    11    39    42    2
    12    39    41   am
    13    41    43    1
    14    29    28    1
    15    34    37    1
    16    35    38    1
    17    29    36    1
    18    44    45    1
    19    45    46    1
    20    15     6    1
    21    15    16   ar
    22    16    21    2
    23    16    17   ar
    24    17    23    1
    25    17    18   ar
    26    18    19   ar
    27    19    20   ar
    28    15    20   ar
    29    18    22    2
    30     6     7    1
    31     6    11    1
    32     7     9    1
    33     7     8    1
    34     8    13    1
    35     9    10    1
    36     9    12    1
    37    10     5    1
    38    10    11    1
    39    12    14    1
    40     5     4    1
    41     4     1    1
    42     1     2    1
    43     1    24    1
    44     1     3    2
    45    24    25    1
    46    28    25    1
    47    25    26    1
    48    25    27    2
@<TRIPOS>MOLECULE
UD2
 46 48 0 0 0
SMALL
GASTEIGER

@<TRIPOS>ATOM
      1 P          21.9437   74.8044   -3.6888 P.3     1  UNL1        0.2189
      2 O          21.3810   76.1762   -3.0619 O.3     1  UNL1       -0.4371
      3 O          23.4216   74.8525   -3.7357 O.2     1  UNL1       -0.5170
      4 O          21.4758   73.5646   -2.7736 O.3     1  UNL1       -0.3112
      5 C          21.2895   73.6684   -1.3608 C.3     1  UNL1        0.1811
      6 C          23.0831   72.5256    1.5398 C.3     1  UNL1        0.2383
      7 C          22.2005   71.3202    1.1275 C.3     1  UNL1        0.1895
      8 O          22.8335   70.0848    1.4666 O.3     1  UNL1       -0.3779
      9 C          22.1122   71.4921   -0.4088 C.3     1  UNL1        0.1713
     10 C          22.4504   72.9770   -0.6415 C.3     1  UNL1        0.1764
     11 O          22.6531   73.5769    0.6479 O.3     1  UNL1       -0.3308
     12 O          23.0673   70.6531   -1.0603 O.3     1  UNL1       -0.3794
     13 H          22.3197   69.3011    1.2290 H       1  UNL1        0.2106
     14 H          22.9372   69.7088   -0.8993 H       1  UNL1        0.2105
     15 N          22.8312   72.8963    2.9341 N.ar    1  UNL1       -0.2551
     16 C          21.6743   72.5395    3.5200 C.ar    1  UNL1        0.3323
     17 N          21.4161   72.8669    4.8000 N.ar    1  UNL1       -0.2743
     18 C          22.3216   73.5610    5.5189 C.ar    1  UNL1        0.2626
     19 C          23.5440   73.9422    4.9152 C.ar    1  UNL1        0.0795
     20 C          23.7782   73.5969    3.6316 C.ar    1  UNL1        0.0869
     21 O          20.8488   71.9133    2.8838 O.2     1  UNL1       -0.2464
     22 O          22.0893   73.8576    6.6776 O.2     1  UNL1       -0.2670
     23 H          20.5764   72.6028    5.2066 H       1  UNL1        0.1734
     24 O          21.3648   74.6183   -5.1800 O.3     1  UNL1       -0.2703
     25 P          21.0763   73.3399   -6.1156 P.3     1  UNL1        0.2208
     26 O          20.5288   73.8356   -7.5468 O.3     1  UNL1       -0.4371
     27 O          22.3279   72.5744   -6.3051 O.2     1  UNL1       -0.5170
     28 O          19.9727   72.4000   -5.4146 O.3     1  UNL1       -0.2865
     29 C          19.3026   71.3412   -6.1011 C.3     1  UNL1        0.2611
     30 C          17.8044   71.6460   -6.1728 C.3     1  UNL1        0.1582
     31 C          17.2369   71.7114   -4.7515 C.3     1  UNL1        0.1625
     32 C          17.5266   70.3889   -4.0363 C.3     1  UNL1        0.1686
     33 C          19.0359   70.1326   -4.0469 C.3     1  UNL1        0.1760
     34 O          15.8244   71.9228   -4.8109 O.3     1  UNL1       -0.3801
     35 O          16.8559   69.3236   -4.7120 O.3     1  UNL1       -0.3794
     36 O          19.5049   70.1144   -5.3966 O.3     1  UNL1       -0.3263
     37 H          15.3982   71.9754   -3.9445 H       1  UNL1        0.2105
     38 H          16.9961   68.4536   -4.3126 H       1  UNL1        0.2105
     39 C          16.5964   73.0774   -7.7315 C.2     1  UNL1        0.2231
     40 C          16.3838   74.4002   -8.4197 C.3     1  UNL1        0.0946
     41 N          17.5984   72.9330   -6.8420 N.am    1  UNL1       -0.2994
     42 O          15.8655   72.1408   -7.9779 O.2     1  UNL1       -0.2751
     43 H          18.1837   73.6812   -6.6454 H       1  UNL1        0.1496
     44 C          19.3285   68.7839   -3.3867 C.3     1  UNL1        0.1693
     45 O          18.2677   68.4522   -2.4885 O.3     1  UNL1       -0.3794
     46 H          18.3867   67.6075   -2.0331 H       1  UNL1        0.2105
@<TRIPOS>BOND
     1    29    30    1
     2    30    41    1
     3    30    31    1
     4    31    34    1
     5    31    32    1
     6    32    35    1
     7    32    33    1
     8    33    36    1
     9    33    44    1
    10    39    40    1
    11    39    42    2
    12    39    41   am
    13    41    43    1
    14    29    28    1
    15    34    37    1
    16    35    38    1
    17    29    36    1
    18    44    45    1
    19    45    46    1
    20    15     6    1
    21    15    16   ar
    22    16    21    2
    23    16    17   ar
    24    17    23    1
    25    17    18   ar
    26    18    19   ar
    27    19    20   ar
    28    15    20   ar
    29    18    22    2
    30     6     7    1
    31     6    11    1
    32     7     9    1
    33     7     8    1
    34     8    13    1
    35     9    10    1
    36     9    12    1
    37    10     5    1
    38    10    11    1
    39    12    14    1
    40     5     4    1
    41     4     1    1
    42     1     2    1
    43     1    24    1
    44     1     3    2
    45    24    25    1
    46    28    25    1
    47    25    26    1
    48    25    27    2
@<TRIPOS>MOLECULE
UD2
 46 48 0 0 0
SMALL
GASTEIGER

@<TRIPOS>ATOM
      1 P          20.1043   70.8949   -3.7400 P.3     1  UNL1        0.2189
      2 O          19.1571   71.3514   -2.5210 O.3     1  UNL1       -0.4371
      3 O          20.7139   69.5835   -3.4275 O.2     1  UNL1       -0.5170
      4 O          19.2264   70.7720   -5.0846 O.3     1  UNL1       -0.3112
      5 C          17.9970   70.0468   -5.1465 C.3     1  UNL1        0.1811
      6 C          16.1746   72.2275   -7.3510 C.3     1  UNL1        0.2383
      7 C          17.6575   72.4053   -7.7651 C.3     1  UNL1        0.1895
      8 O          17.7656   72.7070   -9.1576 O.3     1  UNL1       -0.3779
      9 C          18.2516   71.0096   -7.4546 C.3     1  UNL1        0.1713
     10 C          17.2638   70.3963   -6.4438 C.3     1  UNL1        0.1764
     11 O          16.2517   71.3817   -6.1830 O.3     1  UNL1       -0.3308
     12 O          18.3099   70.2169   -8.6416 O.3     1  UNL1       -0.3794
     13 H          18.6742   72.8279   -9.4648 H       1  UNL1        0.2106
     14 H          18.8719   70.5871   -9.3355 H       1  UNL1        0.2105
     15 N          15.5747   73.5203   -7.0137 N.ar    1  UNL1       -0.2551
     16 C          14.9206   74.2184   -7.9590 C.ar    1  UNL1        0.3323
     17 N          14.3598   75.4093   -7.6772 N.ar    1  UNL1       -0.2743
     18 C          14.4449   75.9221   -6.4329 C.ar    1  UNL1        0.2626
     19 C          15.1296   75.1975   -5.4277 C.ar    1  UNL1        0.0795
     20 C          15.6787   74.0042   -5.7373 C.ar    1  UNL1        0.0869
     21 O          14.8358   73.7681   -9.0853 O.2     1  UNL1       -0.2464
     22 O          13.9374   76.9997   -6.1764 O.2     1  UNL1       -0.2670
     23 H          13.8928   75.9001   -8.3709 H       1  UNL1        0.1734
     24 O          21.2658   71.9892   -3.9564 O.3     1  UNL1       -0.2703
     25 P          22.7979   72.1034   -3.4740 P.3     1  UNL1        0.2208
     26 O          23.3819   70.6297   -3.1899 O.3     1  UNL1       -0.4371
     27 O          23.6008   72.7563   -4.5311 O.2     1  UNL1       -0.5170
     28 O          22.8718   72.9796   -2.1251 O.3     1  UNL1       -0.2865
     29 C          21.7171   73.3295   -1.3599 C.3     1  UNL1        0.2611
     30 C          21.9878   74.6236   -0.5886 C.3     1  UNL1        0.1582
     31 C          23.1423   74.3919    0.3911 C.3     1  UNL1        0.1625
     32 C          22.7846   73.2273    1.3186 C.3     1  UNL1        0.1686
     33 C          22.4832   71.9868    0.4736 C.3     1  UNL1        0.1760
     34 O          23.3537   75.5733    1.1675 O.3     1  UNL1       -0.3801
     35 O          21.6338   73.5695    2.0930 O.3     1  UNL1       -0.3794
     36 O          21.4214   72.2792   -0.4371 O.3     1  UNL1       -0.3263
     37 H          24.0726   75.4978    1.8100 H       1  UNL1        0.2105
     38 H          21.3494   72.8755    2.7041 H       1  UNL1        0.2105
     39 C          23.6431   75.8981   -1.8429 C.2     1  UNL1        0.2231
     40 C          24.0159   76.9911   -2.8098 C.3     1  UNL1        0.0946
     41 N          22.3496   75.6871   -1.5290 N.am    1  UNL1       -0.2994
     42 O          24.5075   75.2068   -1.3459 O.2     1  UNL1       -0.2751
     43 H          21.6582   76.2402   -1.9254 H       1  UNL1        0.1496
     44 C          22.0669   70.8346    1.3899 C.3     1  UNL1        0.1693
     45 O          21.8012   69.6715    0.6032 O.3     1  UNL1       -0.3794
     46 H          21.5311   68.8999    1.1197 H       1  UNL1        0.2105
@<TRIPOS>BOND
     1    29    30    1
     2    30    41    1
     3    30    31    1
     4    31    34    1
     5    31    32    1
     6    32    35    1
     7    32    33    1
     8    33    36    1
     9    33    44    1
    10    39    40    1
    11    39    42    2
    12    39    41   am
    13    41    43    1
    14    29    28    1
    15    34    37    1
    16    35    38    1
    17    29    36    1
    18    44    45    1
    19    45    46    1
    20    15     6    1
    21    15    16   ar
    22    16    21    2
    23    16    17   ar
    24    17    23    1
    25    17    18   ar
    26    18    19   ar
    27    19    20   ar
    28    15    20   ar
    29    18    22    2
    30     6     7    1
    31     6    11    1
    32     7     9    1
    33     7     8    1
    34     8    13    1
    35     9    10    1
    36     9    12    1
    37    10     5    1
    38    10    11    1
    39    12    14    1
    40     5     4    1
    41     4     1    1
    42     1     2    1
    43     1    24    1
    44     1     3    2
    45    24    25    1
    46    28    25    1
    47    25    26    1
    48    25    27    2
