@<TRIPOS>MOLECULE
UDP-glaA
 43 45 0 0 0
SMALL
GASTEIGER

@<TRIPOS>ATOM
      1 P          23.0135   71.9296   -3.4311 P.3     1  UNL1        0.2189
      2 O          23.7469   72.9309   -4.4688 O.3     1  UNL1       -0.4371
      3 O          23.6524   70.5783   -3.2967 O.2     1  UNL1       -0.5170
      4 O          21.4695   71.9323   -3.9121 O.3     1  UNL1       -0.3112
      5 C          20.6383   70.8502   -3.5281 C.3     1  UNL1        0.1811
      6 O          18.8098   71.9399   -4.6430 O.3     1  UNL1       -0.3308
      7 O          17.0650   70.8157   -2.4789 O.3     1  UNL1       -0.3794
      8 O          16.6066   69.1124   -4.5585 O.3     1  UNL1       -0.3779
      9 C          18.2055   70.2359   -3.1121 C.3     1  UNL1        0.1713
     10 C          17.8526   69.7764   -4.5110 C.3     1  UNL1        0.1895
     11 C          19.2076   71.3497   -3.3859 C.3     1  UNL1        0.1764
     12 C          17.8463   71.0858   -5.2813 C.3     1  UNL1        0.2383
     13 H          17.3481   71.1298   -1.6033 H       1  UNL1        0.2105
     14 H          16.6582   68.3497   -3.9570 H       1  UNL1        0.2106
     15 O          16.0293   70.4661   -7.3526 O.2     1  UNL1       -0.2464
     16 O          19.3707   70.4470  -10.5264 O.2     1  UNL1       -0.2670
     17 N          18.2139   70.9138   -6.6578 N.ar    1  UNL1       -0.2551
     18 N          17.6945   70.4565   -8.9315 N.ar    1  UNL1       -0.2743
     19 C          17.2245   70.6029   -7.6197 C.ar    1  UNL1        0.3323
     20 C          19.5426   71.0531   -7.0430 C.ar    1  UNL1        0.0869
     21 C          19.9748   70.9108   -8.2979 C.ar    1  UNL1        0.0795
     22 C          19.0057   70.5850   -9.3629 C.ar    1  UNL1        0.2626
     23 H          17.0009   70.2322   -9.6399 H       1  UNL1        0.1734
     24 O          22.9696   72.7928   -2.0643 O.3     1  UNL1       -0.2703
     25 P          22.7338   74.3723   -1.8150 P.3     1  UNL1        0.2208
     26 O          21.3079   74.6513   -2.5257 O.3     1  UNL1       -0.4371
     27 O          23.8523   75.2469   -2.3046 O.2     1  UNL1       -0.5170
     28 O          22.4335   74.4964   -0.2344 O.3     1  UNL1       -0.2858
     29 O          21.3918   72.4101    0.1680 O.3     1  UNL1       -0.3226
     30 O          22.0501   73.8133    4.0251 O.3     1  UNL1       -0.3794
     31 O          21.1347   75.6206    1.9271 O.3     1  UNL1       -0.3775
     32 O          21.2023   71.4530    2.8674 O.3     1  UNL1       -0.3792
     33 C          22.2845   73.6002    2.6359 C.3     1  UNL1        0.1718
     34 C          21.1475   74.2024    1.8035 C.3     1  UNL1        0.1968
     35 C          22.3836   72.0946    2.3757 C.3     1  UNL1        0.1723
     36 C          21.3016   73.8302    0.3236 C.3     1  UNL1        0.2706
     37 C          22.4925   71.8394    0.8740 C.3     1  UNL1        0.1830
     38 H          22.7913   73.4147    4.5122 H       1  UNL1        0.2105
     39 H          20.4069   75.9565    1.3773 H       1  UNL1        0.2106
     40 H          20.4675   71.6539    2.2633 H       1  UNL1        0.2106
     41 O          23.7005   69.9275    0.2502 O.co2   1  UNL1       -0.5466
     42 O          21.4606   69.6750    0.5905 O.co2   1  UNL1       -0.5466
     43 C          22.4613   70.3766    0.5638 C.2     1  UNL1        0.0799
@<TRIPOS>UNITY_ATOM_ATTR
41 1
charge -1
@<TRIPOS>BOND
     1     1     4    1
     2     1    24    1
     3     1     2    1
     4     1     3    2
     5    25    28    1
     6    25    24    1
     7    25    26    1
     8    25    27    2
     9     6    11    1
    10     6    12    1
    11    29    36    1
    12    29    37    1
    13     7     9    1
    14     7    13    1
    15     8    10    1
    16     8    14    1
    17     4     5    1
    18    28    36    1
    19    30    33    1
    20    30    38    1
    21    31    34    1
    22    31    39    1
    23    32    35    1
    24    32    40    1
    25    41    43   ar
    26    15    19    2
    27    42    43   ar
    28    16    22    2
    29    17    12    1
    30    17    19   ar
    31    17    20   ar
    32    18    19   ar
    33    18    22   ar
    34    18    23    1
    35     9    10    1
    36     9    11    1
    37    10    12    1
    38    11     5    1
    39    33    34    1
    40    33    35    1
    41    34    36    1
    42    35    37    1
    43    37    43    1
    44    20    21   ar
    45    21    22   ar
@<TRIPOS>MOLECULE
UDP-glaA
 43 45 0 0 0
SMALL
GASTEIGER

@<TRIPOS>ATOM
      1 P          21.5206   73.9713   -5.2617 P.3     1  UNL1        0.2189
      2 O          21.1110   75.0085   -4.0896 O.3     1  UNL1       -0.4371
      3 O          22.5755   74.4680   -6.2064 O.2     1  UNL1       -0.5170
      4 O          20.1071   73.5673   -5.9359 O.3     1  UNL1       -0.3112
      5 C          19.6970   74.2486   -7.1093 C.3     1  UNL1        0.1811
      6 O          19.6395   71.9096   -7.6572 O.3     1  UNL1       -0.3308
      7 O          17.9833   72.6974  -10.0295 O.3     1  UNL1       -0.3794
      8 O          16.1101   71.7763   -8.2750 O.3     1  UNL1       -0.3779
      9 C          17.9947   73.2486   -8.7128 C.3     1  UNL1        0.1713
     10 C          17.3057   72.3101   -7.7447 C.3     1  UNL1        0.1895
     11 C          19.4314   73.2290   -8.2077 C.3     1  UNL1        0.1764
     12 C          18.3702   71.2495   -7.5214 C.3     1  UNL1        0.2383
     13 H          18.4683   73.3128  -10.6055 H       1  UNL1        0.2105
     14 H          15.5266   72.5239   -8.4916 H       1  UNL1        0.2106
     15 O          16.2412   69.6165   -6.6404 O.2     1  UNL1       -0.2464
     16 O          18.1635   69.0330   -2.4928 O.2     1  UNL1       -0.2670
     17 N          18.2888   70.6572   -6.2168 N.ar    1  UNL1       -0.2551
     18 N          17.1996   69.3274   -4.5755 N.ar    1  UNL1       -0.2743
     19 C          17.1763   69.8539   -5.8737 C.ar    1  UNL1        0.3323
     20 C          19.3044   70.8747   -5.2923 C.ar    1  UNL1        0.0869
     21 C          19.3122   70.3653   -4.0585 C.ar    1  UNL1        0.0795
     22 C          18.1868   69.5160   -3.6207 C.ar    1  UNL1        0.2626
     23 H          16.4095   68.7472   -4.3067 H       1  UNL1        0.1734
     24 O          21.9254   72.6382   -4.4406 O.3     1  UNL1       -0.2703
     25 P          23.1264   72.3607   -3.3950 P.3     1  UNL1        0.2208
     26 O          24.3367   73.2659   -3.9713 O.3     1  UNL1       -0.4371
     27 O          23.4673   70.9085   -3.2198 O.2     1  UNL1       -0.5170
     28 O          22.6686   73.1063   -2.0392 O.3     1  UNL1       -0.2858
     29 O          21.6646   71.4016   -0.7409 O.3     1  UNL1       -0.3226
     30 O          21.5823   74.6416    1.8621 O.3     1  UNL1       -0.3794
     31 O          20.9669   74.9975   -0.9665 O.3     1  UNL1       -0.3775
     32 O          21.0516   71.9349    2.0120 O.3     1  UNL1       -0.3792
     33 C          22.0631   73.7835    0.8311 C.3     1  UNL1        0.1718
     34 C          21.0626   73.7284   -0.3283 C.3     1  UNL1        0.1968
     35 C          22.2713   72.3816    1.4105 C.3     1  UNL1        0.1723
     36 C          21.4872   72.6786   -1.3627 C.3     1  UNL1        0.2706
     37 C          22.6500   71.4146    0.2909 C.3     1  UNL1        0.1830
     38 H          22.2444   74.6441    2.5742 H       1  UNL1        0.2105
     39 H          20.3315   74.9113   -1.6970 H       1  UNL1        0.2106
     40 H          20.4247   71.7053    1.3053 H       1  UNL1        0.2106
     41 O          23.4097   69.9564    1.9643 O.co2   1  UNL1       -0.5466
     42 O          22.2654   69.0319    0.2228 O.co2   1  UNL1       -0.5466
     43 C          22.7368   70.0072    0.7895 C.2     1  UNL1        0.0799
@<TRIPOS>UNITY_ATOM_ATTR
41 1
charge -1
@<TRIPOS>BOND
     1     1     4    1
     2     1    24    1
     3     1     2    1
     4     1     3    2
     5    25    28    1
     6    25    24    1
     7    25    26    1
     8    25    27    2
     9     6    11    1
    10     6    12    1
    11    29    36    1
    12    29    37    1
    13     7     9    1
    14     7    13    1
    15     8    10    1
    16     8    14    1
    17     4     5    1
    18    28    36    1
    19    30    33    1
    20    30    38    1
    21    31    34    1
    22    31    39    1
    23    32    35    1
    24    32    40    1
    25    41    43   ar
    26    15    19    2
    27    42    43   ar
    28    16    22    2
    29    17    12    1
    30    17    19   ar
    31    17    20   ar
    32    18    19   ar
    33    18    22   ar
    34    18    23    1
    35     9    10    1
    36     9    11    1
    37    10    12    1
    38    11     5    1
    39    33    34    1
    40    33    35    1
    41    34    36    1
    42    35    37    1
    43    37    43    1
    44    20    21   ar
    45    21    22   ar
@<TRIPOS>MOLECULE
UDP-glaA
 43 45 0 0 0
SMALL
GASTEIGER

@<TRIPOS>ATOM
      1 P          22.3228   71.2499   -2.6981 P.3     1  UNL1        0.2189
      2 O          23.4485   72.0006   -3.5850 O.3     1  UNL1       -0.4371
      3 O          21.9884   69.8574   -3.1466 O.2     1  UNL1       -0.5170
      4 O          21.0885   72.2946   -2.6697 O.3     1  UNL1       -0.3112
      5 C          20.3904   72.5514   -3.8763 C.3     1  UNL1        0.1811
      6 O          18.2286   72.4285   -4.9183 O.3     1  UNL1       -0.3308
      7 O          17.3122   71.0398   -2.4237 O.3     1  UNL1       -0.3794
      8 O          17.6661   68.9690   -4.1622 O.3     1  UNL1       -0.3779
      9 C          18.5701   70.9568   -3.0934 C.3     1  UNL1        0.1713
     10 C          18.4382   70.1356   -4.3586 C.3     1  UNL1        0.1895
     11 C          18.9015   72.3380   -3.6431 C.3     1  UNL1        0.1764
     12 C          17.7767   71.1208   -5.3071 C.3     1  UNL1        0.2383
     13 H          17.4364   71.6059   -1.6429 H       1  UNL1        0.2105
     14 H          18.0983   68.4459   -3.4652 H       1  UNL1        0.2106
     15 O          15.9376   70.5049   -7.3598 O.2     1  UNL1       -0.2464
     16 O          19.2766   70.2528  -10.5263 O.2     1  UNL1       -0.2670
     17 N          18.1377   70.8899   -6.6767 N.ar    1  UNL1       -0.2551
     18 N          17.6015   70.3792   -8.9351 N.ar    1  UNL1       -0.2743
     19 C          17.1373   70.5865   -7.6295 C.ar    1  UNL1        0.3323
     20 C          19.4710   70.9649   -7.0642 C.ar    1  UNL1        0.0869
     21 C          19.8976   70.7652   -8.3132 C.ar    1  UNL1        0.0795
     22 C          18.9168   70.4426   -9.3685 C.ar    1  UNL1        0.2626
     23 H          16.8999   70.1591   -9.6369 H       1  UNL1        0.1734
     24 O          22.9176   71.3497   -1.1977 O.3     1  UNL1       -0.2703
     25 P          22.4728   70.6128    0.1704 P.3     1  UNL1        0.2208
     26 O          23.6838   69.5761    0.4442 O.3     1  UNL1       -0.4371
     27 O          21.1133   69.9769    0.1136 O.2     1  UNL1       -0.5170
     28 O          22.6341   71.7403    1.3134 O.3     1  UNL1       -0.2858
     29 O          21.7929   72.4621    3.4041 O.3     1  UNL1       -0.3226
     30 O          21.1773   75.8080    1.0154 O.3     1  UNL1       -0.3794
     31 O          20.6577   73.1318   -0.0209 O.3     1  UNL1       -0.3775
     32 O          20.9866   75.2006    3.7033 O.3     1  UNL1       -0.3792
     33 C          21.8115   74.6300    1.5058 C.3     1  UNL1        0.1718
     34 C          20.8825   73.4206    1.3549 C.3     1  UNL1        0.1968
     35 C          22.1673   74.8365    2.9806 C.3     1  UNL1        0.1723
     36 C          21.4853   72.1845    2.0339 C.3     1  UNL1        0.2706
     37 C          22.7183   73.5365    3.5625 C.3     1  UNL1        0.1830
     38 H          21.7990   76.5464    1.1329 H       1  UNL1        0.2105
     39 H          20.0739   72.3559   -0.0662 H       1  UNL1        0.2106
     40 H          20.4282   74.4107    3.8008 H       1  UNL1        0.2106
     41 O          23.7327   74.7316    5.3078 O.co2   1  UNL1       -0.5466
     42 O          22.5177   72.8895    5.8800 O.co2   1  UNL1       -0.5466
     43 C          22.9584   73.6541    5.0341 C.2     1  UNL1        0.0799
@<TRIPOS>UNITY_ATOM_ATTR
41 1
charge -1
@<TRIPOS>BOND
     1     1     4    1
     2     1    24    1
     3     1     2    1
     4     1     3    2
     5    25    28    1
     6    25    24    1
     7    25    26    1
     8    25    27    2
     9     6    11    1
    10     6    12    1
    11    29    36    1
    12    29    37    1
    13     7     9    1
    14     7    13    1
    15     8    10    1
    16     8    14    1
    17     4     5    1
    18    28    36    1
    19    30    33    1
    20    30    38    1
    21    31    34    1
    22    31    39    1
    23    32    35    1
    24    32    40    1
    25    41    43   ar
    26    15    19    2
    27    42    43   ar
    28    16    22    2
    29    17    12    1
    30    17    19   ar
    31    17    20   ar
    32    18    19   ar
    33    18    22   ar
    34    18    23    1
    35     9    10    1
    36     9    11    1
    37    10    12    1
    38    11     5    1
    39    33    34    1
    40    33    35    1
    41    34    36    1
    42    35    37    1
    43    37    43    1
    44    20    21   ar
    45    21    22   ar
@<TRIPOS>MOLECULE
UDP-glaA
 43 45 0 0 0
SMALL
GASTEIGER

@<TRIPOS>ATOM
      1 P          22.5296   71.4601   -2.0928 P.3     1  UNL1        0.2189
      2 O          21.5824   72.7363   -1.7904 O.3     1  UNL1       -0.4371
      3 O          23.5693   71.6804   -3.1524 O.2     1  UNL1       -0.5170
      4 O          21.4853   70.2572   -2.3721 O.3     1  UNL1       -0.3112
      5 C          20.7748   70.2479   -3.5986 C.3     1  UNL1        0.1811
      6 O          19.0593   71.6056   -4.5926 O.3     1  UNL1       -0.3308
      7 O          17.2401   70.5374   -2.4617 O.3     1  UNL1       -0.3794
      8 O          16.5555   69.0394   -4.6350 O.3     1  UNL1       -0.3779
      9 C          18.2966   69.8793   -3.1605 C.3     1  UNL1        0.1713
     10 C          17.8686   69.5570   -4.5767 C.3     1  UNL1        0.1895
     11 C          19.4118   70.8916   -3.3871 C.3     1  UNL1        0.1764
     12 C          17.9946   70.9081   -5.2599 C.3     1  UNL1        0.2383
     13 H          17.5727   70.7585   -1.5751 H       1  UNL1        0.2105
     14 H          16.5326   68.2368   -4.0859 H       1  UNL1        0.2106
     15 O          16.0926   70.4856   -7.3041 O.2     1  UNL1       -0.2464
     16 O          19.3402   70.4681  -10.5738 O.2     1  UNL1       -0.2670
     17 N          18.3151   70.7899   -6.6536 N.ar    1  UNL1       -0.2551
     18 N          17.7111   70.4766   -8.9309 N.ar    1  UNL1       -0.2743
     19 C          17.2853   70.5777   -7.5999 C.ar    1  UNL1        0.3323
     20 C          19.6381   70.8840   -7.0711 C.ar    1  UNL1        0.0869
     21 C          20.0279   70.7860   -8.3440 C.ar    1  UNL1        0.0795
     22 C          19.0147   70.5633   -9.3945 C.ar    1  UNL1        0.2626
     23 H          16.9879   70.3234   -9.6285 H       1  UNL1        0.1734
     24 O          23.1223   71.0949   -0.6332 O.3     1  UNL1       -0.2703
     25 P          22.4192   70.4273    0.6600 P.3     1  UNL1        0.2208
     26 O          23.6544   70.2036    1.6800 O.3     1  UNL1       -0.4371
     27 O          21.6304   69.1850    0.3597 O.2     1  UNL1       -0.5170
     28 O          21.5567   71.6216    1.3187 O.3     1  UNL1       -0.2858
     29 O          21.9369   73.9560    1.2452 O.3     1  UNL1       -0.3226
     30 O          20.0932   73.4896    4.9416 O.3     1  UNL1       -0.3794
     31 O          22.0875   71.5678    4.0276 O.3     1  UNL1       -0.3775
     32 O          20.8614   75.6021    3.3362 O.3     1  UNL1       -0.3792
     33 C          20.3891   73.2447    3.5694 C.3     1  UNL1        0.1718
     34 C          21.8542   72.8266    3.4049 C.3     1  UNL1        0.1968
     35 C          20.1153   74.5206    2.7684 C.3     1  UNL1        0.1723
     36 C          22.2275   72.7278    1.9206 C.3     1  UNL1        0.2706
     37 C          20.5603   74.3232    1.3209 C.3     1  UNL1        0.1830
     38 H          19.1589   73.7530    4.9977 H       1  UNL1        0.2105
     39 H          23.0226   71.3410    3.8895 H       1  UNL1        0.2106
     40 H          21.7983   75.4865    3.1039 H       1  UNL1        0.2106
     41 O          21.5525   76.3391    0.6462 O.co2   1  UNL1       -0.5466
     42 O          19.4540   75.9038   -0.1308 O.co2   1  UNL1       -0.5466
     43 C          20.4314   75.5871    0.5316 C.2     1  UNL1        0.0799
@<TRIPOS>UNITY_ATOM_ATTR
41 1
charge -1
@<TRIPOS>BOND
     1     1     4    1
     2     1    24    1
     3     1     2    1
     4     1     3    2
     5    25    28    1
     6    25    24    1
     7    25    26    1
     8    25    27    2
     9     6    11    1
    10     6    12    1
    11    29    36    1
    12    29    37    1
    13     7     9    1
    14     7    13    1
    15     8    10    1
    16     8    14    1
    17     4     5    1
    18    28    36    1
    19    30    33    1
    20    30    38    1
    21    31    34    1
    22    31    39    1
    23    32    35    1
    24    32    40    1
    25    41    43   ar
    26    15    19    2
    27    42    43   ar
    28    16    22    2
    29    17    12    1
    30    17    19   ar
    31    17    20   ar
    32    18    19   ar
    33    18    22   ar
    34    18    23    1
    35     9    10    1
    36     9    11    1
    37    10    12    1
    38    11     5    1
    39    33    34    1
    40    33    35    1
    41    34    36    1
    42    35    37    1
    43    37    43    1
    44    20    21   ar
    45    21    22   ar
@<TRIPOS>MOLECULE
UDP-glaA
 43 45 0 0 0
SMALL
GASTEIGER

@<TRIPOS>ATOM
      1 P          21.6130   70.3383   -1.0387 P.3     1  UNL1        0.2189
      2 O          23.1324   70.5107   -1.5670 O.3     1  UNL1       -0.4371
      3 O          21.4758   69.6147    0.2688 O.2     1  UNL1       -0.5170
      4 O          20.8370   69.6758   -2.2935 O.3     1  UNL1       -0.3112
      5 C          20.5918   70.4761   -3.4374 C.3     1  UNL1        0.1811
      6 O          18.9093   71.7745   -4.5590 O.3     1  UNL1       -0.3308
      7 O          17.0086   70.7740   -2.4667 O.3     1  UNL1       -0.3794
      8 O          16.4324   69.1824   -4.6046 O.3     1  UNL1       -0.3779
      9 C          18.1002   70.0994   -3.0920 C.3     1  UNL1        0.1713
     10 C          17.7371   69.7157   -4.5110 C.3     1  UNL1        0.1895
     11 C          19.2153   71.1134   -3.3114 C.3     1  UNL1        0.1764
     12 C          17.8809   71.0394   -5.2426 C.3     1  UNL1        0.2383
     13 H          17.3004   71.0342   -1.5764 H       1  UNL1        0.2105
     14 H          16.3927   68.4025   -4.0248 H       1  UNL1        0.2106
     15 O          16.0793   70.4653   -7.3402 O.2     1  UNL1       -0.2464
     16 O          19.4599   70.4021  -10.4716 O.2     1  UNL1       -0.2670
     17 N          18.2627   70.8684   -6.6153 N.ar    1  UNL1       -0.2551
     18 N          17.7640   70.4337   -8.8981 N.ar    1  UNL1       -0.2743
     19 C          17.2801   70.5814   -7.5915 C.ar    1  UNL1        0.3323
     20 C          19.5986   70.9851   -6.9828 C.ar    1  UNL1        0.0869
     21 C          20.0440   70.8420   -8.2330 C.ar    1  UNL1        0.0795
     22 C          19.0827   70.5402   -9.3121 C.ar    1  UNL1        0.2626
     23 H          17.0754   70.2264   -9.6164 H       1  UNL1        0.1734
     24 O          21.0581   71.8572   -1.0293 O.3     1  UNL1       -0.2703
     25 P          21.4913   73.1388   -0.1448 P.3     1  UNL1        0.2208
     26 O          22.7440   72.5882    0.7175 O.3     1  UNL1       -0.4371
     27 O          20.3798   73.7224    0.6796 O.2     1  UNL1       -0.5170
     28 O          22.1447   74.1652   -1.2048 O.3     1  UNL1       -0.2858
     29 O          23.2875   73.4908   -3.1640 O.3     1  UNL1       -0.3226
     30 O          24.8620   77.2798   -2.4980 O.3     1  UNL1       -0.3794
     31 O          24.4001   75.4547   -0.2705 O.3     1  UNL1       -0.3775
     32 O          24.9790   75.3838   -4.5034 O.3     1  UNL1       -0.3792
     33 C          23.8966   76.2320   -2.5175 C.3     1  UNL1        0.1718
     34 C          24.3576   75.0641   -1.6389 C.3     1  UNL1        0.1968
     35 C          23.7083   75.7588   -3.9615 C.3     1  UNL1        0.1723
     36 C          23.4120   73.8658   -1.7882 C.3     1  UNL1        0.2706
     37 C          22.7851   74.5426   -3.9867 C.3     1  UNL1        0.1830
     38 H          24.5306   77.9947   -3.0678 H       1  UNL1        0.2105
     39 H          24.6870   74.6830    0.2461 H       1  UNL1        0.2106
     40 H          25.2448   74.5358   -4.1092 H       1  UNL1        0.2106
     41 O          22.4432   72.6335   -5.3067 O.co2   1  UNL1       -0.5466
     42 O          22.7776   74.6056   -6.4004 O.co2   1  UNL1       -0.5466
     43 C          22.6757   73.9671   -5.3629 C.2     1  UNL1        0.0799
@<TRIPOS>UNITY_ATOM_ATTR
41 1
charge -1
@<TRIPOS>BOND
     1     1     4    1
     2     1    24    1
     3     1     2    1
     4     1     3    2
     5    25    28    1
     6    25    24    1
     7    25    26    1
     8    25    27    2
     9     6    11    1
    10     6    12    1
    11    29    36    1
    12    29    37    1
    13     7     9    1
    14     7    13    1
    15     8    10    1
    16     8    14    1
    17     4     5    1
    18    28    36    1
    19    30    33    1
    20    30    38    1
    21    31    34    1
    22    31    39    1
    23    32    35    1
    24    32    40    1
    25    41    43   ar
    26    15    19    2
    27    42    43   ar
    28    16    22    2
    29    17    12    1
    30    17    19   ar
    31    17    20   ar
    32    18    19   ar
    33    18    22   ar
    34    18    23    1
    35     9    10    1
    36     9    11    1
    37    10    12    1
    38    11     5    1
    39    33    34    1
    40    33    35    1
    41    34    36    1
    42    35    37    1
    43    37    43    1
    44    20    21   ar
    45    21    22   ar
@<TRIPOS>MOLECULE
UDP-glaA
 43 45 0 0 0
SMALL
GASTEIGER

@<TRIPOS>ATOM
      1 P          22.7976   72.0634   -2.9867 P.3     1  UNL1        0.2189
      2 O          23.6507   70.7376   -2.6235 O.3     1  UNL1       -0.4371
      3 O          22.2604   72.8142   -1.8035 O.2     1  UNL1       -0.5170
      4 O          21.6942   71.5387   -4.0463 O.3     1  UNL1       -0.3112
      5 C          20.7952   70.5209   -3.6401 C.3     1  UNL1        0.1811
      6 O          19.0313   71.7861   -4.6709 O.3     1  UNL1       -0.3308
      7 O          17.2604   70.7419   -2.4881 O.3     1  UNL1       -0.3794
      8 O          16.6096   69.1430   -4.5990 O.3     1  UNL1       -0.3779
      9 C          18.3327   70.0915   -3.1700 C.3     1  UNL1        0.1713
     10 C          17.9061   69.7033   -4.5699 C.3     1  UNL1        0.1895
     11 C          19.4139   71.1290   -3.4425 C.3     1  UNL1        0.1764
     12 C          17.9850   71.0312   -5.3038 C.3     1  UNL1        0.2383
     13 H          17.5915   71.0063   -1.6129 H       1  UNL1        0.2105
     14 H          16.6156   68.3612   -4.0203 H       1  UNL1        0.2106
     15 O          16.0720   70.5793   -7.3315 O.2     1  UNL1       -0.2464
     16 O          19.3105   70.4296  -10.6069 O.2     1  UNL1       -0.2670
     17 N          18.3002   70.8710   -6.6946 N.ar    1  UNL1       -0.2551
     18 N          17.6860   70.5045   -8.9611 N.ar    1  UNL1       -0.2743
     19 C          17.2652   70.6473   -7.6323 C.ar    1  UNL1        0.3323
     20 C          19.6232   70.9360   -7.1174 C.ar    1  UNL1        0.0869
     21 C          20.0082   70.7984   -8.3881 C.ar    1  UNL1        0.0795
     22 C          18.9894   70.5610   -9.4298 C.ar    1  UNL1        0.2626
     23 H          16.9589   70.3423   -9.6526 H       1  UNL1        0.1734
     24 O          23.8183   72.9084   -3.9137 O.3     1  UNL1       -0.2703
     25 P          24.1290   74.4934   -3.9764 P.3     1  UNL1        0.2208
     26 O          25.7428   74.5518   -4.0682 O.3     1  UNL1       -0.4371
     27 O          23.5438   75.2812   -2.8395 O.2     1  UNL1       -0.5170
     28 O          23.6200   74.9524   -5.4373 O.3     1  UNL1       -0.2858
     29 O          21.6657   76.1184   -6.0860 O.3     1  UNL1       -0.3226
     30 O          22.2990   73.6044   -9.3353 O.3     1  UNL1       -0.3794
     31 O          22.6898   72.6339   -6.6129 O.3     1  UNL1       -0.3775
     32 O          20.6265   75.7181   -8.7314 O.3     1  UNL1       -0.3792
     33 C          22.6180   74.4461   -8.2308 C.3     1  UNL1        0.1718
     34 C          22.0480   73.8638   -6.9330 C.3     1  UNL1        0.1968
     35 C          22.0310   75.8377   -8.4828 C.3     1  UNL1        0.1723
     36 C          22.2363   74.8445   -5.7688 C.3     1  UNL1        0.2706
     37 C          22.2389   76.7135   -7.2491 C.3     1  UNL1        0.1830
     38 H          22.6764   74.0121  -10.1334 H       1  UNL1        0.2105
     39 H          22.3040   72.3093   -5.7819 H       1  UNL1        0.2106
     40 H          20.1792   75.5252   -7.8901 H       1  UNL1        0.2106
     41 O          20.2491   77.9475   -7.1013 O.co2   1  UNL1       -0.5466
     42 O          22.1239   79.0737   -7.7447 O.co2   1  UNL1       -0.5466
     43 C          21.5671   78.0411   -7.4010 C.2     1  UNL1        0.0799
@<TRIPOS>UNITY_ATOM_ATTR
41 1
charge -1
@<TRIPOS>BOND
     1     1     4    1
     2     1    24    1
     3     1     2    1
     4     1     3    2
     5    25    28    1
     6    25    24    1
     7    25    26    1
     8    25    27    2
     9     6    11    1
    10     6    12    1
    11    29    36    1
    12    29    37    1
    13     7     9    1
    14     7    13    1
    15     8    10    1
    16     8    14    1
    17     4     5    1
    18    28    36    1
    19    30    33    1
    20    30    38    1
    21    31    34    1
    22    31    39    1
    23    32    35    1
    24    32    40    1
    25    41    43   ar
    26    15    19    2
    27    42    43   ar
    28    16    22    2
    29    17    12    1
    30    17    19   ar
    31    17    20   ar
    32    18    19   ar
    33    18    22   ar
    34    18    23    1
    35     9    10    1
    36     9    11    1
    37    10    12    1
    38    11     5    1
    39    33    34    1
    40    33    35    1
    41    34    36    1
    42    35    37    1
    43    37    43    1
    44    20    21   ar
    45    21    22   ar
@<TRIPOS>MOLECULE
UDP-glaA
 43 45 0 0 0
SMALL
GASTEIGER

@<TRIPOS>ATOM
      1 P          22.2441   71.4744   -1.6702 P.3     1  UNL1        0.2189
      2 O          23.4374   71.9089   -2.6725 O.3     1  UNL1       -0.4371
      3 O          22.0948   69.9949   -1.4676 O.2     1  UNL1       -0.5170
      4 O          20.9448   72.2381   -2.2569 O.3     1  UNL1       -0.3112
      5 C          20.3455   71.7426   -3.4421 C.3     1  UNL1        0.1811
      6 O          18.3799   72.3809   -4.6682 O.3     1  UNL1       -0.3308
      7 O          16.8127   71.0739   -2.4711 O.3     1  UNL1       -0.3794
      8 O          16.7661   69.1873   -4.4393 O.3     1  UNL1       -0.3779
      9 C          18.0653   70.6906   -3.0383 C.3     1  UNL1        0.1713
     10 C          17.8570   70.0842   -4.4100 C.3     1  UNL1        0.1895
     11 C          18.8410   71.9598   -3.3654 C.3     1  UNL1        0.1764
     12 C          17.6233   71.3162   -5.2677 C.3     1  UNL1        0.2383
     13 H          16.9989   71.4916   -1.6129 H       1  UNL1        0.2105
     14 H          16.9439   68.4886   -3.7863 H       1  UNL1        0.2106
     15 O          16.0123   70.2878   -7.3467 O.2     1  UNL1       -0.2464
     16 O          19.4248   70.6586  -10.4218 O.2     1  UNL1       -0.2670
     17 N          18.0648   71.1339   -6.6209 N.ar    1  UNL1       -0.2551
     18 N          17.7128   70.4726   -8.8765 N.ar    1  UNL1       -0.2743
     19 C          17.1771   70.6091   -7.5890 C.ar    1  UNL1        0.3323
     20 C          19.3651   71.4736   -6.9775 C.ar    1  UNL1        0.0869
     21 C          19.8608   71.3381   -8.2095 C.ar    1  UNL1        0.0795
     22 C          18.9993   70.7963   -9.2790 C.ar    1  UNL1        0.2626
     23 H          17.0927   70.0966   -9.5887 H       1  UNL1        0.1734
     24 O          22.5788   72.3079   -0.3255 O.3     1  UNL1       -0.2703
     25 P          21.6354   72.7501    0.9103 P.3     1  UNL1        0.2208
     26 O          21.3880   71.3623    1.7033 O.3     1  UNL1       -0.4371
     27 O          20.3784   73.4631    0.5012 O.2     1  UNL1       -0.5170
     28 O          22.6028   73.6062    1.8773 O.3     1  UNL1       -0.2858
     29 O          24.0532   73.5608    3.7465 O.3     1  UNL1       -0.3226
     30 O          20.9370   75.9446    5.1198 O.3     1  UNL1       -0.3794
     31 O          20.3899   73.5630    3.5277 O.3     1  UNL1       -0.3775
     32 O          23.4483   75.2172    6.0111 O.3     1  UNL1       -0.3792
     33 C          21.8622   75.3774    4.1964 C.3     1  UNL1        0.1718
     34 C          21.6592   73.8616    4.0993 C.3     1  UNL1        0.1968
     35 C          23.2856   75.6862    4.6686 C.3     1  UNL1        0.1723
     36 C          22.7576   73.2202    3.2423 C.3     1  UNL1        0.2706
     37 C          24.2911   74.9673    3.7717 C.3     1  UNL1        0.1830
     38 H          21.1032   76.9022    5.1509 H       1  UNL1        0.2105
     39 H          20.3109   72.5955    3.4779 H       1  UNL1        0.2106
     40 H          23.5113   74.2472    5.9940 H       1  UNL1        0.2106
     41 O          26.0092   74.1448    5.1411 O.co2   1  UNL1       -0.5466
     42 O          26.4483   76.0373    3.9484 O.co2   1  UNL1       -0.5466
     43 C          25.6900   75.1353    4.2736 C.2     1  UNL1        0.0799
@<TRIPOS>UNITY_ATOM_ATTR
41 1
charge -1
@<TRIPOS>BOND
     1     1     4    1
     2     1    24    1
     3     1     2    1
     4     1     3    2
     5    25    28    1
     6    25    24    1
     7    25    26    1
     8    25    27    2
     9     6    11    1
    10     6    12    1
    11    29    36    1
    12    29    37    1
    13     7     9    1
    14     7    13    1
    15     8    10    1
    16     8    14    1
    17     4     5    1
    18    28    36    1
    19    30    33    1
    20    30    38    1
    21    31    34    1
    22    31    39    1
    23    32    35    1
    24    32    40    1
    25    41    43   ar
    26    15    19    2
    27    42    43   ar
    28    16    22    2
    29    17    12    1
    30    17    19   ar
    31    17    20   ar
    32    18    19   ar
    33    18    22   ar
    34    18    23    1
    35     9    10    1
    36     9    11    1
    37    10    12    1
    38    11     5    1
    39    33    34    1
    40    33    35    1
    41    34    36    1
    42    35    37    1
    43    37    43    1
    44    20    21   ar
    45    21    22   ar
@<TRIPOS>MOLECULE
UDP-glaA
 43 45 0 0 0
SMALL
GASTEIGER

@<TRIPOS>ATOM
      1 P          21.5176   70.5007   -0.9825 P.3     1  UNL1        0.2189
      2 O          23.0665   70.5641   -1.4454 O.3     1  UNL1       -0.4371
      3 O          21.2588   69.6883    0.2524 O.2     1  UNL1       -0.5170
      4 O          20.7321   70.0255   -2.3139 O.3     1  UNL1       -0.3112
      5 C          20.4921   70.9786   -3.3354 C.3     1  UNL1        0.1811
      6 O          18.6829   72.0083   -4.5356 O.3     1  UNL1       -0.3308
      7 O          16.8771   70.8287   -2.4526 O.3     1  UNL1       -0.3794
      8 O          16.5706   69.1110   -4.5481 O.3     1  UNL1       -0.3779
      9 C          18.0638   70.2860   -3.0313 C.3     1  UNL1        0.1713
     10 C          17.7910   69.8149   -4.4442 C.3     1  UNL1        0.1895
     11 C          19.0410   71.4315   -3.2604 C.3     1  UNL1        0.1764
     12 C          17.7781   71.1232   -5.2163 C.3     1  UNL1        0.2383
     13 H          17.1090   71.1521   -1.5653 H       1  UNL1        0.2105
     14 H          16.6190   68.3505   -3.9435 H       1  UNL1        0.2106
     15 O          16.1358   70.2041   -7.3219 O.2     1  UNL1       -0.2464
     16 O          19.5608   70.5452  -10.3864 O.2     1  UNL1       -0.2670
     17 N          18.2143   70.9628   -6.5740 N.ar    1  UNL1       -0.2551
     18 N          17.8425   70.3741   -8.8464 N.ar    1  UNL1       -0.2743
     19 C          17.3106   70.4935   -7.5557 C.ar    1  UNL1        0.3323
     20 C          19.5253   71.2692   -6.9216 C.ar    1  UNL1        0.0869
     21 C          20.0172   71.1505   -8.1568 C.ar    1  UNL1        0.0795
     22 C          19.1392   70.6661   -9.2403 C.ar    1  UNL1        0.2626
     23 H          17.2110   70.0378   -9.5684 H       1  UNL1        0.1734
     24 O          21.1122   72.0614   -0.8593 O.3     1  UNL1       -0.2703
     25 P          21.9777   73.3491   -0.4061 P.3     1  UNL1        0.2208
     26 O          21.4818   74.5057   -1.4223 O.3     1  UNL1       -0.4371
     27 O          23.4624   73.1227   -0.4015 O.2     1  UNL1       -0.5170
     28 O          21.3633   73.7717    1.0249 O.3     1  UNL1       -0.2858
     29 O          22.6082   74.9436    2.6608 O.3     1  UNL1       -0.3226
     30 O          19.6225   73.1689    4.9445 O.3     1  UNL1       -0.3794
     31 O          20.9104   71.6925    2.7840 O.3     1  UNL1       -0.3775
     32 O          21.6214   75.0307    5.3547 O.3     1  UNL1       -0.3792
     33 C          20.2355   73.7867    3.8162 C.3     1  UNL1        0.1718
     34 C          21.3949   72.9275    3.3007 C.3     1  UNL1        0.1968
     35 C          20.7502   75.1689    4.2273 C.3     1  UNL1        0.1723
     36 C          22.1676   73.6626    2.1985 C.3     1  UNL1        0.2706
     37 C          21.5350   75.7885    3.0730 C.3     1  UNL1        0.1830
     38 H          18.8979   73.7472    5.2379 H       1  UNL1        0.2105
     39 H          21.6766   71.1885    2.4619 H       1  UNL1        0.2106
     40 H          22.4626   74.6503    5.0502 H       1  UNL1        0.2106
     41 O          21.4954   77.6431    4.5092 O.co2   1  UNL1       -0.5466
     42 O          23.1539   77.5754    2.9465 O.co2   1  UNL1       -0.5466
     43 C          22.1664   77.0838    3.4736 C.2     1  UNL1        0.0799
@<TRIPOS>UNITY_ATOM_ATTR
41 1
charge -1
@<TRIPOS>BOND
     1     1     4    1
     2     1    24    1
     3     1     2    1
     4     1     3    2
     5    25    28    1
     6    25    24    1
     7    25    26    1
     8    25    27    2
     9     6    11    1
    10     6    12    1
    11    29    36    1
    12    29    37    1
    13     7     9    1
    14     7    13    1
    15     8    10    1
    16     8    14    1
    17     4     5    1
    18    28    36    1
    19    30    33    1
    20    30    38    1
    21    31    34    1
    22    31    39    1
    23    32    35    1
    24    32    40    1
    25    41    43   ar
    26    15    19    2
    27    42    43   ar
    28    16    22    2
    29    17    12    1
    30    17    19   ar
    31    17    20   ar
    32    18    19   ar
    33    18    22   ar
    34    18    23    1
    35     9    10    1
    36     9    11    1
    37    10    12    1
    38    11     5    1
    39    33    34    1
    40    33    35    1
    41    34    36    1
    42    35    37    1
    43    37    43    1
    44    20    21   ar
    45    21    22   ar
@<TRIPOS>MOLECULE
UDP-glaA
 43 45 0 0 0
SMALL
GASTEIGER

@<TRIPOS>ATOM
      1 P          20.9661   75.0001   -6.5971 P.3     1  UNL1        0.2189
      2 O          20.4244   75.9044   -7.8243 O.3     1  UNL1       -0.4371
      3 O          22.4274   75.1555   -6.2932 O.2     1  UNL1       -0.5170
      4 O          20.4814   73.5035   -6.9723 O.3     1  UNL1       -0.3112
      5 C          21.2690   72.7419   -7.8717 C.3     1  UNL1        0.1811
      6 O          19.9543   70.7495   -8.1483 O.3     1  UNL1       -0.3308
      7 O          18.5486   72.2085  -10.3588 O.3     1  UNL1       -0.3794
      8 O          16.7894   72.4288   -8.2869 O.3     1  UNL1       -0.3779
      9 C          19.0547   72.7125   -9.1229 C.3     1  UNL1        0.1713
     10 C          18.1605   72.2882   -7.9771 C.3     1  UNL1        0.1895
     11 C          20.3483   71.9727   -8.8084 C.3     1  UNL1        0.1764
     12 C          18.5685   70.8383   -7.7783 C.3     1  UNL1        0.2383
     13 H          19.1729   72.4714  -11.0564 H       1  UNL1        0.2105
     14 H          16.6335   73.3634   -8.5069 H       1  UNL1        0.2106
     15 O          16.1740   69.8225   -6.6783 O.2     1  UNL1       -0.2464
     16 O          18.1144   69.2222   -2.5415 O.2     1  UNL1       -0.2670
     17 N          18.4198   70.4086   -6.4172 N.ar    1  UNL1       -0.2551
     18 N          17.1417   69.5247   -4.6189 N.ar    1  UNL1       -0.2743
     19 C          17.1741   69.9150   -5.9642 C.ar    1  UNL1        0.3323
     20 C          19.5014   70.4788   -5.5462 C.ar    1  UNL1        0.0869
     21 C          19.4546   70.1024   -4.2664 C.ar    1  UNL1        0.0795
     22 C          18.1906   69.5762   -3.7140 C.ar    1  UNL1        0.2626
     23 H          16.2561   69.1671   -4.2712 H       1  UNL1        0.1734
     24 O          19.9786   75.4079   -5.3831 O.3     1  UNL1       -0.2703
     25 P          20.1094   75.1810   -3.7881 P.3     1  UNL1        0.2208
     26 O          18.6175   74.7320   -3.3536 O.3     1  UNL1       -0.4371
     27 O          20.6425   76.3684   -3.0387 O.2     1  UNL1       -0.5170
     28 O          20.9989   73.8431   -3.6370 O.3     1  UNL1       -0.2858
     29 O          21.8610   73.7195   -1.4368 O.3     1  UNL1       -0.3226
     30 O          23.5578   70.3732   -3.2263 O.3     1  UNL1       -0.3794
     31 O          23.3749   72.8968   -4.6769 O.3     1  UNL1       -0.3775
     32 O          23.3818   71.4087   -0.6716 O.3     1  UNL1       -0.3792
     33 C          22.5853   71.3779   -2.9518 C.3     1  UNL1        0.1718
     34 C          23.1449   72.7667   -3.2780 C.3     1  UNL1        0.1968
     35 C          22.1999   71.3027   -1.4719 C.3     1  UNL1        0.1723
     36 C          22.1730   73.8638   -2.8263 C.3     1  UNL1        0.2706
     37 C          21.2663   72.4605   -1.1253 C.3     1  UNL1        0.1830
     38 H          23.1622   69.5133   -3.0035 H       1  UNL1        0.2105
     39 H          23.7186   73.7920   -4.8357 H       1  UNL1        0.2106
     40 H          23.6873   72.3314   -0.6924 H       1  UNL1        0.2106
     41 O          21.1774   71.2896    0.9057 O.co2   1  UNL1       -0.5466
     42 O          20.5871   73.4911    0.9499 O.co2   1  UNL1       -0.5466
     43 C          20.9668   72.5023    0.3395 C.2     1  UNL1        0.0799
@<TRIPOS>UNITY_ATOM_ATTR
41 1
charge -1
@<TRIPOS>BOND
     1     1     4    1
     2     1    24    1
     3     1     2    1
     4     1     3    2
     5    25    28    1
     6    25    24    1
     7    25    26    1
     8    25    27    2
     9     6    11    1
    10     6    12    1
    11    29    36    1
    12    29    37    1
    13     7     9    1
    14     7    13    1
    15     8    10    1
    16     8    14    1
    17     4     5    1
    18    28    36    1
    19    30    33    1
    20    30    38    1
    21    31    34    1
    22    31    39    1
    23    32    35    1
    24    32    40    1
    25    41    43   ar
    26    15    19    2
    27    42    43   ar
    28    16    22    2
    29    17    12    1
    30    17    19   ar
    31    17    20   ar
    32    18    19   ar
    33    18    22   ar
    34    18    23    1
    35     9    10    1
    36     9    11    1
    37    10    12    1
    38    11     5    1
    39    33    34    1
    40    33    35    1
    41    34    36    1
    42    35    37    1
    43    37    43    1
    44    20    21   ar
    45    21    22   ar
@<TRIPOS>MOLECULE
UDP-glaA
 43 45 0 0 0
SMALL
GASTEIGER

@<TRIPOS>ATOM
      1 P          21.5331   70.9824   -1.8005 P.3     1  UNL1        0.2189
      2 O          20.4371   69.7981   -1.6835 O.3     1  UNL1       -0.4371
      3 O          22.9470   70.5192   -1.9962 O.2     1  UNL1       -0.5170
      4 O          21.2662   71.8913   -0.4897 O.3     1  UNL1       -0.3112
      5 C          22.3788   72.3093    0.2828 C.3     1  UNL1        0.1811
      6 O          23.2696   72.3876    2.5131 O.3     1  UNL1       -0.3308
      7 O          20.4266   72.2319    3.4535 O.3     1  UNL1       -0.3794
      8 O          20.9962   74.8856    3.7161 O.3     1  UNL1       -0.3779
      9 C          20.9654   72.9004    2.3130 C.3     1  UNL1        0.1713
     10 C          21.7040   74.1519    2.7382 C.3     1  UNL1        0.1895
     11 C          22.0910   72.0407    1.7531 C.3     1  UNL1        0.1764
     12 C          23.0101   73.5836    3.2665 C.3     1  UNL1        0.2383
     13 H          19.9978   71.4186    3.1369 H       1  UNL1        0.2105
     14 H          20.1306   75.1181    3.3380 H       1  UNL1        0.2106
     15 O          24.8902   74.2027    5.2808 O.2     1  UNL1       -0.2464
     16 O          27.1890   77.0769    2.5072 O.2     1  UNL1       -0.2670
     17 N          24.1101   74.4896    3.0980 N.ar    1  UNL1       -0.2551
     18 N          26.0333   75.6339    3.8985 N.ar    1  UNL1       -0.2743
     19 C          24.9967   74.7322    4.1732 C.ar    1  UNL1        0.3323
     20 C          24.3019   75.1277    1.8776 C.ar    1  UNL1        0.0869
     21 C          25.2955   75.9844    1.6313 C.ar    1  UNL1        0.0795
     22 C          26.2647   76.2933    2.7012 C.ar    1  UNL1        0.2626
     23 H          26.6826   75.8240    4.6571 H       1  UNL1        0.1734
     24 O          20.9517   71.8969   -3.0009 O.3     1  UNL1       -0.2703
     25 P          19.4609   72.4546   -3.2823 P.3     1  UNL1        0.2208
     26 O          19.6965   74.0359   -3.5277 O.3     1  UNL1       -0.4371
     27 O          18.4695   72.1360   -2.2000 O.2     1  UNL1       -0.5170
     28 O          19.0728   71.8693   -4.7352 O.3     1  UNL1       -0.2858
     29 O          18.3731   72.8576   -6.7681 O.3     1  UNL1       -0.3226
     30 O          16.0539   69.4106   -6.6320 O.3     1  UNL1       -0.3794
     31 O          16.5077   70.9873   -4.2207 O.3     1  UNL1       -0.3775
     32 O          16.5809   71.4014   -8.4728 O.3     1  UNL1       -0.3792
     33 C          17.1863   70.2529   -6.4358 C.3     1  UNL1        0.1718
     34 C          16.8216   71.4373   -5.5344 C.3     1  UNL1        0.1968
     35 C          17.6681   70.7601   -7.7978 C.3     1  UNL1        0.1723
     36 C          17.9812   72.4382   -5.4569 C.3     1  UNL1        0.2706
     37 C          18.7910   71.7759   -7.5993 C.3     1  UNL1        0.1830
     38 H          16.3297   68.6779   -7.2088 H       1  UNL1        0.2105
     39 H          16.2933   71.7701   -3.6858 H       1  UNL1        0.2106
     40 H          16.4190   72.2616   -8.0498 H       1  UNL1        0.2106
     41 O          19.7320   73.6260   -8.6927 O.co2   1  UNL1       -0.5466
     42 O          19.0896   71.8676   -9.9935 O.co2   1  UNL1       -0.5466
     43 C          19.2048   72.3947   -8.8966 C.2     1  UNL1        0.0799
@<TRIPOS>UNITY_ATOM_ATTR
41 1
charge -1
@<TRIPOS>BOND
     1     1     4    1
     2     1    24    1
     3     1     2    1
     4     1     3    2
     5    25    28    1
     6    25    24    1
     7    25    26    1
     8    25    27    2
     9     6    11    1
    10     6    12    1
    11    29    36    1
    12    29    37    1
    13     7     9    1
    14     7    13    1
    15     8    10    1
    16     8    14    1
    17     4     5    1
    18    28    36    1
    19    30    33    1
    20    30    38    1
    21    31    34    1
    22    31    39    1
    23    32    35    1
    24    32    40    1
    25    41    43   ar
    26    15    19    2
    27    42    43   ar
    28    16    22    2
    29    17    12    1
    30    17    19   ar
    31    17    20   ar
    32    18    19   ar
    33    18    22   ar
    34    18    23    1
    35     9    10    1
    36     9    11    1
    37    10    12    1
    38    11     5    1
    39    33    34    1
    40    33    35    1
    41    34    36    1
    42    35    37    1
    43    37    43    1
    44    20    21   ar
    45    21    22   ar
@<TRIPOS>MOLECULE
UDP-glaA
 43 45 0 0 0
SMALL
GASTEIGER

@<TRIPOS>ATOM
      1 P          21.6372   73.4703   -5.7654 P.3     1  UNL1        0.2189
      2 O          21.1067   74.9050   -6.2922 O.3     1  UNL1       -0.4371
      3 O          22.6360   72.7971   -6.6606 O.2     1  UNL1       -0.5170
      4 O          20.2823   72.6373   -5.4725 O.3     1  UNL1       -0.3112
      5 C          20.3915   71.3472   -4.8955 C.3     1  UNL1        0.1811
      6 O          18.2324   72.0986   -4.1554 O.3     1  UNL1       -0.3308
      7 O          18.1075   69.5666   -2.5539 O.3     1  UNL1       -0.3794
      8 O          16.5580   68.9787   -4.7194 O.3     1  UNL1       -0.3779
      9 C          18.6753   69.7922   -3.8441 C.3     1  UNL1        0.1713
     10 C          17.5815   69.9388   -4.8808 C.3     1  UNL1        0.1895
     11 C          19.3031   71.1798   -3.8448 C.3     1  UNL1        0.1764
     12 C          17.0969   71.3567   -4.6303 C.3     1  UNL1        0.2383
     13 H          18.8419   69.5184   -1.9185 H       1  UNL1        0.2105
     14 H          16.9685   68.0993   -4.7857 H       1  UNL1        0.2106
     15 O          17.7140   70.5200   -7.2560 O.2     1  UNL1       -0.2464
     16 O          15.1117   73.8355   -9.1199 O.2     1  UNL1       -0.2670
     17 N          16.5943   71.9825   -5.8198 N.ar    1  UNL1       -0.2551
     18 N          16.4182   72.1719   -8.1824 N.ar    1  UNL1       -0.2743
     19 C          16.9659   71.4853   -7.0908 C.ar    1  UNL1        0.3323
     20 C          15.7426   73.0771   -5.7203 C.ar    1  UNL1        0.0869
     21 C          15.2283   73.7206   -6.7706 C.ar    1  UNL1        0.0795
     22 C          15.5674   73.2653   -8.1334 C.ar    1  UNL1        0.2626
     23 H          16.6721   71.8322   -9.1062 H       1  UNL1        0.1734
     24 O          22.1835   73.8086   -4.2814 O.3     1  UNL1       -0.2703
     25 P          23.3978   73.1696   -3.4273 P.3     1  UNL1        0.2208
     26 O          24.6790   74.0382   -3.8967 O.3     1  UNL1       -0.4371
     27 O          23.5579   71.6861   -3.5991 O.2     1  UNL1       -0.5170
     28 O          23.1207   73.6386   -1.9084 O.3     1  UNL1       -0.2858
     29 O          21.6246   72.0155   -1.0560 O.3     1  UNL1       -0.3226
     30 O          22.3714   74.3573    2.2962 O.3     1  UNL1       -0.3794
     31 O          21.9895   75.5918   -0.3183 O.3     1  UNL1       -0.3775
     32 O          21.0862   71.9712    1.7630 O.3     1  UNL1       -0.3792
     33 C          22.6261   73.6947    1.0608 C.3     1  UNL1        0.1718
     34 C          21.6956   74.2282   -0.0336 C.3     1  UNL1        0.1968
     35 C          22.4043   72.1916    1.2502 C.3     1  UNL1        0.1723
     36 C          21.8419   73.4055   -1.3197 C.3     1  UNL1        0.2706
     37 C          22.5334   71.4803   -0.0950 C.3     1  UNL1        0.1830
     38 H          22.9796   73.9872    2.9585 H       1  UNL1        0.2105
     39 H          21.3838   75.8820   -1.0210 H       1  UNL1        0.2106
     40 H          20.4468   72.1203    1.0460 H       1  UNL1        0.2106
     41 O          20.9218   69.7991   -0.3777 O.co2   1  UNL1       -0.5466
     42 O          22.9618   69.1591    0.4133 O.co2   1  UNL1       -0.5466
     43 C          22.1968   70.0275    0.0196 C.2     1  UNL1        0.0799
@<TRIPOS>UNITY_ATOM_ATTR
41 1
charge -1
@<TRIPOS>BOND
     1     1     4    1
     2     1    24    1
     3     1     2    1
     4     1     3    2
     5    25    28    1
     6    25    24    1
     7    25    26    1
     8    25    27    2
     9     6    11    1
    10     6    12    1
    11    29    36    1
    12    29    37    1
    13     7     9    1
    14     7    13    1
    15     8    10    1
    16     8    14    1
    17     4     5    1
    18    28    36    1
    19    30    33    1
    20    30    38    1
    21    31    34    1
    22    31    39    1
    23    32    35    1
    24    32    40    1
    25    41    43   ar
    26    15    19    2
    27    42    43   ar
    28    16    22    2
    29    17    12    1
    30    17    19   ar
    31    17    20   ar
    32    18    19   ar
    33    18    22   ar
    34    18    23    1
    35     9    10    1
    36     9    11    1
    37    10    12    1
    38    11     5    1
    39    33    34    1
    40    33    35    1
    41    34    36    1
    42    35    37    1
    43    37    43    1
    44    20    21   ar
    45    21    22   ar
@<TRIPOS>MOLECULE
UDP-glaA
 43 45 0 0 0
SMALL
GASTEIGER

@<TRIPOS>ATOM
      1 P          22.6592   73.0822   -3.7194 P.3     1  UNL1        0.2189
      2 O          23.4697   71.6823   -3.7430 O.3     1  UNL1       -0.4371
      3 O          22.8271   73.8898   -2.4658 O.2     1  UNL1       -0.5170
      4 O          21.1415   72.6600   -4.0855 O.3     1  UNL1       -0.3112
      5 C          20.5843   71.5200   -3.4536 C.3     1  UNL1        0.1811
      6 O          18.5613   72.1725   -4.5744 O.3     1  UNL1       -0.3308
      7 O          17.1036   70.7869   -2.3503 O.3     1  UNL1       -0.3794
      8 O          16.9885   68.9570   -4.3687 O.3     1  UNL1       -0.3779
      9 C          18.3337   70.4331   -2.9822 C.3     1  UNL1        0.1713
     10 C          18.0714   69.8641   -4.3606 C.3     1  UNL1        0.1895
     11 C          19.0826   71.7192   -3.3055 C.3     1  UNL1        0.1764
     12 C          17.7891   71.1176   -5.1712 C.3     1  UNL1        0.2383
     13 H          17.3232   71.1817   -1.4892 H       1  UNL1        0.2105
     14 H          17.2011   68.2418   -3.7445 H       1  UNL1        0.2106
     15 O          16.0663   70.2330   -7.2266 O.2     1  UNL1       -0.2464
     16 O          19.3716   70.6214  -10.4145 O.2     1  UNL1       -0.2670
     17 N          18.1728   70.9787   -6.5470 N.ar    1  UNL1       -0.2551
     18 N          17.7135   70.4265   -8.8126 N.ar    1  UNL1       -0.2743
     19 C          17.2316   70.5255   -7.5007 C.ar    1  UNL1        0.3323
     20 C          19.4699   71.2900   -6.9397 C.ar    1  UNL1        0.0869
     21 C          19.9138   71.1909   -8.1946 C.ar    1  UNL1        0.0795
     22 C          18.9944   70.7242   -9.2512 C.ar    1  UNL1        0.2626
     23 H          17.0544   70.1021   -9.5150 H       1  UNL1        0.1734
     24 O          23.1667   73.8175   -5.0674 O.3     1  UNL1       -0.2703
     25 P          22.4689   74.9519   -5.9833 P.3     1  UNL1        0.2208
     26 O          22.6728   76.3038   -5.1190 O.3     1  UNL1       -0.4371
     27 O          21.0417   74.6580   -6.3471 O.2     1  UNL1       -0.5170
     28 O          23.4576   75.1222   -7.2472 O.3     1  UNL1       -0.2858
     29 O          23.7846   76.8209   -8.8618 O.3     1  UNL1       -0.3226
     30 O          24.1996   73.3661  -11.1360 O.3     1  UNL1       -0.3794
     31 O          22.1291   73.5537   -9.0905 O.3     1  UNL1       -0.3775
     32 O          24.5813   76.0753  -11.5166 O.3     1  UNL1       -0.3792
     33 C          24.2827   74.2202   -9.9985 C.3     1  UNL1        0.1718
     34 C          22.8831   74.6658   -9.5613 C.3     1  UNL1        0.1968
     35 C          25.1330   75.4419  -10.3576 C.3     1  UNL1        0.1723
     36 C          22.9708   75.7181   -8.4489 C.3     1  UNL1        0.2706
     37 C          25.1167   76.4369   -9.1992 C.3     1  UNL1        0.1830
     38 H          25.1061   73.1115  -11.3785 H       1  UNL1        0.2105
     39 H          21.2572   73.8851   -8.8171 H       1  UNL1        0.2106
     40 H          23.7675   76.5396  -11.2570 H       1  UNL1        0.2106
     41 O          26.9160   77.4422  -10.3199 O.co2   1  UNL1       -0.5466
     42 O          25.4808   78.8238   -9.2116 O.co2   1  UNL1       -0.5466
     43 C          25.8282   77.7033   -9.5556 C.2     1  UNL1        0.0799
@<TRIPOS>UNITY_ATOM_ATTR
41 1
charge -1
@<TRIPOS>BOND
     1     1     4    1
     2     1    24    1
     3     1     2    1
     4     1     3    2
     5    25    28    1
     6    25    24    1
     7    25    26    1
     8    25    27    2
     9     6    11    1
    10     6    12    1
    11    29    36    1
    12    29    37    1
    13     7     9    1
    14     7    13    1
    15     8    10    1
    16     8    14    1
    17     4     5    1
    18    28    36    1
    19    30    33    1
    20    30    38    1
    21    31    34    1
    22    31    39    1
    23    32    35    1
    24    32    40    1
    25    41    43   ar
    26    15    19    2
    27    42    43   ar
    28    16    22    2
    29    17    12    1
    30    17    19   ar
    31    17    20   ar
    32    18    19   ar
    33    18    22   ar
    34    18    23    1
    35     9    10    1
    36     9    11    1
    37    10    12    1
    38    11     5    1
    39    33    34    1
    40    33    35    1
    41    34    36    1
    42    35    37    1
    43    37    43    1
    44    20    21   ar
    45    21    22   ar
@<TRIPOS>MOLECULE
UDP-glaA
 43 45 0 0 0
SMALL
GASTEIGER

@<TRIPOS>ATOM
      1 P          22.3313   71.7965   -2.7422 P.3     1  UNL1        0.2189
      2 O          22.2084   73.2725   -2.0914 O.3     1  UNL1       -0.4371
      3 O          23.1064   71.7332   -4.0257 O.2     1  UNL1       -0.5170
      4 O          20.8022   71.2754   -2.8180 O.3     1  UNL1       -0.3112
      5 C          20.1286   71.3308   -4.0641 C.3     1  UNL1        0.1811
      6 O          17.9555   72.3480   -4.1945 O.3     1  UNL1       -0.3308
      7 O          16.8504   69.5634   -4.0678 O.3     1  UNL1       -0.3794
      8 O          16.6855   70.1491   -6.7259 O.3     1  UNL1       -0.3779
      9 C          18.0358   70.0365   -4.7072 C.3     1  UNL1        0.1713
     10 C          17.6841   70.7992   -5.9671 C.3     1  UNL1        0.1895
     11 C          18.6382   71.1275   -3.8318 C.3     1  UNL1        0.1764
     12 C          17.2179   72.1330   -5.4090 C.3     1  UNL1        0.2383
     13 H          17.1220   69.1166   -3.2480 H       1  UNL1        0.2105
     14 H          17.0190   69.2635   -6.9510 H       1  UNL1        0.2106
     15 O          15.6125   72.7613   -7.6458 O.2     1  UNL1       -0.2464
     16 O          18.2872   76.3351   -8.7915 O.2     1  UNL1       -0.2670
     17 N          17.4710   73.2222   -6.3083 N.ar    1  UNL1       -0.2551
     18 N          16.9458   74.5402   -8.2151 N.ar    1  UNL1       -0.2743
     19 C          16.6039   73.4515   -7.4021 C.ar    1  UNL1        0.3323
     20 C          18.5690   74.0502   -6.1025 C.ar    1  UNL1        0.0869
     21 C          18.8812   75.0845   -6.8864 C.ar    1  UNL1        0.0795
     22 C          18.0273   75.3917   -8.0510 C.ar    1  UNL1        0.2626
     23 H          16.3368   74.7235   -9.0080 H       1  UNL1        0.1734
     24 O          22.9544   70.9190   -1.5351 O.3     1  UNL1       -0.2703
     25 P          22.3291   70.4804   -0.1107 P.3     1  UNL1        0.2208
     26 O          23.4276   69.4476    0.4746 O.3     1  UNL1       -0.4371
     27 O          20.9369   69.9230   -0.1945 O.2     1  UNL1       -0.5170
     28 O          22.4669   71.7928    0.8180 O.3     1  UNL1       -0.2858
     29 O          21.8695   72.3738    3.0327 O.3     1  UNL1       -0.3226
     30 O          20.8292   75.8008    0.9225 O.3     1  UNL1       -0.3794
     31 O          20.2858   73.1575   -0.1837 O.3     1  UNL1       -0.3775
     32 O          21.0030   75.0556    3.5766 O.3     1  UNL1       -0.3792
     33 C          21.5649   74.6300    1.2662 C.3     1  UNL1        0.1718
     34 C          20.6714   73.3890    1.1671 C.3     1  UNL1        0.1968
     35 C          22.0960   74.7803    2.6944 C.3     1  UNL1        0.1723
     36 C          21.4021   72.1496    1.6984 C.3     1  UNL1        0.2706
     37 C          22.7656   73.4796    3.1326 C.3     1  UNL1        0.1830
     38 H          21.4319   76.5598    1.0013 H       1  UNL1        0.2105
     39 H          19.7312   72.3593   -0.1979 H       1  UNL1        0.2106
     40 H          20.4921   74.2377    3.7001 H       1  UNL1        0.2106
     41 O          22.2658   72.9328    5.3585 O.co2   1  UNL1       -0.5466
     42 O          24.2152   74.0513    4.9769 O.co2   1  UNL1       -0.5466
     43 C          23.1850   73.5363    4.5671 C.2     1  UNL1        0.0799
@<TRIPOS>UNITY_ATOM_ATTR
41 1
charge -1
@<TRIPOS>BOND
     1     1     4    1
     2     1    24    1
     3     1     2    1
     4     1     3    2
     5    25    28    1
     6    25    24    1
     7    25    26    1
     8    25    27    2
     9     6    11    1
    10     6    12    1
    11    29    36    1
    12    29    37    1
    13     7     9    1
    14     7    13    1
    15     8    10    1
    16     8    14    1
    17     4     5    1
    18    28    36    1
    19    30    33    1
    20    30    38    1
    21    31    34    1
    22    31    39    1
    23    32    35    1
    24    32    40    1
    25    41    43   ar
    26    15    19    2
    27    42    43   ar
    28    16    22    2
    29    17    12    1
    30    17    19   ar
    31    17    20   ar
    32    18    19   ar
    33    18    22   ar
    34    18    23    1
    35     9    10    1
    36     9    11    1
    37    10    12    1
    38    11     5    1
    39    33    34    1
    40    33    35    1
    41    34    36    1
    42    35    37    1
    43    37    43    1
    44    20    21   ar
    45    21    22   ar
@<TRIPOS>MOLECULE
UDP-glaA
 43 45 0 0 0
SMALL
GASTEIGER

@<TRIPOS>ATOM
      1 P          21.9970   70.3866   -0.1903 P.3     1  UNL1        0.2189
      2 O          20.6633   69.9191   -0.9778 O.3     1  UNL1       -0.4371
      3 O          22.9549   69.2808    0.1441 O.2     1  UNL1       -0.5170
      4 O          21.4310   71.2307    1.0677 O.3     1  UNL1       -0.3112
      5 C          21.1858   72.6165    0.8984 C.3     1  UNL1        0.1811
      6 O          21.4170   74.5895    2.2505 O.3     1  UNL1       -0.3308
      7 O          23.7085   73.1838    3.5788 O.3     1  UNL1       -0.3794
      8 O          21.6837   72.8500    5.3744 O.3     1  UNL1       -0.3779
      9 C          22.4814   72.6453    3.0869 C.3     1  UNL1        0.1713
     10 C          21.3400   73.0080    4.0133 C.3     1  UNL1        0.1895
     11 C          22.1130   73.4002    1.8165 C.3     1  UNL1        0.1764
     12 C          21.0799   74.4578    3.6413 C.3     1  UNL1        0.2383
     13 H          24.4019   72.9602    2.9348 H       1  UNL1        0.2105
     14 H          21.9408   71.9211    5.5054 H       1  UNL1        0.2106
     15 O          19.9413   75.1647    6.1271 O.2     1  UNL1       -0.2464
     16 O          15.8010   75.8806    4.2341 O.2     1  UNL1       -0.2670
     17 N          19.7074   74.8337    3.8269 N.ar    1  UNL1       -0.2551
     18 N          17.8802   75.5202    5.1829 N.ar    1  UNL1       -0.2743
     19 C          19.2352   75.1698    5.1171 C.ar    1  UNL1        0.3323
     20 C          18.8443   74.8664    2.7372 C.ar    1  UNL1        0.0869
     21 C          17.5550   75.2031    2.8162 C.ar    1  UNL1        0.0795
     22 C          16.9826   75.5669    4.1275 C.ar    1  UNL1        0.2626
     23 H          17.5187   75.7651    6.1007 H       1  UNL1        0.1734
     24 O          22.6035   71.5345   -1.1545 O.3     1  UNL1       -0.2703
     25 P          22.6397   71.6555   -2.7659 P.3     1  UNL1        0.2208
     26 O          23.5422   70.3898   -3.2129 O.3     1  UNL1       -0.4371
     27 O          23.1345   72.9798   -3.2732 O.2     1  UNL1       -0.5170
     28 O          21.1437   71.2775   -3.2381 O.3     1  UNL1       -0.2858
     29 O          20.2304   72.2421   -5.1964 O.3     1  UNL1       -0.3226
     30 O          16.8307   70.8844   -3.2273 O.3     1  UNL1       -0.3794
     31 O          18.9955   72.1543   -1.7417 O.3     1  UNL1       -0.3775
     32 O          17.4220   71.9438   -5.7088 O.3     1  UNL1       -0.3792
     33 C          18.1865   70.9079   -3.6649 C.3     1  UNL1        0.1718
     34 C          18.8887   72.1734   -3.1613 C.3     1  UNL1        0.1968
     35 C          18.2137   70.8675   -5.1953 C.3     1  UNL1        0.1723
     36 C          20.2926   72.2933   -3.7672 C.3     1  UNL1        0.2706
     37 C          19.6495   71.0352   -5.6877 C.3     1  UNL1        0.1830
     38 H          16.4258   70.0695   -3.5703 H       1  UNL1        0.2105
     39 H          19.4534   72.9678   -1.4710 H       1  UNL1        0.2106
     40 H          17.9097   72.7749   -5.5796 H       1  UNL1        0.2106
     41 O          20.7070   71.9624   -7.5654 O.co2   1  UNL1       -0.5466
     42 O          18.9652   70.5428   -7.9502 O.co2   1  UNL1       -0.5466
     43 C          19.7088   71.1316   -7.1790 C.2     1  UNL1        0.0799
@<TRIPOS>UNITY_ATOM_ATTR
41 1
charge -1
@<TRIPOS>BOND
     1     1     4    1
     2     1    24    1
     3     1     2    1
     4     1     3    2
     5    25    28    1
     6    25    24    1
     7    25    26    1
     8    25    27    2
     9     6    11    1
    10     6    12    1
    11    29    36    1
    12    29    37    1
    13     7     9    1
    14     7    13    1
    15     8    10    1
    16     8    14    1
    17     4     5    1
    18    28    36    1
    19    30    33    1
    20    30    38    1
    21    31    34    1
    22    31    39    1
    23    32    35    1
    24    32    40    1
    25    41    43   ar
    26    15    19    2
    27    42    43   ar
    28    16    22    2
    29    17    12    1
    30    17    19   ar
    31    17    20   ar
    32    18    19   ar
    33    18    22   ar
    34    18    23    1
    35     9    10    1
    36     9    11    1
    37    10    12    1
    38    11     5    1
    39    33    34    1
    40    33    35    1
    41    34    36    1
    42    35    37    1
    43    37    43    1
    44    20    21   ar
    45    21    22   ar
@<TRIPOS>MOLECULE
UDP-glaA
 43 45 0 0 0
SMALL
GASTEIGER

@<TRIPOS>ATOM
      1 P          22.5841   72.9406   -4.3886 P.3     1  UNL1        0.2189
      2 O          22.9533   73.4249   -5.8874 O.3     1  UNL1       -0.4371
      3 O          23.4427   71.8330   -3.8518 O.2     1  UNL1       -0.5170
      4 O          20.9985   72.6297   -4.4591 O.3     1  UNL1       -0.3112
      5 C          20.4561   71.6700   -3.5679 C.3     1  UNL1        0.1811
      6 O          18.4642   72.3384   -4.7341 O.3     1  UNL1       -0.3308
      7 O          16.9449   71.0081   -2.5175 O.3     1  UNL1       -0.3794
      8 O          16.8363   69.1515   -4.5118 O.3     1  UNL1       -0.3779
      9 C          18.1802   70.6257   -3.1221 C.3     1  UNL1        0.1713
     10 C          17.9334   70.0414   -4.4969 C.3     1  UNL1        0.1895
     11 C          18.9554   71.8951   -3.4498 C.3     1  UNL1        0.1764
     12 C          17.6859   71.2875   -5.3299 C.3     1  UNL1        0.2383
     13 H          17.1554   71.4116   -1.6582 H       1  UNL1        0.2105
     14 H          17.0262   68.4421   -3.8740 H       1  UNL1        0.2106
     15 O          16.0318   71.8068   -7.5592 O.2     1  UNL1       -0.2464
     16 O          19.3498   70.6183  -10.5286 O.2     1  UNL1       -0.2670
     17 N          18.0918   71.1229   -6.6965 N.ar    1  UNL1       -0.2551
     18 N          17.6850   71.2141   -9.0364 N.ar    1  UNL1       -0.2743
     19 C          17.1842   71.4103   -7.7426 C.ar    1  UNL1        0.3323
     20 C          19.3772   70.6808   -6.9894 C.ar    1  UNL1        0.0869
     21 C          19.8398   70.4992   -8.2282 C.ar    1  UNL1        0.0795
     22 C          18.9551   70.7758   -9.3773 C.ar    1  UNL1        0.2626
     23 H          17.0497   71.4139   -9.8042 H       1  UNL1        0.1734
     24 O          22.6472   74.3145   -3.5380 O.3     1  UNL1       -0.2703
     25 P          21.9935   74.7108   -2.1139 P.3     1  UNL1        0.2208
     26 O          20.4660   75.0802   -2.4967 O.3     1  UNL1       -0.4371
     27 O          22.7282   75.7954   -1.3793 O.2     1  UNL1       -0.5170
     28 O          21.8871   73.3155   -1.3103 O.3     1  UNL1       -0.2858
     29 O          22.8761   73.5944    0.8213 O.3     1  UNL1       -0.3226
     30 O          21.7665   69.5890    0.8933 O.3     1  UNL1       -0.3794
     31 O          22.9210   70.7636   -1.5137 O.3     1  UNL1       -0.3775
     32 O          22.7471   71.4309    2.7031 O.3     1  UNL1       -0.3792
     33 C          21.6977   70.9763    0.5755 C.3     1  UNL1        0.1718
     34 C          22.9243   71.3993   -0.2399 C.3     1  UNL1        0.1968
     35 C          21.6314   71.7798    1.8772 C.3     1  UNL1        0.1723
     36 C          22.9459   72.9199   -0.4394 C.3     1  UNL1        0.2706
     37 C          21.7004   73.2727    1.5629 C.3     1  UNL1        0.1830
     38 H          20.9735   69.3667    1.4102 H       1  UNL1        0.2105
     39 H          23.7083   71.0682   -1.9957 H       1  UNL1        0.2106
     40 H          23.5478   71.8345    2.3273 H       1  UNL1        0.2106
     41 O          22.3311   75.2995    2.5618 O.co2   1  UNL1       -0.5466
     42 O          21.3726   73.7314    3.9106 O.co2   1  UNL1       -0.5466
     43 C          21.7693   74.0923    2.8120 C.2     1  UNL1        0.0799
@<TRIPOS>UNITY_ATOM_ATTR
41 1
charge -1
@<TRIPOS>BOND
     1     1     4    1
     2     1    24    1
     3     1     2    1
     4     1     3    2
     5    25    28    1
     6    25    24    1
     7    25    26    1
     8    25    27    2
     9     6    11    1
    10     6    12    1
    11    29    36    1
    12    29    37    1
    13     7     9    1
    14     7    13    1
    15     8    10    1
    16     8    14    1
    17     4     5    1
    18    28    36    1
    19    30    33    1
    20    30    38    1
    21    31    34    1
    22    31    39    1
    23    32    35    1
    24    32    40    1
    25    41    43   ar
    26    15    19    2
    27    42    43   ar
    28    16    22    2
    29    17    12    1
    30    17    19   ar
    31    17    20   ar
    32    18    19   ar
    33    18    22   ar
    34    18    23    1
    35     9    10    1
    36     9    11    1
    37    10    12    1
    38    11     5    1
    39    33    34    1
    40    33    35    1
    41    34    36    1
    42    35    37    1
    43    37    43    1
    44    20    21   ar
    45    21    22   ar
@<TRIPOS>MOLECULE
UDP-glaA
 43 45 0 0 0
SMALL
GASTEIGER

@<TRIPOS>ATOM
      1 P          21.2065   70.9437   -2.8272 P.3     1  UNL1        0.2189
      2 O          22.1300   72.2031   -3.2496 O.3     1  UNL1       -0.4371
      3 O          21.7133   69.6064   -3.2822 O.2     1  UNL1       -0.5170
      4 O          19.7306   71.3505   -3.3483 O.3     1  UNL1       -0.3112
      5 C          19.0842   70.5024   -4.2822 C.3     1  UNL1        0.1811
      6 O          18.4759   72.5186   -5.4394 O.3     1  UNL1       -0.3308
      7 O          16.0362   71.0350   -6.3549 O.3     1  UNL1       -0.3794
      8 O          17.6612   70.9155   -8.5414 O.3     1  UNL1       -0.3779
      9 C          17.3649   70.5526   -6.1558 C.3     1  UNL1        0.1713
     10 C          18.2698   71.0304   -7.2718 C.3     1  UNL1        0.1895
     11 C          17.9478   71.2683   -4.9443 C.3     1  UNL1        0.1764
     12 C          18.5249   72.4745   -6.8750 C.3     1  UNL1        0.2383
     13 H          15.5034   70.7376   -5.5978 H       1  UNL1        0.2105
     14 H          17.4314   69.9794   -8.6722 H       1  UNL1        0.2106
     15 O          19.0186   73.6462   -9.3967 O.2     1  UNL1       -0.2464
     16 O          23.4893   74.2410   -8.4490 O.2     1  UNL1       -0.2670
     17 N          19.8079   72.9449   -7.3132 N.ar    1  UNL1       -0.2551
     18 N          21.2446   73.9412   -8.9233 N.ar    1  UNL1       -0.2743
     19 C          19.9492   73.5169   -8.5992 C.ar    1  UNL1        0.3323
     20 C          20.9100   72.8372   -6.4723 C.ar    1  UNL1        0.0869
     21 C          22.1385   73.2469   -6.7957 C.ar    1  UNL1        0.0795
     22 C          22.3717   73.8547   -8.1208 C.ar    1  UNL1        0.2626
     23 H          21.3700   74.3550   -9.8432 H       1  UNL1        0.1734
     24 O          21.0830   71.1068   -1.2230 O.3     1  UNL1       -0.2703
     25 P          22.0906   70.6805   -0.0332 P.3     1  UNL1        0.2208
     26 O          23.5015   70.4763   -0.7971 O.3     1  UNL1       -0.4371
     27 O          21.6371   69.4889    0.7606 O.2     1  UNL1       -0.5170
     28 O          22.2881   72.0252    0.8368 O.3     1  UNL1       -0.2858
     29 O          21.5972   72.6131    3.0223 O.3     1  UNL1       -0.3226
     30 O          21.2453   76.2256    0.9962 O.3     1  UNL1       -0.3794
     31 O          20.4197   73.7309   -0.2688 O.3     1  UNL1       -0.3775
     32 O          21.0858   75.3738    3.6189 O.3     1  UNL1       -0.3792
     33 C          21.7722   74.9478    1.3425 C.3     1  UNL1        0.1718
     34 C          20.7199   73.8569    1.1171 C.3     1  UNL1        0.1968
     35 C          22.1976   74.9696    2.8132 C.3     1  UNL1        0.1723
     36 C          21.2161   72.5058    1.6468 C.3     1  UNL1        0.2706
     37 C          22.6325   73.5700    3.2423 C.3     1  UNL1        0.1830
     38 H          21.9429   76.8839    1.1565 H       1  UNL1        0.2105
     39 H          19.7585   73.0246   -0.3627 H       1  UNL1        0.2106
     40 H          20.4533   74.6368    3.6646 H       1  UNL1        0.2106
     41 O          22.1865   72.5620    5.3133 O.co2   1  UNL1       -0.5466
     42 O          23.7434   74.2271    5.2829 O.co2   1  UNL1       -0.5466
     43 C          22.9337   73.5154    4.7063 C.2     1  UNL1        0.0799
@<TRIPOS>UNITY_ATOM_ATTR
41 1
charge -1
@<TRIPOS>BOND
     1     1     4    1
     2     1    24    1
     3     1     2    1
     4     1     3    2
     5    25    28    1
     6    25    24    1
     7    25    26    1
     8    25    27    2
     9     6    11    1
    10     6    12    1
    11    29    36    1
    12    29    37    1
    13     7     9    1
    14     7    13    1
    15     8    10    1
    16     8    14    1
    17     4     5    1
    18    28    36    1
    19    30    33    1
    20    30    38    1
    21    31    34    1
    22    31    39    1
    23    32    35    1
    24    32    40    1
    25    41    43   ar
    26    15    19    2
    27    42    43   ar
    28    16    22    2
    29    17    12    1
    30    17    19   ar
    31    17    20   ar
    32    18    19   ar
    33    18    22   ar
    34    18    23    1
    35     9    10    1
    36     9    11    1
    37    10    12    1
    38    11     5    1
    39    33    34    1
    40    33    35    1
    41    34    36    1
    42    35    37    1
    43    37    43    1
    44    20    21   ar
    45    21    22   ar
@<TRIPOS>MOLECULE
UDP-glaA
 43 45 0 0 0
SMALL
GASTEIGER

@<TRIPOS>ATOM
      1 P          21.8008   74.8271   -5.8282 P.3     1  UNL1        0.2189
      2 O          20.9513   76.1640   -5.4991 O.3     1  UNL1       -0.4371
      3 O          23.1258   75.0663   -6.4911 O.2     1  UNL1       -0.5170
      4 O          20.7622   73.8974   -6.6482 O.3     1  UNL1       -0.3112
      5 C          19.8410   74.5221   -7.5258 C.3     1  UNL1        0.1811
      6 O          19.6041   72.2034   -8.1103 O.3     1  UNL1       -0.3308
      7 O          17.9206   73.1469  -10.4053 O.3     1  UNL1       -0.3794
      8 O          16.0538   72.3208   -8.5974 O.3     1  UNL1       -0.3779
      9 C          18.0173   73.6706   -9.0808 C.3     1  UNL1        0.1713
     10 C          17.3015   72.7623   -8.1034 C.3     1  UNL1        0.1895
     11 C          19.4667   73.5442   -8.6305 C.3     1  UNL1        0.1764
     12 C          18.2985   71.6280   -7.9381 C.3     1  UNL1        0.2383
     13 H          18.4252   73.7391  -10.9886 H       1  UNL1        0.2105
     14 H          15.5152   73.1101   -8.7793 H       1  UNL1        0.2106
     15 O          16.1589   70.0093   -7.0567 O.2     1  UNL1       -0.2464
     16 O          18.1205   69.3400   -2.9405 O.2     1  UNL1       -0.2670
     17 N          18.2244   71.0176   -6.6415 N.ar    1  UNL1       -0.2551
     18 N          17.1368   69.6775   -5.0074 N.ar    1  UNL1       -0.2743
     19 C          17.1056   70.2234   -6.2974 C.ar    1  UNL1        0.3323
     20 C          19.2531   71.2085   -5.7257 C.ar    1  UNL1        0.0869
     21 C          19.2684   70.6807   -4.4997 C.ar    1  UNL1        0.0795
     22 C          18.1372   69.8394   -4.0614 C.ar    1  UNL1        0.2626
     23 H          16.3425   69.1035   -4.7380 H       1  UNL1        0.1734
     24 O          21.8899   74.0914   -4.3908 O.3     1  UNL1       -0.2703
     25 P          23.0743   74.0519   -3.2916 P.3     1  UNL1        0.2208
     26 O          23.1960   75.5948   -2.8217 O.3     1  UNL1       -0.4371
     27 O          24.3579   73.4526   -3.7904 O.2     1  UNL1       -0.5170
     28 O          22.4304   73.2885   -2.0240 O.3     1  UNL1       -0.2858
     29 O          22.9979   72.2720    0.0361 O.3     1  UNL1       -0.3226
     30 O          20.9604   69.2163   -1.9108 O.3     1  UNL1       -0.3794
     31 O          22.8342   70.9108   -3.3680 O.3     1  UNL1       -0.3775
     32 O          21.9646   69.6595    0.6239 O.3     1  UNL1       -0.3792
     33 C          21.2965   70.5452   -1.5218 C.3     1  UNL1        0.1718
     34 C          22.7296   70.8806   -1.9485 C.3     1  UNL1        0.1968
     35 C          21.1609   70.6654   -0.0014 C.3     1  UNL1        0.1723
     36 C          23.1596   72.2411   -1.3858 C.3     1  UNL1        0.2706
     37 C          21.6528   72.0386    0.4508 C.3     1  UNL1        0.1830
     38 H          20.0483   69.0471   -1.6191 H       1  UNL1        0.2105
     39 H          23.7535   71.1357   -3.5897 H       1  UNL1        0.2106
     40 H          22.8988   69.9164    0.5436 H       1  UNL1        0.2106
     41 O          22.7530   71.5460    2.4634 O.co2   1  UNL1       -0.5466
     42 O          20.8035   72.7190    2.6061 O.co2   1  UNL1       -0.5466
     43 C          21.6600   72.1536    1.9420 C.2     1  UNL1        0.0799
@<TRIPOS>UNITY_ATOM_ATTR
41 1
charge -1
@<TRIPOS>BOND
     1     1     4    1
     2     1    24    1
     3     1     2    1
     4     1     3    2
     5    25    28    1
     6    25    24    1
     7    25    26    1
     8    25    27    2
     9     6    11    1
    10     6    12    1
    11    29    36    1
    12    29    37    1
    13     7     9    1
    14     7    13    1
    15     8    10    1
    16     8    14    1
    17     4     5    1
    18    28    36    1
    19    30    33    1
    20    30    38    1
    21    31    34    1
    22    31    39    1
    23    32    35    1
    24    32    40    1
    25    41    43   ar
    26    15    19    2
    27    42    43   ar
    28    16    22    2
    29    17    12    1
    30    17    19   ar
    31    17    20   ar
    32    18    19   ar
    33    18    22   ar
    34    18    23    1
    35     9    10    1
    36     9    11    1
    37    10    12    1
    38    11     5    1
    39    33    34    1
    40    33    35    1
    41    34    36    1
    42    35    37    1
    43    37    43    1
    44    20    21   ar
    45    21    22   ar
@<TRIPOS>MOLECULE
UDP-glaA
 43 45 0 0 0
SMALL
GASTEIGER

@<TRIPOS>ATOM
      1 P          21.6407   72.9096   -4.8735 P.3     1  UNL1        0.2189
      2 O          21.3754   74.2254   -3.9705 O.3     1  UNL1       -0.4371
      3 O          23.0712   72.6934   -5.2722 O.2     1  UNL1       -0.5170
      4 O          20.5857   73.0532   -6.0909 O.3     1  UNL1       -0.3112
      5 C          21.0851   73.1184   -7.4159 C.3     1  UNL1        0.1811
      6 O          19.7517   71.1196   -7.3826 O.3     1  UNL1       -0.3308
      7 O          19.0106   71.7908  -10.2095 O.3     1  UNL1       -0.3794
      8 O          16.8244   72.6217   -8.8075 O.3     1  UNL1       -0.3779
      9 C          19.2372   72.6643   -9.1035 C.3     1  UNL1        0.1713
     10 C          18.0698   72.6065   -8.1409 C.3     1  UNL1        0.1895
     11 C          20.3686   72.0804   -8.2678 C.3     1  UNL1        0.1764
     12 C          18.3261   71.2984   -7.4121 C.3     1  UNL1        0.2383
     13 H          19.7991   71.8315  -10.7772 H       1  UNL1        0.2105
     14 H          16.7849   73.4379   -9.3353 H       1  UNL1        0.2106
     15 O          17.2861   73.5854   -6.1223 O.2     1  UNL1       -0.2464
     16 O          16.4503   71.2424   -2.2429 O.2     1  UNL1       -0.2670
     17 N          17.8293   71.3144   -6.0659 N.ar    1  UNL1       -0.2551
     18 N          16.8711   72.4173   -4.1912 N.ar    1  UNL1       -0.2743
     19 C          17.3291   72.5159   -5.5116 C.ar    1  UNL1        0.3323
     20 C          17.8410   70.1482   -5.3088 C.ar    1  UNL1        0.0869
     21 C          17.4002   70.0703   -4.0512 C.ar    1  UNL1        0.0795
     22 C          16.8628   71.2803   -3.3980 C.ar    1  UNL1        0.2626
     23 H          16.5076   73.2689   -3.7720 H       1  UNL1        0.1734
     24 O          21.0039   71.7221   -3.9794 O.3     1  UNL1       -0.2703
     25 P          21.6925   70.6859   -2.9475 P.3     1  UNL1        0.2208
     26 O          23.2696   70.8260   -3.2781 O.3     1  UNL1       -0.4371
     27 O          21.1624   69.2835   -3.0372 O.2     1  UNL1       -0.5170
     28 O          21.5162   71.3738   -1.4985 O.3     1  UNL1       -0.2858
     29 O          23.1808   72.8273   -0.6525 O.3     1  UNL1       -0.3226
     30 O          21.0808   71.8117    2.7881 O.3     1  UNL1       -0.3794
     31 O          21.6696   69.7973    0.7629 O.3     1  UNL1       -0.3775
     32 O          23.0708   73.6029    2.1089 O.3     1  UNL1       -0.3792
     33 C          21.3036   72.1104    1.4128 C.3     1  UNL1        0.1718
     34 C          22.2648   71.0903    0.7933 C.3     1  UNL1        0.1968
     35 C          21.8920   73.5196    1.3012 C.3     1  UNL1        0.1723
     36 C          22.6451   71.5000   -0.6349 C.3     1  UNL1        0.2706
     37 C          22.2700   73.8042   -0.1508 C.3     1  UNL1        0.1830
     38 H          20.4704   72.4824    3.1389 H       1  UNL1        0.2105
     39 H          22.3092   69.1894    0.3552 H       1  UNL1        0.2106
     40 H          23.7847   73.1149    1.6647 H       1  UNL1        0.2106
     41 O          24.3039   74.9730   -0.1158 O.co2   1  UNL1       -0.5466
     42 O          22.4167   76.1854   -0.5224 O.co2   1  UNL1       -0.5466
     43 C          22.9680   75.1201   -0.2866 C.2     1  UNL1        0.0799
@<TRIPOS>UNITY_ATOM_ATTR
41 1
charge -1
@<TRIPOS>BOND
     1     1     4    1
     2     1    24    1
     3     1     2    1
     4     1     3    2
     5    25    28    1
     6    25    24    1
     7    25    26    1
     8    25    27    2
     9     6    11    1
    10     6    12    1
    11    29    36    1
    12    29    37    1
    13     7     9    1
    14     7    13    1
    15     8    10    1
    16     8    14    1
    17     4     5    1
    18    28    36    1
    19    30    33    1
    20    30    38    1
    21    31    34    1
    22    31    39    1
    23    32    35    1
    24    32    40    1
    25    41    43   ar
    26    15    19    2
    27    42    43   ar
    28    16    22    2
    29    17    12    1
    30    17    19   ar
    31    17    20   ar
    32    18    19   ar
    33    18    22   ar
    34    18    23    1
    35     9    10    1
    36     9    11    1
    37    10    12    1
    38    11     5    1
    39    33    34    1
    40    33    35    1
    41    34    36    1
    42    35    37    1
    43    37    43    1
    44    20    21   ar
    45    21    22   ar
@<TRIPOS>MOLECULE
UDP-glaA
 43 45 0 0 0
SMALL
GASTEIGER

@<TRIPOS>ATOM
      1 P          19.8482   72.6069   -4.0034 P.3     1  UNL1        0.2189
      2 O          18.8212   71.9224   -2.9573 O.3     1  UNL1       -0.4371
      3 O          20.2030   74.0333   -3.7006 O.2     1  UNL1       -0.5170
      4 O          19.1679   72.3430   -5.4467 O.3     1  UNL1       -0.3112
      5 C          17.8943   72.9074   -5.7087 C.3     1  UNL1        0.1811
      6 O          16.0558   72.8552   -7.2551 O.3     1  UNL1       -0.3308
      7 O          17.6424   70.8208   -8.7833 O.3     1  UNL1       -0.3794
      8 O          18.0705   73.1046  -10.2106 O.3     1  UNL1       -0.3779
      9 C          18.0977   71.9659   -8.0627 C.3     1  UNL1        0.1713
     10 C          17.7830   73.2307   -8.8332 C.3     1  UNL1        0.1895
     11 C          17.2232   72.1205   -6.8254 C.3     1  UNL1        0.1764
     12 C          16.2988   73.4057   -8.5602 C.3     1  UNL1        0.2383
     13 H          17.8297   70.0399   -8.2350 H       1  UNL1        0.2105
     14 H          19.0148   72.8863  -10.2936 H       1  UNL1        0.2106
     15 O          13.6636   74.2997   -9.0416 O.2     1  UNL1       -0.2464
     16 O          14.8809   78.7191   -8.5667 O.2     1  UNL1       -0.2670
     17 N          15.8988   74.7839   -8.5677 N.ar    1  UNL1       -0.2551
     18 N          14.2716   76.4998   -8.8053 N.ar    1  UNL1       -0.2743
     19 C          14.5501   75.1268   -8.8211 C.ar    1  UNL1        0.3323
     20 C          16.8387   75.7797   -8.3260 C.ar    1  UNL1        0.0869
     21 C          16.5573   77.0845   -8.3138 C.ar    1  UNL1        0.0795
     22 C          15.1723   77.5271   -8.5702 C.ar    1  UNL1        0.2626
     23 H          13.3084   76.7697   -8.9856 H       1  UNL1        0.1734
     24 O          21.1022   71.5858   -4.0008 O.3     1  UNL1       -0.2703
     25 P          21.7508   70.7062   -2.8099 P.3     1  UNL1        0.2208
     26 O          23.3234   70.6739   -3.1867 O.3     1  UNL1       -0.4371
     27 O          21.1272   69.3510   -2.6352 O.2     1  UNL1       -0.5170
     28 O          21.6623   71.6538   -1.5068 O.3     1  UNL1       -0.2858
     29 O          23.3026   72.9800   -0.4344 O.3     1  UNL1       -0.3226
     30 O          20.9817   71.7054    2.7700 O.3     1  UNL1       -0.3794
     31 O          21.6492   69.8720    0.6022 O.3     1  UNL1       -0.3775
     32 O          23.0442   73.5002    2.3765 O.3     1  UNL1       -0.3792
     33 C          21.2919   72.1239    1.4437 C.3     1  UNL1        0.1718
     34 C          22.2675   71.1410    0.7876 C.3     1  UNL1        0.1968
     35 C          21.9141   73.5218    1.4983 C.3     1  UNL1        0.1723
     36 C          22.7402   71.6709   -0.5719 C.3     1  UNL1        0.2706
     37 C          22.3835   73.9295    0.1034 C.3     1  UNL1        0.1830
     38 H          20.3652   72.3564    3.1464 H       1  UNL1        0.2105
     39 H          22.2996   69.2882    0.1768 H       1  UNL1        0.2106
     40 H          23.7733   73.0371    1.9302 H       1  UNL1        0.2106
     41 O          22.5418   76.0844    1.0170 O.co2   1  UNL1       -0.5466
     42 O          24.0964   75.5025   -0.5455 O.co2   1  UNL1       -0.5466
     43 C          23.1146   75.2339    0.1315 C.2     1  UNL1        0.0799
@<TRIPOS>UNITY_ATOM_ATTR
41 1
charge -1
@<TRIPOS>BOND
     1     1     4    1
     2     1    24    1
     3     1     2    1
     4     1     3    2
     5    25    28    1
     6    25    24    1
     7    25    26    1
     8    25    27    2
     9     6    11    1
    10     6    12    1
    11    29    36    1
    12    29    37    1
    13     7     9    1
    14     7    13    1
    15     8    10    1
    16     8    14    1
    17     4     5    1
    18    28    36    1
    19    30    33    1
    20    30    38    1
    21    31    34    1
    22    31    39    1
    23    32    35    1
    24    32    40    1
    25    41    43   ar
    26    15    19    2
    27    42    43   ar
    28    16    22    2
    29    17    12    1
    30    17    19   ar
    31    17    20   ar
    32    18    19   ar
    33    18    22   ar
    34    18    23    1
    35     9    10    1
    36     9    11    1
    37    10    12    1
    38    11     5    1
    39    33    34    1
    40    33    35    1
    41    34    36    1
    42    35    37    1
    43    37    43    1
    44    20    21   ar
    45    21    22   ar
@<TRIPOS>MOLECULE
UDP-glaA
 43 45 0 0 0
SMALL
GASTEIGER

@<TRIPOS>ATOM
      1 P          22.6640   72.8925   -4.4860 P.3     1  UNL1        0.2189
      2 O          24.1740   73.2282   -4.0122 O.3     1  UNL1       -0.4371
      3 O          22.0431   71.6983   -3.8223 O.2     1  UNL1       -0.5170
      4 O          22.7673   72.8259   -6.0986 O.3     1  UNL1       -0.3112
      5 C          21.5873   73.0137   -6.8613 C.3     1  UNL1        0.1811
      6 O          19.7521   71.5726   -6.2874 O.3     1  UNL1       -0.3308
      7 O          20.3855   70.0736   -8.8059 O.3     1  UNL1       -0.3794
      8 O          18.2486   71.5990   -9.5423 O.3     1  UNL1       -0.3779
      9 C          20.4625   71.4750   -8.5453 C.3     1  UNL1        0.1713
     10 C          19.0743   72.0779   -8.5009 C.3     1  UNL1        0.1895
     11 C          20.9366   71.6605   -7.1099 C.3     1  UNL1        0.1764
     12 C          18.5881   71.6503   -7.1266 C.3     1  UNL1        0.2383
     13 H          21.2930   69.7249   -8.7862 H       1  UNL1        0.2105
     14 H          18.6833   71.8175  -10.3845 H       1  UNL1        0.2106
     15 O          16.6469   70.9942   -5.1832 O.2     1  UNL1       -0.2464
     16 O          15.0889   75.3280   -5.0118 O.2     1  UNL1       -0.2670
     17 N          17.6628   72.5873   -6.5564 N.ar    1  UNL1       -0.2551
     18 N          15.8720   73.1526   -5.0995 N.ar    1  UNL1       -0.2743
     19 C          16.7268   72.1555   -5.5877 C.ar    1  UNL1        0.3323
     20 C          17.6882   73.9183   -6.9579 C.ar    1  UNL1        0.0869
     21 C          16.8669   74.8570   -6.4826 C.ar    1  UNL1        0.0795
     22 C          15.8592   74.4889   -5.4684 C.ar    1  UNL1        0.2626
     23 H          15.1904   72.8650   -4.4025 H       1  UNL1        0.1734
     24 O          21.8853   74.2864   -4.2293 O.3     1  UNL1       -0.2703
     25 P          20.8825   74.7381   -3.0448 P.3     1  UNL1        0.2208
     26 O          19.5413   73.8868   -3.3493 O.3     1  UNL1       -0.4371
     27 O          20.6675   76.2216   -2.9521 O.2     1  UNL1       -0.5170
     28 O          21.4971   74.0689   -1.7112 O.3     1  UNL1       -0.2858
     29 O          20.6806   72.0500   -0.7855 O.3     1  UNL1       -0.3226
     30 O          22.5457   73.8154    2.4831 O.3     1  UNL1       -0.3794
     31 O          20.9617   75.4221    0.6350 O.3     1  UNL1       -0.3775
     32 O          21.4044   71.3669    1.9067 O.3     1  UNL1       -0.3792
     33 C          22.3142   73.4626    1.1222 C.3     1  UNL1        0.1718
     34 C          20.9569   73.9986    0.6545 C.3     1  UNL1        0.1968
     35 C          22.3477   71.9372    0.9935 C.3     1  UNL1        0.1723
     36 C          20.6227   73.4798   -0.7497 C.3     1  UNL1        0.2706
     37 C          21.9615   71.5334   -0.4277 C.3     1  UNL1        0.1830
     38 H          23.4123   73.4545    2.7365 H       1  UNL1        0.2105
     39 H          20.0881   75.7142    0.3246 H       1  UNL1        0.2106
     40 H          20.5087   71.5194    1.5608 H       1  UNL1        0.2106
     41 O          22.6622   69.4259    0.3279 O.co2   1  UNL1       -0.5466
     42 O          21.1378   69.4671   -1.3667 O.co2   1  UNL1       -0.5466
     43 C          21.8548   70.0479   -0.5647 C.2     1  UNL1        0.0799
@<TRIPOS>UNITY_ATOM_ATTR
41 1
charge -1
@<TRIPOS>BOND
     1     1     4    1
     2     1    24    1
     3     1     2    1
     4     1     3    2
     5    25    28    1
     6    25    24    1
     7    25    26    1
     8    25    27    2
     9     6    11    1
    10     6    12    1
    11    29    36    1
    12    29    37    1
    13     7     9    1
    14     7    13    1
    15     8    10    1
    16     8    14    1
    17     4     5    1
    18    28    36    1
    19    30    33    1
    20    30    38    1
    21    31    34    1
    22    31    39    1
    23    32    35    1
    24    32    40    1
    25    41    43   ar
    26    15    19    2
    27    42    43   ar
    28    16    22    2
    29    17    12    1
    30    17    19   ar
    31    17    20   ar
    32    18    19   ar
    33    18    22   ar
    34    18    23    1
    35     9    10    1
    36     9    11    1
    37    10    12    1
    38    11     5    1
    39    33    34    1
    40    33    35    1
    41    34    36    1
    42    35    37    1
    43    37    43    1
    44    20    21   ar
    45    21    22   ar
