@<TRIPOS>MOLECULE
*****
 43 45 0 0 0
SMALL
GASTEIGER

@<TRIPOS>ATOM
      1 P          22.9767   71.6562   -2.6961 P.3     1  UNL1        0.2189
      2 O          23.8013   72.9720   -3.1503 O.co2   1  UNL1       -0.4371
      3 O          23.4900   70.3621   -3.2558 O.2     1  UNL1       -0.5170
      4 O          21.4409   72.0171   -3.0554 O.3     1  UNL1       -0.3112
      5 C          20.5962   70.9825   -3.5287 C.3     1  UNL1        0.1811
      6 O          18.7358   72.0037   -4.6556 O.3     1  UNL1       -0.3308
      7 O          17.0195   70.8100   -2.5061 O.3     1  UNL1       -0.3794
      8 O          16.6407   69.0934   -4.5910 O.3     1  UNL1       -0.3779
      9 C          18.1849   70.2749   -3.1312 C.3     1  UNL1        0.1713
     10 C          17.8604   69.8047   -4.5338 C.3     1  UNL1        0.1895
     11 C          19.1460   71.4270   -3.3964 C.3     1  UNL1        0.1764
     12 C          17.8099   71.1147   -5.3015 C.3     1  UNL1        0.2383
     13 H          16.3908   70.0927   -2.3266 H       1  UNL1        0.2105
     14 H          16.7236   68.2683   -4.0880 H       1  UNL1        0.2106
     15 O          16.0349   70.4218   -7.3865 O.2     1  UNL1       -0.2464
     16 O          19.3970   70.5444  -10.5365 O.2     1  UNL1       -0.2670
     17 N          18.1944   70.9591   -6.6760 N.ar    1  UNL1       -0.2551
     18 N          17.7104   70.4836   -8.9533 N.ar    1  UNL1       -0.2743
     19 C          17.2257   70.6082   -7.6450 C.ar    1  UNL1        0.3323
     20 C          19.5192   71.1544   -7.0514 C.ar    1  UNL1        0.0869
     21 C          19.9654   71.0304   -8.3030 C.ar    1  UNL1        0.0795
     22 C          19.0176   70.6662   -9.3759 C.ar    1  UNL1        0.2626
     23 H          17.0536   70.2394   -9.6452 H       1  UNL1        0.1734
     24 O          23.0039   71.7493   -1.0826 O.3     1  UNL1       -0.2703
     25 P          22.4864   70.7175    0.0491 P.3     1  UNL1        0.2208
     26 O          23.6936   69.6454    0.1537 O.co2   1  UNL1       -0.4371
     27 O          21.1433   70.1115   -0.2386 O.2     1  UNL1       -0.5170
     28 O          22.5620   71.5524    1.4283 O.3     1  UNL1       -0.2858
     29 O          21.4848   72.2711    3.4131 O.3     1  UNL1       -0.3258
     30 O          21.2222   75.7597    1.2195 O.3     1  UNL1       -0.3794
     31 O          23.0561   75.6057    3.4243 O.3     1  UNL1       -0.3794
     32 O          20.8729   73.2013   -0.0892 O.3     1  UNL1       -0.3775
     33 C          21.8291   74.5443    1.6668 C.3     1  UNL1        0.1715
     34 C          22.0369   74.6405    3.1795 C.3     1  UNL1        0.1694
     35 C          20.9115   73.3724    1.3235 C.3     1  UNL1        0.1967
     36 C          22.4345   73.2817    3.7716 C.3     1  UNL1        0.1761
     37 C          21.3686   72.0797    2.0018 C.3     1  UNL1        0.2704
     38 H          21.8001   76.5077    1.4339 H       1  UNL1        0.2105
     39 H          22.7929   76.4590    3.0450 H       1  UNL1        0.2105
     40 H          20.5818   74.0264   -0.5068 H       1  UNL1        0.2106
     41 O          21.1742   73.2111    5.8002 O.3     1  UNL1       -0.3794
     42 C          22.4932   73.3176    5.2971 C.3     1  UNL1        0.1693
     43 H          21.1960   73.2323    6.7702 H       1  UNL1        0.2105
@<TRIPOS>UNITY_ATOM_ATTR
2 1
charge -1
26 1
charge -1
@<TRIPOS>BOND
     1    25    28    1
     2    25    24    1
     3    25    26    1
     4    25    27    2
     5     1     4    1
     6     1    24    1
     7     1     2    1
     8     1     3    2
     9     6    11    1
    10     6    12    1
    11    29    36    1
    12    29    37    1
    13     7     9    1
    14     7    13    1
    15     8    10    1
    16     8    14    1
    17    28    37    1
    18     4     5    1
    19    30    33    1
    20    30    38    1
    21    31    34    1
    22    31    39    1
    23    32    35    1
    24    32    40    1
    25    41    42    1
    26    41    43    1
    27    15    19    2
    28    16    22    2
    29    17    12    1
    30    17    19   ar
    31    17    20   ar
    32    18    19   ar
    33    18    22   ar
    34    18    23    1
    35     9    10    1
    36     9    11    1
    37    10    12    1
    38    11     5    1
    39    33    34    1
    40    33    35    1
    41    34    36    1
    42    35    37    1
    43    36    42    1
    44    20    21   ar
    45    21    22   ar
@<TRIPOS>MOLECULE
*****
 43 45 0 0 0
SMALL
GASTEIGER

@<TRIPOS>ATOM
      1 P          21.5758   70.4275   -0.9645 P.3     1  UNL1        0.2189
      2 O          23.0302   70.8747   -1.5142 O.co2   1  UNL1       -0.4371
      3 O          21.6008   69.5397    0.2449 O.2     1  UNL1       -0.5170
      4 O          20.8384   69.8171   -2.2690 O.3     1  UNL1       -0.3112
      5 C          20.5917   70.6750   -3.3695 C.3     1  UNL1        0.1811
      6 O          18.8456   71.8713   -4.5069 O.3     1  UNL1       -0.3308
      7 O          16.9942   70.7850   -2.4135 O.3     1  UNL1       -0.3794
      8 O          16.5126   69.1476   -4.5403 O.3     1  UNL1       -0.3779
      9 C          18.1223   70.1658   -3.0292 C.3     1  UNL1        0.1713
     10 C          17.7864   69.7521   -4.4469 C.3     1  UNL1        0.1895
     11 C          19.1817   71.2376   -3.2532 C.3     1  UNL1        0.1764
     12 C          17.8608   71.0765   -5.1876 C.3     1  UNL1        0.2383
     13 H          16.3041   70.1199   -2.2601 H       1  UNL1        0.2105
     14 H          16.5161   68.3087   -4.0535 H       1  UNL1        0.2106
     15 O          16.1017   70.3880   -7.2874 O.2     1  UNL1       -0.2464
     16 O          19.4933   70.4865  -10.4064 O.2     1  UNL1       -0.2670
     17 N          18.2573   70.9159   -6.5581 N.ar    1  UNL1       -0.2551
     18 N          17.7918   70.4378   -8.8387 N.ar    1  UNL1       -0.2743
     19 C          17.2958   70.5678   -7.5353 C.ar    1  UNL1        0.3323
     20 C          19.5864   71.1036   -6.9216 C.ar    1  UNL1        0.0869
     21 C          20.0435   70.9746   -8.1689 C.ar    1  UNL1        0.0795
     22 C          19.1038   70.6128   -9.2496 C.ar    1  UNL1        0.2626
     23 H          17.1402   70.1954   -9.5362 H       1  UNL1        0.1734
     24 O          20.8195   71.8395   -0.7470 O.3     1  UNL1       -0.2703
     25 P          21.3848   73.3537   -0.7221 P.3     1  UNL1        0.2208
     26 O          20.1071   74.2343   -1.1799 O.co2   1  UNL1       -0.4371
     27 O          22.6142   73.5654   -1.5575 O.2     1  UNL1       -0.5170
     28 O          21.5739   73.6934    0.8443 O.3     1  UNL1       -0.2858
     29 O          23.6058   74.3442    1.8761 O.3     1  UNL1       -0.3258
     30 O          21.8071   72.4691    5.0854 O.3     1  UNL1       -0.3794
     31 O          22.0304   75.3322    5.0590 O.3     1  UNL1       -0.3794
     32 O          21.5123   71.3736    2.4222 O.3     1  UNL1       -0.3775
     33 C          21.8481   73.2534    3.8902 C.3     1  UNL1        0.1715
     34 C          22.7240   74.4803    4.1515 C.3     1  UNL1        0.1694
     35 C          22.4301   72.4085    2.7584 C.3     1  UNL1        0.1967
     36 C          23.0336   75.2278    2.8475 C.3     1  UNL1        0.1761
     37 C          22.7472   73.2570    1.5257 C.3     1  UNL1        0.2704
     38 H          21.4381   72.9996    5.8078 H       1  UNL1        0.2105
     39 H          21.8406   74.8480    5.8780 H       1  UNL1        0.2105
     40 H          21.3199   70.8435    3.2108 H       1  UNL1        0.2106
     41 O          23.3139   77.5436    3.3649 O.3     1  UNL1       -0.3794
     42 C          24.0331   76.3623    3.0620 C.3     1  UNL1        0.1693
     43 H          23.9373   78.2741    3.5043 H       1  UNL1        0.2105
@<TRIPOS>UNITY_ATOM_ATTR
2 1
charge -1
26 1
charge -1
@<TRIPOS>BOND
     1    25    28    1
     2    25    24    1
     3    25    26    1
     4    25    27    2
     5     1     4    1
     6     1    24    1
     7     1     2    1
     8     1     3    2
     9     6    11    1
    10     6    12    1
    11    29    36    1
    12    29    37    1
    13     7     9    1
    14     7    13    1
    15     8    10    1
    16     8    14    1
    17    28    37    1
    18     4     5    1
    19    30    33    1
    20    30    38    1
    21    31    34    1
    22    31    39    1
    23    32    35    1
    24    32    40    1
    25    41    42    1
    26    41    43    1
    27    15    19    2
    28    16    22    2
    29    17    12    1
    30    17    19   ar
    31    17    20   ar
    32    18    19   ar
    33    18    22   ar
    34    18    23    1
    35     9    10    1
    36     9    11    1
    37    10    12    1
    38    11     5    1
    39    33    34    1
    40    33    35    1
    41    34    36    1
    42    35    37    1
    43    36    42    1
    44    20    21   ar
    45    21    22   ar
@<TRIPOS>MOLECULE
*****
 43 45 0 0 0
SMALL
GASTEIGER

@<TRIPOS>ATOM
      1 P          22.6224   71.5319   -2.1054 P.3     1  UNL1        0.2189
      2 O          23.5929   70.7004   -3.0975 O.co2   1  UNL1       -0.4371
      3 O          23.1351   71.6917   -0.7043 O.2     1  UNL1       -0.5170
      4 O          21.1918   70.7900   -2.2498 O.3     1  UNL1       -0.3112
      5 C          20.5760   70.7511   -3.5254 C.3     1  UNL1        0.1811
      6 O          18.7873   71.8802   -4.6653 O.3     1  UNL1       -0.3308
      7 O          16.9856   70.7775   -2.5371 O.3     1  UNL1       -0.3794
      8 O          16.5304   69.0930   -4.6328 O.3     1  UNL1       -0.3779
      9 C          18.1248   70.1797   -3.1536 C.3     1  UNL1        0.1713
     10 C          17.7877   69.7338   -4.5611 C.3     1  UNL1        0.1895
     11 C          19.1521   71.2765   -3.4048 C.3     1  UNL1        0.1764
     12 C          17.8188   71.0475   -5.3236 C.3     1  UNL1        0.2383
     13 H          16.3157   70.0963   -2.3666 H       1  UNL1        0.2105
     14 H          16.5615   68.2626   -4.1326 H       1  UNL1        0.2106
     15 O          16.0267   70.4701   -7.4291 O.2     1  UNL1       -0.2464
     16 O          19.4213   70.4077  -10.5459 O.2     1  UNL1       -0.2670
     17 N          18.2071   70.8756   -6.6952 N.ar    1  UNL1       -0.2551
     18 N          17.7184   70.4396   -8.9794 N.ar    1  UNL1       -0.2743
     19 C          17.2290   70.5869   -7.6752 C.ar    1  UNL1        0.3323
     20 C          19.5447   70.9938   -7.0567 C.ar    1  UNL1        0.0869
     21 C          19.9952   70.8492   -8.3046 C.ar    1  UNL1        0.0795
     22 C          19.0382   70.5464   -9.3884 C.ar    1  UNL1        0.2626
     23 H          17.0552   70.2378   -9.6788 H       1  UNL1        0.1734
     24 O          22.3935   72.9205   -2.9005 O.3     1  UNL1       -0.2703
     25 P          23.1982   73.5808   -4.1371 P.3     1  UNL1        0.2208
     26 O          22.8962   72.5661   -5.3605 O.co2   1  UNL1       -0.4371
     27 O          24.6574   73.8108   -3.8692 O.2     1  UNL1       -0.5170
     28 O          22.3664   74.9156   -4.4998 O.3     1  UNL1       -0.2858
     29 O          23.2436   75.4221   -6.6423 O.3     1  UNL1       -0.3258
     30 O          20.2280   78.2383   -6.4815 O.3     1  UNL1       -0.3794
     31 O          19.9478   75.9576   -8.2042 O.3     1  UNL1       -0.3794
     32 O          21.7611   77.6269   -4.1034 O.3     1  UNL1       -0.3775
     33 C          20.8422   76.9712   -6.2310 C.3     1  UNL1        0.1715
     34 C          21.1736   76.3245   -7.5774 C.3     1  UNL1        0.1694
     35 C          22.1126   77.1858   -5.4104 C.3     1  UNL1        0.1967
     36 C          22.0700   75.0923   -7.3944 C.3     1  UNL1        0.1761
     37 C          22.9558   75.9119   -5.3312 C.3     1  UNL1        0.2704
     38 H          19.4205   78.1091   -7.0018 H       1  UNL1        0.2105
     39 H          19.3909   76.7444   -8.3134 H       1  UNL1        0.2105
     40 H          21.2279   78.4341   -4.1671 H       1  UNL1        0.2106
     41 O          23.2884   73.3480   -8.4815 O.3     1  UNL1       -0.3794
     42 C          22.5417   74.5246   -8.7313 C.3     1  UNL1        0.1693
     43 H          23.5949   72.9754   -9.3235 H       1  UNL1        0.2105
@<TRIPOS>UNITY_ATOM_ATTR
2 1
charge -1
26 1
charge -1
@<TRIPOS>BOND
     1    25    28    1
     2    25    24    1
     3    25    26    1
     4    25    27    2
     5     1     4    1
     6     1    24    1
     7     1     2    1
     8     1     3    2
     9     6    11    1
    10     6    12    1
    11    29    36    1
    12    29    37    1
    13     7     9    1
    14     7    13    1
    15     8    10    1
    16     8    14    1
    17    28    37    1
    18     4     5    1
    19    30    33    1
    20    30    38    1
    21    31    34    1
    22    31    39    1
    23    32    35    1
    24    32    40    1
    25    41    42    1
    26    41    43    1
    27    15    19    2
    28    16    22    2
    29    17    12    1
    30    17    19   ar
    31    17    20   ar
    32    18    19   ar
    33    18    22   ar
    34    18    23    1
    35     9    10    1
    36     9    11    1
    37    10    12    1
    38    11     5    1
    39    33    34    1
    40    33    35    1
    41    34    36    1
    42    35    37    1
    43    36    42    1
    44    20    21   ar
    45    21    22   ar
@<TRIPOS>MOLECULE
*****
 43 45 0 0 0
SMALL
GASTEIGER

@<TRIPOS>ATOM
      1 P          22.8162   71.7397   -2.2481 P.3     1  UNL1        0.2189
      2 O          23.3969   73.2456   -2.3599 O.co2   1  UNL1       -0.4371
      3 O          23.4189   70.7553   -3.2068 O.2     1  UNL1       -0.5170
      4 O          21.2133   71.9326   -2.3541 O.3     1  UNL1       -0.3112
      5 C          20.5539   71.4808   -3.5241 C.3     1  UNL1        0.1811
      6 O          18.6003   72.2530   -4.6907 O.3     1  UNL1       -0.3308
      7 O          17.0131   71.0154   -2.4681 O.3     1  UNL1       -0.3794
      8 O          16.8002   69.1599   -4.4552 O.3     1  UNL1       -0.3779
      9 C          18.2242   70.5636   -3.0720 C.3     1  UNL1        0.1713
     10 C          17.9446   69.9889   -4.4449 C.3     1  UNL1        0.1895
     11 C          19.0674   71.7880   -3.4054 C.3     1  UNL1        0.1764
     12 C          17.7646   71.2443   -5.2814 C.3     1  UNL1        0.2383
     13 H          16.4581   70.2509   -2.2459 H       1  UNL1        0.2105
     14 H          16.9644   68.3752   -3.9093 H       1  UNL1        0.2106
     15 O          16.0362   70.3624   -7.3339 O.2     1  UNL1       -0.2464
     16 O          19.3912   70.5448  -10.4885 O.2     1  UNL1       -0.2670
     17 N          18.1599   71.0530   -6.6483 N.ar    1  UNL1       -0.2551
     18 N          17.7081   70.4541   -8.9030 N.ar    1  UNL1       -0.2743
     19 C          17.2147   70.6060   -7.6009 C.ar    1  UNL1        0.3323
     20 C          19.4718   71.3081   -7.0325 C.ar    1  UNL1        0.0869
     21 C          19.9267   71.1571   -8.2781 C.ar    1  UNL1        0.0795
     22 C          19.0033   70.6936   -9.3338 C.ar    1  UNL1        0.2626
     23 H          17.0676   70.1433   -9.5835 H       1  UNL1        0.1734
     24 O          23.0365   71.3802   -0.6876 O.3     1  UNL1       -0.2703
     25 P          22.1189   70.5460    0.3493 P.3     1  UNL1        0.2208
     26 O          23.1934   69.9612    1.4081 O.co2   1  UNL1       -0.4371
     27 O          21.2543   69.5021   -0.2962 O.2     1  UNL1       -0.5170
     28 O          21.3064   71.6716    1.1727 O.3     1  UNL1       -0.2858
     29 O          21.6969   74.0088    1.2131 O.3     1  UNL1       -0.3258
     30 O          20.3405   73.4996    5.0799 O.3     1  UNL1       -0.3794
     31 O          18.6576   74.7939    3.1458 O.3     1  UNL1       -0.3794
     32 O          22.0487   71.4980    3.8735 O.3     1  UNL1       -0.3775
     33 C          20.3979   73.2406    3.6745 C.3     1  UNL1        0.1715
     34 C          20.0420   74.5313    2.9341 C.3     1  UNL1        0.1694
     35 C          21.8084   72.7824    3.3086 C.3     1  UNL1        0.1967
     36 C          20.3394   74.4092    1.4335 C.3     1  UNL1        0.1761
     37 C          22.0139   72.7420    1.7933 C.3     1  UNL1        0.2704
     38 H          19.4473   73.7905    5.3189 H       1  UNL1        0.2105
     39 H          18.4831   74.8682    4.0972 H       1  UNL1        0.2105
     40 H          21.9156   71.5369    4.8330 H       1  UNL1        0.2106
     41 O          18.7527   76.0027    0.6260 O.3     1  UNL1       -0.3794
     42 C          20.1408   75.7346    0.7014 C.3     1  UNL1        0.1693
     43 H          18.6112   76.8436    0.1628 H       1  UNL1        0.2105
@<TRIPOS>UNITY_ATOM_ATTR
2 1
charge -1
26 1
charge -1
@<TRIPOS>BOND
     1    25    28    1
     2    25    24    1
     3    25    26    1
     4    25    27    2
     5     1     4    1
     6     1    24    1
     7     1     2    1
     8     1     3    2
     9     6    11    1
    10     6    12    1
    11    29    36    1
    12    29    37    1
    13     7     9    1
    14     7    13    1
    15     8    10    1
    16     8    14    1
    17    28    37    1
    18     4     5    1
    19    30    33    1
    20    30    38    1
    21    31    34    1
    22    31    39    1
    23    32    35    1
    24    32    40    1
    25    41    42    1
    26    41    43    1
    27    15    19    2
    28    16    22    2
    29    17    12    1
    30    17    19   ar
    31    17    20   ar
    32    18    19   ar
    33    18    22   ar
    34    18    23    1
    35     9    10    1
    36     9    11    1
    37    10    12    1
    38    11     5    1
    39    33    34    1
    40    33    35    1
    41    34    36    1
    42    35    37    1
    43    36    42    1
    44    20    21   ar
    45    21    22   ar
@<TRIPOS>MOLECULE
*****
 43 45 0 0 0
SMALL
GASTEIGER

@<TRIPOS>ATOM
      1 P          22.1240   70.5111   -0.1665 P.3     1  UNL1        0.2189
      2 O          20.8301   69.7485   -0.7679 O.co2   1  UNL1       -0.4371
      3 O          23.3319   69.6448    0.0382 O.2     1  UNL1       -0.5170
      4 O          21.5584   71.2519    1.1561 O.3     1  UNL1       -0.3112
      5 C          22.4852   71.6895    2.1345 C.3     1  UNL1        0.1811
      6 O          22.6651   72.7912    4.2623 O.3     1  UNL1       -0.3308
      7 O          19.7061   73.2370    4.0712 O.3     1  UNL1       -0.3794
      8 O          20.7207   75.6609    3.3419 O.3     1  UNL1       -0.3779
      9 C          20.6889   73.2489    3.0371 C.3     1  UNL1        0.1713
     10 C          21.5158   74.5155    3.1123 C.3     1  UNL1        0.1895
     11 C          21.7213   72.1756    3.3586 C.3     1  UNL1        0.1764
     12 C          22.4522   74.2123    4.2696 C.3     1  UNL1        0.2383
     13 H          19.0356   73.9142    3.8875 H       1  UNL1        0.2105
     14 H          20.1426   75.8118    2.5778 H       1  UNL1        0.2106
     15 O          23.8646   75.3990    6.4084 O.2     1  UNL1       -0.2464
     16 O          27.3039   76.7255    3.6421 O.2     1  UNL1       -0.2670
     17 N          23.7193   74.8743    4.1367 N.ar    1  UNL1       -0.2551
     18 N          25.5761   76.0584    5.0293 N.ar    1  UNL1       -0.2743
     19 C          24.3442   75.4379    5.2735 C.ar    1  UNL1        0.3323
     20 C          24.3294   74.9594    2.8899 C.ar    1  UNL1        0.0869
     21 C          25.5036   75.5557    2.6737 C.ar    1  UNL1        0.0795
     22 C          26.2226   76.1699    3.8085 C.ar    1  UNL1        0.2626
     23 H          26.0297   76.4585    5.8064 H       1  UNL1        0.1734
     24 O          22.3402   71.7327   -1.2028 O.3     1  UNL1       -0.2703
     25 P          22.4483   71.7502   -2.8155 P.3     1  UNL1        0.2208
     26 O          23.4308   70.5052   -3.1350 O.co2   1  UNL1       -0.4371
     27 O          22.9039   73.0613   -3.3876 O.2     1  UNL1       -0.5170
     28 O          20.9964   71.2655   -3.3275 O.3     1  UNL1       -0.2858
     29 O          19.5379   72.0089   -5.0412 O.3     1  UNL1       -0.3258
     30 O          16.7642   71.3492   -2.0542 O.3     1  UNL1       -0.3794
     31 O          16.8992   69.5478   -4.2868 O.3     1  UNL1       -0.3794
     32 O          19.3512   72.4713   -1.4002 O.3     1  UNL1       -0.3775
     33 C          17.9560   71.0987   -2.8040 C.3     1  UNL1        0.1715
     34 C          17.5591   70.8102   -4.2532 C.3     1  UNL1        0.1694
     35 C          18.8606   72.3273   -2.7288 C.3     1  UNL1        0.1967
     36 C          18.7884   70.7952   -5.1717 C.3     1  UNL1        0.1761
     37 C          20.0248   72.2329   -3.7166 C.3     1  UNL1        0.2704
     38 H          16.1856   70.5728   -2.0975 H       1  UNL1        0.2105
     39 H          16.1252   69.5704   -3.7023 H       1  UNL1        0.2105
     40 H          18.6047   72.5303   -0.7846 H       1  UNL1        0.2106
     41 O          19.4160   71.2636   -7.4291 O.3     1  UNL1       -0.3794
     42 C          18.4011   70.6662   -6.6433 C.3     1  UNL1        0.1693
     43 H          19.1832   71.1887   -8.3682 H       1  UNL1        0.2105
@<TRIPOS>UNITY_ATOM_ATTR
2 1
charge -1
26 1
charge -1
@<TRIPOS>BOND
     1    25    28    1
     2    25    24    1
     3    25    26    1
     4    25    27    2
     5     1     4    1
     6     1    24    1
     7     1     2    1
     8     1     3    2
     9     6    11    1
    10     6    12    1
    11    29    36    1
    12    29    37    1
    13     7     9    1
    14     7    13    1
    15     8    10    1
    16     8    14    1
    17    28    37    1
    18     4     5    1
    19    30    33    1
    20    30    38    1
    21    31    34    1
    22    31    39    1
    23    32    35    1
    24    32    40    1
    25    41    42    1
    26    41    43    1
    27    15    19    2
    28    16    22    2
    29    17    12    1
    30    17    19   ar
    31    17    20   ar
    32    18    19   ar
    33    18    22   ar
    34    18    23    1
    35     9    10    1
    36     9    11    1
    37    10    12    1
    38    11     5    1
    39    33    34    1
    40    33    35    1
    41    34    36    1
    42    35    37    1
    43    36    42    1
    44    20    21   ar
    45    21    22   ar
@<TRIPOS>MOLECULE
*****
 43 45 0 0 0
SMALL
GASTEIGER

@<TRIPOS>ATOM
      1 P          22.9836   71.9459   -2.8555 P.3     1  UNL1        0.2189
      2 O          23.7950   73.1452   -3.5772 O.co2   1  UNL1       -0.4371
      3 O          23.5234   70.5700   -3.1142 O.2     1  UNL1       -0.5170
      4 O          21.4478   72.1932   -3.3005 O.3     1  UNL1       -0.3112
      5 C          20.6288   71.0661   -3.5587 C.3     1  UNL1        0.1811
      6 O          18.7310   72.0201   -4.6821 O.3     1  UNL1       -0.3308
      7 O          17.0673   70.8089   -2.5012 O.3     1  UNL1       -0.3794
      8 O          16.7180   69.0544   -4.5594 O.3     1  UNL1       -0.3779
      9 C          18.2416   70.2977   -3.1298 C.3     1  UNL1        0.1713
     10 C          17.9179   69.7997   -4.5229 C.3     1  UNL1        0.1895
     11 C          19.1681   71.4721   -3.4191 C.3     1  UNL1        0.1764
     12 C          17.8244   71.0972   -5.3076 C.3     1  UNL1        0.2383
     13 H          16.4604   70.0770   -2.3064 H       1  UNL1        0.2105
     14 H          16.8280   68.2387   -4.0463 H       1  UNL1        0.2106
     15 O          16.0350   70.4049   -7.3804 O.2     1  UNL1       -0.2464
     16 O          19.3814   70.4958  -10.5481 O.2     1  UNL1       -0.2670
     17 N          18.2010   70.9337   -6.6834 N.ar    1  UNL1       -0.2551
     18 N          17.7026   70.4509   -8.9560 N.ar    1  UNL1       -0.2743
     19 C          17.2254   70.5838   -7.6458 C.ar    1  UNL1        0.3323
     20 C          19.5248   71.1201   -7.0663 C.ar    1  UNL1        0.0869
     21 C          19.9639   70.9883   -8.3197 C.ar    1  UNL1        0.0795
     22 C          19.0086   70.6246   -9.3861 C.ar    1  UNL1        0.2626
     23 H          17.0410   70.2073   -9.6435 H       1  UNL1        0.1734
     24 O          22.9872   72.3887   -1.3009 O.3     1  UNL1       -0.2703
     25 P          23.1122   73.8459   -0.6125 P.3     1  UNL1        0.2208
     26 O          21.8762   74.6677   -1.2563 O.co2   1  UNL1       -0.4371
     27 O          24.4517   74.4993   -0.7938 O.2     1  UNL1       -0.5170
     28 O          22.6865   73.6087    0.9262 O.3     1  UNL1       -0.2858
     29 O          21.1910   74.6804    2.4200 O.3     1  UNL1       -0.3258
     30 O          24.4084   74.1735    4.9581 O.3     1  UNL1       -0.3794
     31 O          22.0615   72.5545    5.3030 O.3     1  UNL1       -0.3794
     32 O          24.8534   74.8722    2.1844 O.3     1  UNL1       -0.3775
     33 C          23.5206   73.8216    3.8935 C.3     1  UNL1        0.1715
     34 C          22.1065   73.7071    4.4664 C.3     1  UNL1        0.1694
     35 C          23.5785   74.9037    2.8170 C.3     1  UNL1        0.1967
     36 C          21.0626   73.5961    3.3471 C.3     1  UNL1        0.1761
     37 C          22.4676   74.7288    1.7799 C.3     1  UNL1        0.2704
     38 H          24.3768   73.4902    5.6448 H       1  UNL1        0.2105
     39 H          22.7257   72.6370    6.0052 H       1  UNL1        0.2105
     40 H          25.5480   74.9843    2.8514 H       1  UNL1        0.2106
     41 O          19.6758   73.3812    5.2808 O.3     1  UNL1       -0.3794
     42 C          19.6357   73.6394    3.8894 C.3     1  UNL1        0.1693
     43 H          18.7745   73.4059    5.6397 H       1  UNL1        0.2105
@<TRIPOS>UNITY_ATOM_ATTR
2 1
charge -1
26 1
charge -1
@<TRIPOS>BOND
     1    25    28    1
     2    25    24    1
     3    25    26    1
     4    25    27    2
     5     1     4    1
     6     1    24    1
     7     1     2    1
     8     1     3    2
     9     6    11    1
    10     6    12    1
    11    29    36    1
    12    29    37    1
    13     7     9    1
    14     7    13    1
    15     8    10    1
    16     8    14    1
    17    28    37    1
    18     4     5    1
    19    30    33    1
    20    30    38    1
    21    31    34    1
    22    31    39    1
    23    32    35    1
    24    32    40    1
    25    41    42    1
    26    41    43    1
    27    15    19    2
    28    16    22    2
    29    17    12    1
    30    17    19   ar
    31    17    20   ar
    32    18    19   ar
    33    18    22   ar
    34    18    23    1
    35     9    10    1
    36     9    11    1
    37    10    12    1
    38    11     5    1
    39    33    34    1
    40    33    35    1
    41    34    36    1
    42    35    37    1
    43    36    42    1
    44    20    21   ar
    45    21    22   ar
@<TRIPOS>MOLECULE
*****
 43 45 0 0 0
SMALL
GASTEIGER

@<TRIPOS>ATOM
      1 P          21.5949   70.9023   -1.1324 P.3     1  UNL1        0.2189
      2 O          23.2002   70.7023   -1.1106 O.co2   1  UNL1       -0.4371
      3 O          20.7970   69.6405   -0.9817 O.2     1  UNL1       -0.5170
      4 O          21.3269   71.7455   -2.4870 O.3     1  UNL1       -0.3112
      5 C          20.5860   71.1340   -3.5287 C.3     1  UNL1        0.1811
      6 O          18.7096   72.0858   -4.6894 O.3     1  UNL1       -0.3308
      7 O          17.0105   70.9249   -2.5086 O.3     1  UNL1       -0.3794
      8 O          16.6694   69.1399   -4.5418 O.3     1  UNL1       -0.3779
      9 C          18.1874   70.3934   -3.1150 C.3     1  UNL1        0.1713
     10 C          17.8754   69.8754   -4.5035 C.3     1  UNL1        0.1895
     11 C          19.1274   71.5549   -3.4127 C.3     1  UNL1        0.1764
     12 C          17.8022   71.1606   -5.3102 C.3     1  UNL1        0.2383
     13 H          16.3950   70.2015   -2.3089 H       1  UNL1        0.2105
     14 H          16.7664   68.3318   -4.0142 H       1  UNL1        0.2106
     15 O          16.0359   70.4217   -7.3868 O.2     1  UNL1       -0.2464
     16 O          19.4137   70.4614  -10.5221 O.2     1  UNL1       -0.2670
     17 N          18.1931   70.9713   -6.6787 N.ar    1  UNL1       -0.2551
     18 N          17.7192   70.4422   -8.9463 N.ar    1  UNL1       -0.2743
     19 C          17.2284   70.5993   -7.6438 C.ar    1  UNL1        0.3323
     20 C          19.5201   71.1546   -7.0520 C.ar    1  UNL1        0.0869
     21 C          19.9723   70.9997   -8.2982 C.ar    1  UNL1        0.0795
     22 C          19.0289   70.6118   -9.3666 C.ar    1  UNL1        0.2626
     23 H          17.0652   70.1829   -9.6354 H       1  UNL1        0.1734
     24 O          21.3491   71.9968    0.0315 O.3     1  UNL1       -0.2703
     25 P          22.1017   72.2332    1.4424 P.3     1  UNL1        0.2208
     26 O          23.0636   73.4990    1.1423 O.co2   1  UNL1       -0.4371
     27 O          22.8172   71.0228    1.9686 O.2     1  UNL1       -0.5170
     28 O          20.9586   72.8134    2.4230 O.3     1  UNL1       -0.2858
     29 O          19.8253   74.7644    3.1480 O.3     1  UNL1       -0.3258
     30 O          21.7958   73.8068    6.6482 O.3     1  UNL1       -0.3794
     31 O          18.9586   73.4018    6.4617 O.3     1  UNL1       -0.3794
     32 O          23.1193   73.4417    4.0997 O.3     1  UNL1       -0.3775
     33 C          21.1091   73.5354    5.4233 C.3     1  UNL1        0.1715
     34 C          19.7109   74.1503    5.5109 C.3     1  UNL1        0.1694
     35 C          21.8942   74.1476    4.2647 C.3     1  UNL1        0.1967
     36 C          19.0122   74.1343    4.1447 C.3     1  UNL1        0.1761
     37 C          21.0901   74.1255    2.9635 C.3     1  UNL1        0.2704
     38 H          21.3028   73.4203    7.3878 H       1  UNL1        0.2105
     39 H          19.4109   73.4195    7.3198 H       1  UNL1        0.2105
     40 H          23.6191   73.4633    4.9301 H       1  UNL1        0.2106
     41 O          17.9470   76.2639    4.3425 O.3     1  UNL1       -0.3794
     42 C          17.6817   74.8835    4.1739 C.3     1  UNL1        0.1693
     43 H          17.1093   76.7533    4.3627 H       1  UNL1        0.2105
@<TRIPOS>UNITY_ATOM_ATTR
2 1
charge -1
26 1
charge -1
@<TRIPOS>BOND
     1    25    28    1
     2    25    24    1
     3    25    26    1
     4    25    27    2
     5     1     4    1
     6     1    24    1
     7     1     2    1
     8     1     3    2
     9     6    11    1
    10     6    12    1
    11    29    36    1
    12    29    37    1
    13     7     9    1
    14     7    13    1
    15     8    10    1
    16     8    14    1
    17    28    37    1
    18     4     5    1
    19    30    33    1
    20    30    38    1
    21    31    34    1
    22    31    39    1
    23    32    35    1
    24    32    40    1
    25    41    42    1
    26    41    43    1
    27    15    19    2
    28    16    22    2
    29    17    12    1
    30    17    19   ar
    31    17    20   ar
    32    18    19   ar
    33    18    22   ar
    34    18    23    1
    35     9    10    1
    36     9    11    1
    37    10    12    1
    38    11     5    1
    39    33    34    1
    40    33    35    1
    41    34    36    1
    42    35    37    1
    43    36    42    1
    44    20    21   ar
    45    21    22   ar
@<TRIPOS>MOLECULE
*****
 43 45 0 0 0
SMALL
GASTEIGER

@<TRIPOS>ATOM
      1 P          21.9750   73.7987   -6.0098 P.3     1  UNL1        0.2189
      2 O          22.3152   75.3696   -6.1940 O.co2   1  UNL1       -0.4371
      3 O          22.8480   72.8648   -6.7954 O.2     1  UNL1       -0.5170
      4 O          20.3895   73.7058   -6.3192 O.3     1  UNL1       -0.3112
      5 C          19.8735   74.4242   -7.4262 C.3     1  UNL1        0.1811
      6 O          19.6462   72.1026   -8.0026 O.3     1  UNL1       -0.3308
      7 O          17.9808   73.0329  -10.3160 O.3     1  UNL1       -0.3794
      8 O          16.0991   72.2111   -8.5214 O.3     1  UNL1       -0.3779
      9 C          18.0644   73.5623   -8.9938 C.3     1  UNL1        0.1713
     10 C          17.3420   72.6568   -8.0182 C.3     1  UNL1        0.1895
     11 C          19.5105   73.4404   -8.5301 C.3     1  UNL1        0.1764
     12 C          18.3403   71.5255   -7.8400 C.3     1  UNL1        0.2383
     13 H          17.0663   73.1002  -10.6338 H       1  UNL1        0.2105
     14 H          15.4990   72.9670   -8.6170 H       1  UNL1        0.2106
     15 O          16.1565   69.9775   -6.9387 O.2     1  UNL1       -0.2464
     16 O          18.1262   69.2552   -2.8351 O.2     1  UNL1       -0.2670
     17 N          18.2563   70.9205   -6.5407 N.ar    1  UNL1       -0.2551
     18 N          17.1391   69.6190   -4.8962 N.ar    1  UNL1       -0.2743
     19 C          17.1153   70.1634   -6.1866 C.ar    1  UNL1        0.3323
     20 C          19.2978   71.0805   -5.6331 C.ar    1  UNL1        0.0869
     21 C          19.3045   70.5559   -4.4060 C.ar    1  UNL1        0.0795
     22 C          18.1501   69.7508   -3.9575 C.ar    1  UNL1        0.2626
     23 H          16.3546   69.0879   -4.6274 H       1  UNL1        0.1734
     24 O          22.0449   73.5971   -4.4075 O.3     1  UNL1       -0.2703
     25 P          23.1924   72.9547   -3.4675 P.3     1  UNL1        0.2208
     26 O          24.5056   73.8236   -3.8388 O.co2   1  UNL1       -0.4371
     27 O          23.3639   71.4723   -3.6317 O.2     1  UNL1       -0.5170
     28 O          22.8041   73.4216   -1.9721 O.3     1  UNL1       -0.2858
     29 O          21.3322   71.7896   -1.0850 O.3     1  UNL1       -0.3258
     30 O          21.3258   74.4640    2.0613 O.3     1  UNL1       -0.3794
     31 O          22.7078   71.9609    2.3308 O.3     1  UNL1       -0.3794
     32 O          21.3593   75.4403   -0.6636 O.3     1  UNL1       -0.3775
     33 C          21.8941   73.7460    0.9626 C.3     1  UNL1        0.1715
     34 C          21.8028   72.2498    1.2688 C.3     1  UNL1        0.1694
     35 C          21.1177   74.0830   -0.3089 C.3     1  UNL1        0.1967
     36 C          22.1451   71.4092    0.0314 C.3     1  UNL1        0.1761
     37 C          21.4985   73.1569   -1.4654 C.3     1  UNL1        0.2704
     38 H          21.8146   74.2548    2.8718 H       1  UNL1        0.2105
     39 H          22.4810   72.4985    3.1059 H       1  UNL1        0.2105
     40 H          21.1139   76.0164    0.0765 H       1  UNL1        0.2106
     41 O          23.1645   69.2720    0.3509 O.3     1  UNL1       -0.3794
     42 C          21.9081   69.9194    0.2686 C.3     1  UNL1        0.1693
     43 H          23.0293   68.3230    0.5021 H       1  UNL1        0.2105
@<TRIPOS>UNITY_ATOM_ATTR
2 1
charge -1
26 1
charge -1
@<TRIPOS>BOND
     1    25    28    1
     2    25    24    1
     3    25    26    1
     4    25    27    2
     5     1     4    1
     6     1    24    1
     7     1     2    1
     8     1     3    2
     9     6    11    1
    10     6    12    1
    11    29    36    1
    12    29    37    1
    13     7     9    1
    14     7    13    1
    15     8    10    1
    16     8    14    1
    17    28    37    1
    18     4     5    1
    19    30    33    1
    20    30    38    1
    21    31    34    1
    22    31    39    1
    23    32    35    1
    24    32    40    1
    25    41    42    1
    26    41    43    1
    27    15    19    2
    28    16    22    2
    29    17    12    1
    30    17    19   ar
    31    17    20   ar
    32    18    19   ar
    33    18    22   ar
    34    18    23    1
    35     9    10    1
    36     9    11    1
    37    10    12    1
    38    11     5    1
    39    33    34    1
    40    33    35    1
    41    34    36    1
    42    35    37    1
    43    36    42    1
    44    20    21   ar
    45    21    22   ar
@<TRIPOS>MOLECULE
*****
 43 45 0 0 0
SMALL
GASTEIGER

@<TRIPOS>ATOM
      1 P          22.6044   72.9166   -4.3657 P.3     1  UNL1        0.2189
      2 O          22.9612   73.3683   -5.8777 O.co2   1  UNL1       -0.4371
      3 O          23.3962   71.7517   -3.8486 O.2     1  UNL1       -0.5170
      4 O          20.9985   72.7202   -4.3877 O.3     1  UNL1       -0.3112
      5 C          20.4334   71.6833   -3.6047 C.3     1  UNL1        0.1811
      6 O          18.4375   72.3241   -4.7793 O.3     1  UNL1       -0.3308
      7 O          16.9260   71.0517   -2.5239 O.3     1  UNL1       -0.3794
      8 O          16.8069   69.1448   -4.4697 O.3     1  UNL1       -0.3779
      9 C          18.1576   70.6526   -3.1230 C.3     1  UNL1        0.1713
     10 C          17.9051   70.0340   -4.4821 C.3     1  UNL1        0.1895
     11 C          18.9329   71.9129   -3.4863 C.3     1  UNL1        0.1764
     12 C          17.6554   71.2595   -5.3446 C.3     1  UNL1        0.2383
     13 H          16.4135   70.2635   -2.2829 H       1  UNL1        0.2105
     14 H          17.0146   68.3820   -3.9078 H       1  UNL1        0.2106
     15 O          15.9691   70.2462   -7.3714 O.2     1  UNL1       -0.2464
     16 O          19.3012   70.5353  -10.5423 O.2     1  UNL1       -0.2670
     17 N          18.0562   71.0600   -6.7088 N.ar    1  UNL1       -0.2551
     18 N          17.6295   70.3911   -8.9487 N.ar    1  UNL1       -0.2743
     19 C          17.1327   70.5448   -7.6481 C.ar    1  UNL1        0.3323
     20 C          19.3520   71.3745   -7.1034 C.ar    1  UNL1        0.0869
     21 C          19.8106   71.2209   -8.3473 C.ar    1  UNL1        0.0795
     22 C          18.9094   70.6881   -9.3895 C.ar    1  UNL1        0.2626
     23 H          17.0041   70.0334   -9.6200 H       1  UNL1        0.1734
     24 O          22.7916   74.2840   -3.5241 O.3     1  UNL1       -0.2703
     25 P          22.0868   74.7979   -2.1632 P.3     1  UNL1        0.2208
     26 O          20.5783   75.1439   -2.6344 O.co2   1  UNL1       -0.4371
     27 O          22.8017   75.9342   -1.4912 O.2     1  UNL1       -0.5170
     28 O          21.9363   73.4720   -1.2553 O.3     1  UNL1       -0.2858
     29 O          23.2402   73.7256    0.7074 O.3     1  UNL1       -0.3258
     30 O          22.0323   69.8102    1.2190 O.3     1  UNL1       -0.3794
     31 O          20.9020   71.8701    2.8704 O.3     1  UNL1       -0.3794
     32 O          22.7082   70.7792   -1.4237 O.3     1  UNL1       -0.3775
     33 C          21.8943   71.1733    0.8087 C.3     1  UNL1        0.1715
     34 C          22.0462   72.0635    2.0437 C.3     1  UNL1        0.1694
     35 C          22.9738   71.4959   -0.2227 C.3     1  UNL1        0.1967
     36 C          22.1767   73.5408    1.6490 C.3     1  UNL1        0.1761
     37 C          23.0526   72.9968   -0.5074 C.3     1  UNL1        0.2704
     38 H          21.3495   69.5987    1.8736 H       1  UNL1        0.2105
     39 H          20.8309   70.9332    3.1121 H       1  UNL1        0.2105
     40 H          22.6610   69.8304   -1.2302 H       1  UNL1        0.2106
     41 O          23.8925   74.5250    2.9892 O.3     1  UNL1       -0.3794
     42 C          22.4867   74.4289    2.8520 C.3     1  UNL1        0.1693
     43 H          24.1047   75.0877    3.7508 H       1  UNL1        0.2105
@<TRIPOS>UNITY_ATOM_ATTR
2 1
charge -1
26 1
charge -1
@<TRIPOS>BOND
     1    25    28    1
     2    25    24    1
     3    25    26    1
     4    25    27    2
     5     1     4    1
     6     1    24    1
     7     1     2    1
     8     1     3    2
     9     6    11    1
    10     6    12    1
    11    29    36    1
    12    29    37    1
    13     7     9    1
    14     7    13    1
    15     8    10    1
    16     8    14    1
    17    28    37    1
    18     4     5    1
    19    30    33    1
    20    30    38    1
    21    31    34    1
    22    31    39    1
    23    32    35    1
    24    32    40    1
    25    41    42    1
    26    41    43    1
    27    15    19    2
    28    16    22    2
    29    17    12    1
    30    17    19   ar
    31    17    20   ar
    32    18    19   ar
    33    18    22   ar
    34    18    23    1
    35     9    10    1
    36     9    11    1
    37    10    12    1
    38    11     5    1
    39    33    34    1
    40    33    35    1
    41    34    36    1
    42    35    37    1
    43    36    42    1
    44    20    21   ar
    45    21    22   ar
@<TRIPOS>MOLECULE
*****
 43 45 0 0 0
SMALL
GASTEIGER

@<TRIPOS>ATOM
      1 P          22.3978   73.4242   -5.2772 P.3     1  UNL1        0.2189
      2 O          22.8659   74.7904   -6.0065 O.co2   1  UNL1       -0.4371
      3 O          23.5059   72.6255   -4.6563 O.2     1  UNL1       -0.5170
      4 O          21.5280   72.6592   -6.4069 O.3     1  UNL1       -0.3112
      5 C          20.8211   73.4368   -7.3575 C.3     1  UNL1        0.1811
      6 O          20.0419   71.2045   -7.7858 O.3     1  UNL1       -0.3308
      7 O          18.5291   72.3761  -10.0943 O.3     1  UNL1       -0.3794
      8 O          16.5939   72.1038   -8.1924 O.3     1  UNL1       -0.3779
      9 C          18.7925   72.9382   -8.8098 C.3     1  UNL1        0.1713
     10 C          17.9277   72.2750   -7.7583 C.3     1  UNL1        0.1895
     11 C          20.1921   72.5089   -8.3877 C.3     1  UNL1        0.1764
     12 C          18.6474   70.9540   -7.5457 C.3     1  UNL1        0.2383
     13 H          17.6407   72.6369  -10.3852 H       1  UNL1        0.2105
     14 H          16.1791   72.9721   -8.3132 H       1  UNL1        0.2106
     15 O          16.3040   69.7070   -6.5807 O.2     1  UNL1       -0.2464
     16 O          18.1448   69.0667   -2.4042 O.2     1  UNL1       -0.2670
     17 N          18.4870   70.4516   -6.2104 N.ar    1  UNL1       -0.2551
     18 N          17.2225   69.3891   -4.5020 N.ar    1  UNL1       -0.2743
     19 C          17.2693   69.8433   -5.8262 C.ar    1  UNL1        0.3323
     20 C          19.5302   70.5641   -5.2976 C.ar    1  UNL1        0.0869
     21 C          19.4692   70.1270   -4.0381 C.ar    1  UNL1        0.0795
     22 C          18.2320   69.4790   -3.5567 C.ar    1  UNL1        0.2626
     23 H          16.3839   68.9622   -4.2119 H       1  UNL1        0.1734
     24 O          21.2719   73.9353   -4.2360 O.3     1  UNL1       -0.2703
     25 P          21.3996   74.4983   -2.7262 P.3     1  UNL1        0.2208
     26 O          19.9546   75.1751   -2.4590 O.co2   1  UNL1       -0.4371
     27 O          22.5647   75.4200   -2.5096 O.2     1  UNL1       -0.5170
     28 O          21.4094   73.1783   -1.7975 O.3     1  UNL1       -0.2858
     29 O          23.0415   73.4395   -0.0990 O.3     1  UNL1       -0.3258
     30 O          21.9341   69.5318    0.6455 O.3     1  UNL1       -0.3794
     31 O          21.1197   71.6060    2.4572 O.3     1  UNL1       -0.3794
     32 O          22.1326   70.4818   -2.0817 O.3     1  UNL1       -0.3775
     33 C          21.7288   70.8928    0.2569 C.3     1  UNL1        0.1715
     34 C          22.0996   71.7902    1.4392 C.3     1  UNL1        0.1694
     35 C          22.6089   71.2050   -0.9519 C.3     1  UNL1        0.1967
     36 C          22.1615   73.2645    1.0176 C.3     1  UNL1        0.1761
     37 C          22.6396   72.7038   -1.2562 C.3     1  UNL1        0.2704
     38 H          21.3777   69.3269    1.4123 H       1  UNL1        0.2105
     39 H          21.0904   70.6710    2.7140 H       1  UNL1        0.2105
     40 H          22.1183   69.5344   -1.8765 H       1  UNL1        0.2106
     41 O          23.3232   73.3436    3.1040 O.3     1  UNL1       -0.3794
     42 C          22.6822   74.1590    2.1404 C.3     1  UNL1        0.1693
     43 H          23.6600   73.8995    3.8246 H       1  UNL1        0.2105
@<TRIPOS>UNITY_ATOM_ATTR
2 1
charge -1
26 1
charge -1
@<TRIPOS>BOND
     1    25    28    1
     2    25    24    1
     3    25    26    1
     4    25    27    2
     5     1     4    1
     6     1    24    1
     7     1     2    1
     8     1     3    2
     9     6    11    1
    10     6    12    1
    11    29    36    1
    12    29    37    1
    13     7     9    1
    14     7    13    1
    15     8    10    1
    16     8    14    1
    17    28    37    1
    18     4     5    1
    19    30    33    1
    20    30    38    1
    21    31    34    1
    22    31    39    1
    23    32    35    1
    24    32    40    1
    25    41    42    1
    26    41    43    1
    27    15    19    2
    28    16    22    2
    29    17    12    1
    30    17    19   ar
    31    17    20   ar
    32    18    19   ar
    33    18    22   ar
    34    18    23    1
    35     9    10    1
    36     9    11    1
    37    10    12    1
    38    11     5    1
    39    33    34    1
    40    33    35    1
    41    34    36    1
    42    35    37    1
    43    36    42    1
    44    20    21   ar
    45    21    22   ar
@<TRIPOS>MOLECULE
*****
 43 45 0 0 0
SMALL
GASTEIGER

@<TRIPOS>ATOM
      1 P          23.0630   72.4087   -3.5271 P.3     1  UNL1        0.2189
      2 O          23.3325   70.8577   -3.1537 O.co2   1  UNL1       -0.4371
      3 O          24.2628   73.1575   -4.0284 O.2     1  UNL1       -0.5170
      4 O          22.3627   73.0119   -2.1990 O.3     1  UNL1       -0.3112
      5 C          22.2415   72.1774   -1.0602 C.3     1  UNL1        0.1811
      6 O          21.0972   72.3552    1.0452 O.3     1  UNL1       -0.3308
      7 O          18.9669   73.8431   -0.4510 O.3     1  UNL1       -0.3794
      8 O          20.3605   75.8532    0.7547 O.3     1  UNL1       -0.3779
      9 C          20.3810   73.8609   -0.6387 C.3     1  UNL1        0.1713
     10 C          21.0482   74.6529    0.4664 C.3     1  UNL1        0.1895
     11 C          20.9061   72.4537   -0.3831 C.3     1  UNL1        0.1764
     12 C          21.0162   73.6684    1.6230 C.3     1  UNL1        0.2383
     13 H          18.6087   74.7311   -0.6092 H       1  UNL1        0.2105
     14 H          20.4095   76.4461   -0.0113 H       1  UNL1        0.2106
     15 O          23.5029   74.7976    0.9027 O.2     1  UNL1       -0.2464
     16 O          25.1680   74.3106    5.1726 O.2     1  UNL1       -0.2670
     17 N          22.1172   73.8490    2.5266 N.ar    1  UNL1       -0.2551
     18 N          24.3299   74.5544    3.0294 N.ar    1  UNL1       -0.2743
     19 C          23.3232   74.4251    2.0641 C.ar    1  UNL1        0.3323
     20 C          21.9948   73.4570    3.8553 C.ar    1  UNL1        0.0869
     21 C          22.9646   73.5859    4.7630 C.ar    1  UNL1        0.0795
     22 C          24.2567   74.1787    4.3614 C.ar    1  UNL1        0.2626
     23 H          25.1792   74.9528    2.7300 H       1  UNL1        0.1734
     24 O          21.8370   72.3221   -4.5769 O.3     1  UNL1       -0.2703
     25 P          21.5067   73.1940   -5.8975 P.3     1  UNL1        0.2208
     26 O          22.6307   72.7070   -6.9543 O.co2   1  UNL1       -0.4371
     27 O          21.4769   74.6768   -5.6643 O.2     1  UNL1       -0.5170
     28 O          20.1248   72.5773   -6.4590 O.3     1  UNL1       -0.2858
     29 O          18.0410   73.6576   -6.7864 O.3     1  UNL1       -0.3258
     30 O          16.6796   69.9181   -5.6846 O.3     1  UNL1       -0.3794
     31 O          16.4482   70.7622   -8.4200 O.3     1  UNL1       -0.3794
     32 O          19.0092   71.0464   -4.3885 O.3     1  UNL1       -0.3775
     33 C          17.5676   70.8500   -6.3081 C.3     1  UNL1        0.1715
     34 C          16.7760   71.6436   -7.3494 C.3     1  UNL1        0.1694
     35 C          18.1406   71.7828   -5.2428 C.3     1  UNL1        0.1967
     36 C          17.5872   72.8378   -7.8698 C.3     1  UNL1        0.1761
     37 C          18.8867   72.9630   -5.8676 C.3     1  UNL1        0.2704
     38 H          16.3127   69.3225   -6.3556 H       1  UNL1        0.2105
     39 H          15.9365   70.0123   -8.0779 H       1  UNL1        0.2105
     40 H          18.5249   70.3024   -3.9990 H       1  UNL1        0.2106
     41 O          15.4344   73.2392   -8.8253 O.3     1  UNL1       -0.3794
     42 C          16.7608   73.7329   -8.7907 C.3     1  UNL1        0.1693
     43 H          14.8967   73.7993   -9.4074 H       1  UNL1        0.2105
@<TRIPOS>UNITY_ATOM_ATTR
2 1
charge -1
26 1
charge -1
@<TRIPOS>BOND
     1    25    28    1
     2    25    24    1
     3    25    26    1
     4    25    27    2
     5     1     4    1
     6     1    24    1
     7     1     2    1
     8     1     3    2
     9     6    11    1
    10     6    12    1
    11    29    36    1
    12    29    37    1
    13     7     9    1
    14     7    13    1
    15     8    10    1
    16     8    14    1
    17    28    37    1
    18     4     5    1
    19    30    33    1
    20    30    38    1
    21    31    34    1
    22    31    39    1
    23    32    35    1
    24    32    40    1
    25    41    42    1
    26    41    43    1
    27    15    19    2
    28    16    22    2
    29    17    12    1
    30    17    19   ar
    31    17    20   ar
    32    18    19   ar
    33    18    22   ar
    34    18    23    1
    35     9    10    1
    36     9    11    1
    37    10    12    1
    38    11     5    1
    39    33    34    1
    40    33    35    1
    41    34    36    1
    42    35    37    1
    43    36    42    1
    44    20    21   ar
    45    21    22   ar
@<TRIPOS>MOLECULE
*****
 43 45 0 0 0
SMALL
GASTEIGER

@<TRIPOS>ATOM
      1 P          21.6410   73.0229   -6.1294 P.3     1  UNL1        0.2189
      2 O          21.4296   74.5175   -5.5474 O.co2   1  UNL1       -0.4371
      3 O          22.7964   72.8682   -7.0741 O.2     1  UNL1       -0.5170
      4 O          20.1890   72.6289   -6.7246 O.3     1  UNL1       -0.3112
      5 C          19.6919   71.3236   -6.4858 C.3     1  UNL1        0.1811
      6 O          17.4811   71.0028   -7.3708 O.3     1  UNL1       -0.3308
      7 O          18.7728   70.9614  -10.0765 O.3     1  UNL1       -0.3794
      8 O          17.7621   73.4905   -9.9389 O.3     1  UNL1       -0.3779
      9 C          19.1096   71.7375   -8.9277 C.3     1  UNL1        0.1713
     10 C          18.0975   72.8461   -8.7269 C.3     1  UNL1        0.1895
     11 C          18.8828   70.8725   -7.6941 C.3     1  UNL1        0.1764
     12 C          16.9244   72.0956   -8.1197 C.3     1  UNL1        0.2383
     13 H          18.9099   71.4928  -10.8770 H       1  UNL1        0.2105
     14 H          18.5408   73.9536  -10.2853 H       1  UNL1        0.2106
     15 O          16.2895   71.4160   -5.4526 O.2     1  UNL1       -0.2464
     16 O          13.9315   75.3259   -4.8247 O.2     1  UNL1       -0.2670
     17 N          16.1464   72.9177   -7.2364 N.ar    1  UNL1       -0.2551
     18 N          15.1161   73.3635   -5.1421 N.ar    1  UNL1       -0.2743
     19 C          15.8837   72.4839   -5.9161 C.ar    1  UNL1        0.3323
     20 C          15.6531   74.1393   -7.6815 C.ar    1  UNL1        0.0869
     21 C          14.9216   74.9660   -6.9313 C.ar    1  UNL1        0.0795
     22 C          14.6020   74.5876   -5.5397 C.ar    1  UNL1        0.2626
     23 H          14.9201   73.0820   -4.2190 H       1  UNL1        0.1734
     24 O          21.7414   72.1224   -4.7907 O.3     1  UNL1       -0.2703
     25 P          22.8392   72.1029   -3.6043 P.3     1  UNL1        0.2208
     26 O          23.9633   73.1451   -4.1218 O.co2   1  UNL1       -0.4371
     27 O          23.3663   70.7360   -3.2762 O.2     1  UNL1       -0.5170
     28 O          22.1212   72.8568   -2.3710 O.3     1  UNL1       -0.2858
     29 O          21.4096   71.2084   -0.8240 O.3     1  UNL1       -0.3258
     30 O          19.8432   74.5580    1.0138 O.3     1  UNL1       -0.3794
     31 O          22.1321   73.2533    2.1568 O.3     1  UNL1       -0.3794
     32 O          19.7893   74.3361   -1.8719 O.3     1  UNL1       -0.3775
     33 C          20.8005   73.8176    0.2517 C.3     1  UNL1        0.1715
     34 C          21.3329   72.6802    1.1257 C.3     1  UNL1        0.1694
     35 C          20.1212   73.2620   -0.9986 C.3     1  UNL1        0.1967
     36 C          22.1598   71.6865    0.2986 C.3     1  UNL1        0.1761
     37 C          21.0095   72.2470   -1.7202 C.3     1  UNL1        0.2704
     38 H          20.2682   74.9139    1.8089 H       1  UNL1        0.2105
     39 H          21.5984   73.8791    2.6712 H       1  UNL1        0.2105
     40 H          19.2267   74.9715   -1.4035 H       1  UNL1        0.2106
     41 O          21.7917   69.3584    0.6901 O.3     1  UNL1       -0.3794
     42 C          22.5683   70.4629    1.1159 C.3     1  UNL1        0.1693
     43 H          22.0411   68.5723    1.2015 H       1  UNL1        0.2105
@<TRIPOS>UNITY_ATOM_ATTR
2 1
charge -1
26 1
charge -1
@<TRIPOS>BOND
     1    25    28    1
     2    25    24    1
     3    25    26    1
     4    25    27    2
     5     1     4    1
     6     1    24    1
     7     1     2    1
     8     1     3    2
     9     6    11    1
    10     6    12    1
    11    29    36    1
    12    29    37    1
    13     7     9    1
    14     7    13    1
    15     8    10    1
    16     8    14    1
    17    28    37    1
    18     4     5    1
    19    30    33    1
    20    30    38    1
    21    31    34    1
    22    31    39    1
    23    32    35    1
    24    32    40    1
    25    41    42    1
    26    41    43    1
    27    15    19    2
    28    16    22    2
    29    17    12    1
    30    17    19   ar
    31    17    20   ar
    32    18    19   ar
    33    18    22   ar
    34    18    23    1
    35     9    10    1
    36     9    11    1
    37    10    12    1
    38    11     5    1
    39    33    34    1
    40    33    35    1
    41    34    36    1
    42    35    37    1
    43    36    42    1
    44    20    21   ar
    45    21    22   ar
@<TRIPOS>MOLECULE
*****
 43 45 0 0 0
SMALL
GASTEIGER

@<TRIPOS>ATOM
      1 P          22.8181   72.6477   -3.9135 P.3     1  UNL1        0.2189
      2 O          22.9743   72.8175   -5.5148 O.co2   1  UNL1       -0.4371
      3 O          23.5202   71.4563   -3.3311 O.2     1  UNL1       -0.5170
      4 O          21.2197   72.7096   -3.6704 O.3     1  UNL1       -0.3112
      5 C          20.5082   71.4913   -3.5385 C.3     1  UNL1        0.1811
      6 O          18.5526   72.2595   -4.7042 O.3     1  UNL1       -0.3308
      7 O          16.9690   71.0200   -2.4801 O.3     1  UNL1       -0.3794
      8 O          16.7582   69.1633   -4.4663 O.3     1  UNL1       -0.3779
      9 C          18.1804   70.5702   -3.0845 C.3     1  UNL1        0.1713
     10 C          17.9010   69.9943   -4.4571 C.3     1  UNL1        0.1895
     11 C          19.0213   71.7960   -3.4190 C.3     1  UNL1        0.1764
     12 C          17.7183   71.2491   -5.2939 C.3     1  UNL1        0.2383
     13 H          16.4154   70.2546   -2.2572 H       1  UNL1        0.2105
     14 H          16.9240   68.3791   -3.9202 H       1  UNL1        0.2106
     15 O          16.0143   70.2769   -7.3260 O.2     1  UNL1       -0.2464
     16 O          19.3418   70.5548  -10.5027 O.2     1  UNL1       -0.2670
     17 N          18.1131   71.0579   -6.6610 N.ar    1  UNL1       -0.2551
     18 N          17.6725   70.4163   -8.9062 N.ar    1  UNL1       -0.2743
     19 C          17.1809   70.5635   -7.6028 C.ar    1  UNL1        0.3323
     20 C          19.4118   71.3599   -7.0560 C.ar    1  UNL1        0.0869
     21 C          19.8653   71.2126   -8.3026 C.ar    1  UNL1        0.0795
     22 C          18.9549   70.7014   -9.3475 C.ar    1  UNL1        0.2626
     23 H          17.0409   70.0729   -9.5792 H       1  UNL1        0.1734
     24 O          23.3274   74.0728   -3.3455 O.3     1  UNL1       -0.2703
     25 P          22.7413   75.0192   -2.1735 P.3     1  UNL1        0.2208
     26 O          21.1905   75.2116   -2.5926 O.co2   1  UNL1       -0.4371
     27 O          23.4956   76.3035   -1.9846 O.2     1  UNL1       -0.5170
     28 O          22.6961   74.0718   -0.8676 O.3     1  UNL1       -0.2858
     29 O          21.2056   72.2655   -0.5039 O.3     1  UNL1       -0.3258
     30 O          21.7772   73.4478    3.4110 O.3     1  UNL1       -0.3794
     31 O          22.9704   71.0077    2.4781 O.3     1  UNL1       -0.3794
     32 O          21.5805   75.4360    1.3163 O.3     1  UNL1       -0.3775
     33 C          22.1558   73.2157    2.0515 C.3     1  UNL1        0.1715
     34 C          21.9772   71.7261    1.7516 C.3     1  UNL1        0.1694
     35 C          21.2700   74.0585    1.1358 C.3     1  UNL1        0.1967
     36 C          22.1062   71.4443    0.2486 C.3     1  UNL1        0.1761
     37 C          21.4394   73.6648   -0.3326 C.3     1  UNL1        0.2704
     38 H          22.3362   72.9160    3.9977 H       1  UNL1        0.2105
     39 H          22.8782   71.1948    3.4256 H       1  UNL1        0.2105
     40 H          21.4691   75.6729    2.2497 H       1  UNL1        0.2106
     41 O          22.8852   69.1855    0.2589 O.3     1  UNL1       -0.3794
     42 C          21.7761   69.9926   -0.0915 C.3     1  UNL1        0.1693
     43 H          22.6893   68.2587    0.0483 H       1  UNL1        0.2105
@<TRIPOS>UNITY_ATOM_ATTR
2 1
charge -1
26 1
charge -1
@<TRIPOS>BOND
     1    25    28    1
     2    25    24    1
     3    25    26    1
     4    25    27    2
     5     1     4    1
     6     1    24    1
     7     1     2    1
     8     1     3    2
     9     6    11    1
    10     6    12    1
    11    29    36    1
    12    29    37    1
    13     7     9    1
    14     7    13    1
    15     8    10    1
    16     8    14    1
    17    28    37    1
    18     4     5    1
    19    30    33    1
    20    30    38    1
    21    31    34    1
    22    31    39    1
    23    32    35    1
    24    32    40    1
    25    41    42    1
    26    41    43    1
    27    15    19    2
    28    16    22    2
    29    17    12    1
    30    17    19   ar
    31    17    20   ar
    32    18    19   ar
    33    18    22   ar
    34    18    23    1
    35     9    10    1
    36     9    11    1
    37    10    12    1
    38    11     5    1
    39    33    34    1
    40    33    35    1
    41    34    36    1
    42    35    37    1
    43    36    42    1
    44    20    21   ar
    45    21    22   ar
@<TRIPOS>MOLECULE
*****
 43 45 0 0 0
SMALL
GASTEIGER

@<TRIPOS>ATOM
      1 P          22.3964   75.6292   -8.1478 P.3     1  UNL1        0.2189
      2 O          21.5476   76.2240   -6.9056 O.co2   1  UNL1       -0.4371
      3 O          22.2737   76.4029   -9.4276 O.2     1  UNL1       -0.5170
      4 O          21.9449   74.0771   -8.2190 O.3     1  UNL1       -0.3112
      5 C          20.6521   73.7272   -7.7564 C.3     1  UNL1        0.1811
      6 O          19.8871   71.4839   -8.1517 O.3     1  UNL1       -0.3308
      7 O          18.2897   72.6275  -10.4170 O.3     1  UNL1       -0.3794
      8 O          16.4176   72.3402   -8.4551 O.3     1  UNL1       -0.3779
      9 C          18.5858   73.1982   -9.1435 C.3     1  UNL1        0.1713
     10 C          17.7619   72.5292   -8.0631 C.3     1  UNL1        0.1895
     11 C          20.0028   72.7874   -8.7631 C.3     1  UNL1        0.1764
     12 C          18.5038   71.2178   -7.8677 C.3     1  UNL1        0.2383
     13 H          17.3897   72.8763  -10.6813 H       1  UNL1        0.2105
     14 H          15.9887   73.2030   -8.5665 H       1  UNL1        0.2106
     15 O          16.2019   69.9588   -6.8219 O.2     1  UNL1       -0.2464
     16 O          18.1831   69.3461   -2.7060 O.2     1  UNL1       -0.2670
     17 N          18.3908   70.7192   -6.5261 N.ar    1  UNL1       -0.2551
     18 N          17.1903   69.6546   -4.7734 N.ar    1  UNL1       -0.2743
     19 C          17.1905   70.1042   -6.1000 C.ar    1  UNL1        0.3323
     20 C          19.4625   70.8420   -5.6485 C.ar    1  UNL1        0.0869
     21 C          19.4459   70.4092   -4.3862 C.ar    1  UNL1        0.0795
     22 C          18.2297   69.7548   -3.8622 C.ar    1  UNL1        0.2626
     23 H          16.3645   69.2232   -4.4544 H       1  UNL1        0.1734
     24 O          23.8977   75.5440   -7.5546 O.3     1  UNL1       -0.2703
     25 P          25.0686   76.6549   -7.4657 P.3     1  UNL1        0.2208
     26 O          24.7926   77.3717   -6.0417 O.co2   1  UNL1       -0.4371
     27 O          25.1138   77.5962   -8.6343 O.2     1  UNL1       -0.5170
     28 O          26.4217   75.8049   -7.2387 O.3     1  UNL1       -0.2858
     29 O          28.5450   76.3090   -6.3147 O.3     1  UNL1       -0.3258
     30 O          29.7581   74.1274   -9.6040 O.3     1  UNL1       -0.3794
     31 O          29.9690   72.9750   -6.9819 O.3     1  UNL1       -0.3794
     32 O          27.5107   75.9388   -9.8216 O.3     1  UNL1       -0.3775
     33 C          28.9003   74.4705   -8.5123 C.3     1  UNL1        0.1715
     34 C          29.7047   74.3554   -7.2159 C.3     1  UNL1        0.1694
     35 C          28.3934   75.8985   -8.7055 C.3     1  UNL1        0.1967
     36 C          28.9377   74.9607   -6.0325 C.3     1  UNL1        0.1761
     37 C          27.6885   76.4219   -7.4528 C.3     1  UNL1        0.2704
     38 H          30.0831   73.2216   -9.4876 H       1  UNL1        0.2105
     39 H          30.4533   72.6048   -7.7366 H       1  UNL1        0.2105
     40 H          27.9688   75.6052  -10.6082 H       1  UNL1        0.2106
     41 O          29.8296   73.6952   -4.2127 O.3     1  UNL1       -0.3794
     42 C          29.7840   74.9992   -4.7620 C.3     1  UNL1        0.1693
     43 H          30.3653   73.7043   -3.4035 H       1  UNL1        0.2105
@<TRIPOS>UNITY_ATOM_ATTR
2 1
charge -1
26 1
charge -1
@<TRIPOS>BOND
     1    25    28    1
     2    25    24    1
     3    25    26    1
     4    25    27    2
     5     1     4    1
     6     1    24    1
     7     1     2    1
     8     1     3    2
     9     6    11    1
    10     6    12    1
    11    29    36    1
    12    29    37    1
    13     7     9    1
    14     7    13    1
    15     8    10    1
    16     8    14    1
    17    28    37    1
    18     4     5    1
    19    30    33    1
    20    30    38    1
    21    31    34    1
    22    31    39    1
    23    32    35    1
    24    32    40    1
    25    41    42    1
    26    41    43    1
    27    15    19    2
    28    16    22    2
    29    17    12    1
    30    17    19   ar
    31    17    20   ar
    32    18    19   ar
    33    18    22   ar
    34    18    23    1
    35     9    10    1
    36     9    11    1
    37    10    12    1
    38    11     5    1
    39    33    34    1
    40    33    35    1
    41    34    36    1
    42    35    37    1
    43    36    42    1
    44    20    21   ar
    45    21    22   ar
@<TRIPOS>MOLECULE
*****
 43 45 0 0 0
SMALL
GASTEIGER

@<TRIPOS>ATOM
      1 P          19.9001   70.0899   -2.6011 P.3     1  UNL1        0.2189
      2 O          21.2734   69.3753   -3.0710 O.co2   1  UNL1       -0.4371
      3 O          18.8086   69.1503   -2.1802 O.2     1  UNL1       -0.5170
      4 O          19.5391   71.0819   -3.8273 O.3     1  UNL1       -0.3112
      5 C          18.8715   72.2980   -3.5391 C.3     1  UNL1        0.1811
      6 O          18.2682   73.4451   -5.5625 O.3     1  UNL1       -0.3308
      7 O          16.0768   71.4170   -5.8373 O.3     1  UNL1       -0.3794
      8 O          17.9666   70.4886   -7.5702 O.3     1  UNL1       -0.3779
      9 C          17.4008   71.2518   -5.3322 C.3     1  UNL1        0.1713
     10 C          18.4018   71.2593   -6.4687 C.3     1  UNL1        0.1895
     11 C          17.7741   72.5179   -4.5712 C.3     1  UNL1        0.1764
     12 C          18.4989   72.7403   -6.7933 C.3     1  UNL1        0.2383
     13 H          15.8160   70.6206   -6.3270 H       1  UNL1        0.2105
     14 H          17.9211   69.5543   -7.3135 H       1  UNL1        0.2106
     15 O          18.9141   74.3087   -9.1053 O.2     1  UNL1       -0.2464
     16 O          23.4957   74.0770   -8.6625 O.2     1  UNL1       -0.2670
     17 N          19.7898   73.1054   -7.3047 N.ar    1  UNL1       -0.2551
     18 N          21.1951   74.1922   -8.8829 N.ar    1  UNL1       -0.2743
     19 C          19.8887   73.8955   -8.4737 C.ar    1  UNL1        0.3323
     20 C          20.9404   72.6812   -6.6488 C.ar    1  UNL1        0.0869
     21 C          22.1788   72.9717   -7.0526 C.ar    1  UNL1        0.0795
     22 C          22.3699   73.7929   -8.2655 C.ar    1  UNL1        0.2626
     23 H          21.2885   74.7411   -9.6951 H       1  UNL1        0.1734
     24 O          20.3958   71.1059   -1.4457 O.3     1  UNL1       -0.2703
     25 P          21.4950   70.9262   -0.2742 P.3     1  UNL1        0.2208
     26 O          22.8591   71.4612   -0.9601 O.co2   1  UNL1       -0.4371
     27 O          21.5843   69.5327    0.2773 O.2     1  UNL1       -0.5170
     28 O          21.1176   72.0543    0.8166 O.3     1  UNL1       -0.2858
     29 O          21.7665   74.2445    1.4478 O.3     1  UNL1       -0.3258
     30 O          22.1318   72.3676    5.1077 O.3     1  UNL1       -0.3794
     31 O          19.9558   74.1874    4.6583 O.3     1  UNL1       -0.3794
     32 O          22.9104   70.9802    2.6894 O.3     1  UNL1       -0.3775
     33 C          21.5548   72.6168    3.8230 C.3     1  UNL1        0.1715
     34 C          21.0762   74.0695    3.7858 C.3     1  UNL1        0.1694
     35 C          22.6095   72.3704    2.7458 C.3     1  UNL1        0.1967
     36 C          20.6906   74.4895    2.3611 C.3     1  UNL1        0.1761
     37 C          22.1449   72.8685    1.3761 C.3     1  UNL1        0.2704
     38 H          21.4671   72.5218    5.7961 H       1  UNL1        0.2105
     39 H          20.2127   73.9188    5.5544 H       1  UNL1        0.2105
     40 H          23.2036   70.6772    3.5624 H       1  UNL1        0.2106
     41 O          21.0396   76.6512    3.3172 O.3     1  UNL1       -0.3794
     42 C          20.3608   75.9780    2.2730 C.3     1  UNL1        0.1693
     43 H          20.8394   77.5997    3.2734 H       1  UNL1        0.2105
@<TRIPOS>UNITY_ATOM_ATTR
2 1
charge -1
26 1
charge -1
@<TRIPOS>BOND
     1    25    28    1
     2    25    24    1
     3    25    26    1
     4    25    27    2
     5     1     4    1
     6     1    24    1
     7     1     2    1
     8     1     3    2
     9     6    11    1
    10     6    12    1
    11    29    36    1
    12    29    37    1
    13     7     9    1
    14     7    13    1
    15     8    10    1
    16     8    14    1
    17    28    37    1
    18     4     5    1
    19    30    33    1
    20    30    38    1
    21    31    34    1
    22    31    39    1
    23    32    35    1
    24    32    40    1
    25    41    42    1
    26    41    43    1
    27    15    19    2
    28    16    22    2
    29    17    12    1
    30    17    19   ar
    31    17    20   ar
    32    18    19   ar
    33    18    22   ar
    34    18    23    1
    35     9    10    1
    36     9    11    1
    37    10    12    1
    38    11     5    1
    39    33    34    1
    40    33    35    1
    41    34    36    1
    42    35    37    1
    43    36    42    1
    44    20    21   ar
    45    21    22   ar
@<TRIPOS>MOLECULE
*****
 43 45 0 0 0
SMALL
GASTEIGER

@<TRIPOS>ATOM
      1 P          22.4542   73.3372   -4.1463 P.3     1  UNL1        0.2189
      2 O          21.4135   72.1063   -4.0075 O.co2   1  UNL1       -0.4371
      3 O          23.8819   72.9372   -4.3765 O.2     1  UNL1       -0.5170
      4 O          22.1788   74.2295   -2.8250 O.3     1  UNL1       -0.3112
      5 C          21.6413   73.5927   -1.6790 C.3     1  UNL1        0.1811
      6 O          22.8876   73.2066    0.3387 O.3     1  UNL1       -0.3308
      7 O          23.5898   70.5352   -0.8281 O.3     1  UNL1       -0.3794
      8 O          21.5984   69.9121    0.9276 O.3     1  UNL1       -0.3779
      9 C          22.3734   71.2735   -0.9318 C.3     1  UNL1        0.1713
     10 C          21.6082   71.2120    0.3737 C.3     1  UNL1        0.1895
     11 C          22.7284   72.7523   -1.0231 C.3     1  UNL1        0.1764
     12 C          22.3694   72.2077    1.2323 C.3     1  UNL1        0.2383
     13 H          23.3887   69.5876   -0.7688 H       1  UNL1        0.2105
     14 H          21.1024   69.3160    0.3451 H       1  UNL1        0.2106
     15 O          22.4116   71.6291    3.9966 O.2     1  UNL1       -0.2464
     16 O          19.1019   74.7128    4.8788 O.2     1  UNL1       -0.2670
     17 N          21.5297   72.8447    2.2072 N.ar    1  UNL1       -0.2551
     18 N          20.7637   73.1651    4.4337 N.ar    1  UNL1       -0.2743
     19 C          21.6289   72.4808    3.5704 C.ar    1  UNL1        0.3323
     20 C          20.6207   73.8187    1.8085 C.ar    1  UNL1        0.0869
     21 C          19.8018   74.4609    2.6440 C.ar    1  UNL1        0.0795
     22 C          19.8421   74.1398    4.0853 C.ar    1  UNL1        0.2626
     23 H          20.8148   72.9279    5.3881 H       1  UNL1        0.1734
     24 O          21.8064   74.2292   -5.3286 O.3     1  UNL1       -0.2703
     25 P          21.5815   73.9104   -6.8973 P.3     1  UNL1        0.2208
     26 O          22.7940   72.8983   -7.2478 O.co2   1  UNL1       -0.4371
     27 O          21.5209   75.1301   -7.7705 O.2     1  UNL1       -0.5170
     28 O          20.2565   72.9899   -6.9412 O.3     1  UNL1       -0.2858
     29 O          19.4967   70.8280   -6.3367 O.3     1  UNL1       -0.3258
     30 O          18.5577   70.7571  -10.3572 O.3     1  UNL1       -0.3794
     31 O          16.4550   70.9803   -8.4137 O.3     1  UNL1       -0.3794
     32 O          21.0039   72.0240   -9.4678 O.3     1  UNL1       -0.3775
     33 C          18.7249   71.3545   -9.0685 C.3     1  UNL1        0.1715
     34 C          17.7984   70.6382   -8.0840 C.3     1  UNL1        0.1694
     35 C          20.1830   71.2102   -8.6368 C.3     1  UNL1        0.1967
     36 C          18.1120   71.0391   -6.6363 C.3     1  UNL1        0.1761
     37 C          20.3769   71.5878   -7.1671 C.3     1  UNL1        0.2704
     38 H          17.6341   70.8457  -10.6374 H       1  UNL1        0.2105
     39 H          16.2701   70.7224   -9.3305 H       1  UNL1        0.2105
     40 H          20.8722   71.7749  -10.3954 H       1  UNL1        0.2106
     41 O          16.6865   71.1100   -4.7200 O.3     1  UNL1       -0.3794
     42 C          17.3078   70.2200   -5.6290 C.3     1  UNL1        0.1693
     43 H          16.1709   70.6028   -4.0731 H       1  UNL1        0.2105
@<TRIPOS>UNITY_ATOM_ATTR
2 1
charge -1
26 1
charge -1
@<TRIPOS>BOND
     1    25    28    1
     2    25    24    1
     3    25    26    1
     4    25    27    2
     5     1     4    1
     6     1    24    1
     7     1     2    1
     8     1     3    2
     9     6    11    1
    10     6    12    1
    11    29    36    1
    12    29    37    1
    13     7     9    1
    14     7    13    1
    15     8    10    1
    16     8    14    1
    17    28    37    1
    18     4     5    1
    19    30    33    1
    20    30    38    1
    21    31    34    1
    22    31    39    1
    23    32    35    1
    24    32    40    1
    25    41    42    1
    26    41    43    1
    27    15    19    2
    28    16    22    2
    29    17    12    1
    30    17    19   ar
    31    17    20   ar
    32    18    19   ar
    33    18    22   ar
    34    18    23    1
    35     9    10    1
    36     9    11    1
    37    10    12    1
    38    11     5    1
    39    33    34    1
    40    33    35    1
    41    34    36    1
    42    35    37    1
    43    36    42    1
    44    20    21   ar
    45    21    22   ar
@<TRIPOS>MOLECULE
*****
 43 45 0 0 0
SMALL
GASTEIGER

@<TRIPOS>ATOM
      1 P          19.0162   70.1925   -3.2907 P.3     1  UNL1        0.2189
      2 O          18.5653   68.8568   -2.4969 O.co2   1  UNL1       -0.4371
      3 O          18.5572   71.4813   -2.6745 O.2     1  UNL1       -0.5170
      4 O          18.5257   69.9259   -4.8094 O.3     1  UNL1       -0.3112
      5 C          19.1582   70.6375   -5.8589 C.3     1  UNL1        0.1811
      6 O          18.7071   72.8588   -6.6563 O.3     1  UNL1       -0.3308
      7 O          16.5030   71.6286   -8.2747 O.3     1  UNL1       -0.3794
      8 O          18.4844   71.9544  -10.1197 O.3     1  UNL1       -0.3779
      9 C          17.7884   71.1004   -7.9523 C.3     1  UNL1        0.1713
     10 C          18.8608   71.7927   -8.7673 C.3     1  UNL1        0.1895
     11 C          18.1338   71.5387   -6.5346 C.3     1  UNL1        0.1764
     12 C          19.0046   73.1177   -8.0381 C.3     1  UNL1        0.2383
     13 H          16.2605   71.3616   -9.1757 H       1  UNL1        0.2105
     14 H          18.4061   71.0838  -10.5400 H       1  UNL1        0.2106
     15 O          21.3597   71.5589   -8.0728 O.2     1  UNL1       -0.2464
     16 O          24.0431   75.2901   -8.4168 O.2     1  UNL1       -0.2670
     17 N          20.3321   73.6558   -8.1364 N.ar    1  UNL1       -0.2551
     18 N          22.6939   73.4180   -8.2442 N.ar    1  UNL1       -0.2743
     19 C          21.4477   72.7864   -8.1445 C.ar    1  UNL1        0.3323
     20 C          20.5177   75.0312   -8.2237 C.ar    1  UNL1        0.0869
     21 C          21.7128   75.6178   -8.3169 C.ar    1  UNL1        0.0795
     22 C          22.9299   74.7808   -8.3321 C.ar    1  UNL1        0.2626
     23 H          23.4856   72.8323   -8.2514 H       1  UNL1        0.1734
     24 O          20.6212   70.0299   -3.3934 O.3     1  UNL1       -0.2703
     25 P          21.8182   71.0386   -2.9904 P.3     1  UNL1        0.2208
     26 O          21.4509   72.3917   -3.7977 O.co2   1  UNL1       -0.4371
     27 O          23.1932   70.5047   -3.2701 O.2     1  UNL1       -0.5170
     28 O          21.5435   71.4006   -1.4417 O.3     1  UNL1       -0.2858
     29 O          23.1698   72.8501   -0.5087 O.3     1  UNL1       -0.3258
     30 O          21.2608   71.6802    2.9608 O.3     1  UNL1       -0.3794
     31 O          20.8717   74.3427    1.9569 O.3     1  UNL1       -0.3794
     32 O          21.6919   69.7648    0.8336 O.3     1  UNL1       -0.3775
     33 C          21.3496   72.0301    1.5769 C.3     1  UNL1        0.1715
     34 C          21.8827   73.4607    1.4772 C.3     1  UNL1        0.1694
     35 C          22.2926   71.0547    0.8750 C.3     1  UNL1        0.1967
     36 C          22.2570   73.8128    0.0312 C.3     1  UNL1        0.1761
     37 C          22.6397   71.5235   -0.5392 C.3     1  UNL1        0.2704
     38 H          20.6631   72.2954    3.4122 H       1  UNL1        0.2105
     39 H          20.6441   74.1092    2.8706 H       1  UNL1        0.2105
     40 H          21.4772   69.4792    1.7349 H       1  UNL1        0.2106
     41 O          23.4843   75.4986    1.1977 O.3     1  UNL1       -0.3794
     42 C          22.9370   75.1766   -0.0676 C.3     1  UNL1        0.1693
     43 H          23.9207   76.3641    1.1498 H       1  UNL1        0.2105
@<TRIPOS>UNITY_ATOM_ATTR
2 1
charge -1
26 1
charge -1
@<TRIPOS>BOND
     1    25    28    1
     2    25    24    1
     3    25    26    1
     4    25    27    2
     5     1     4    1
     6     1    24    1
     7     1     2    1
     8     1     3    2
     9     6    11    1
    10     6    12    1
    11    29    36    1
    12    29    37    1
    13     7     9    1
    14     7    13    1
    15     8    10    1
    16     8    14    1
    17    28    37    1
    18     4     5    1
    19    30    33    1
    20    30    38    1
    21    31    34    1
    22    31    39    1
    23    32    35    1
    24    32    40    1
    25    41    42    1
    26    41    43    1
    27    15    19    2
    28    16    22    2
    29    17    12    1
    30    17    19   ar
    31    17    20   ar
    32    18    19   ar
    33    18    22   ar
    34    18    23    1
    35     9    10    1
    36     9    11    1
    37    10    12    1
    38    11     5    1
    39    33    34    1
    40    33    35    1
    41    34    36    1
    42    35    37    1
    43    36    42    1
    44    20    21   ar
    45    21    22   ar
@<TRIPOS>MOLECULE
*****
 43 45 0 0 0
SMALL
GASTEIGER

@<TRIPOS>ATOM
      1 P          17.4212   71.3657   -3.3707 P.3     1  UNL1        0.2189
      2 O          17.0715   71.3985   -1.7914 O.co2   1  UNL1       -0.4371
      3 O          16.7550   70.2663   -4.1446 O.2     1  UNL1       -0.5170
      4 O          19.0387   71.3727   -3.4105 O.3     1  UNL1       -0.3112
      5 C          19.7408   71.8571   -2.2791 C.3     1  UNL1        0.1811
      6 O          21.7774   73.0250   -1.7674 O.3     1  UNL1       -0.3308
      7 O          23.1862   70.8378   -3.2581 O.3     1  UNL1       -0.3794
      8 O          23.5770   70.1294   -0.6538 O.3     1  UNL1       -0.3779
      9 C          22.0327   70.7618   -2.4220 C.3     1  UNL1        0.1713
     10 C          22.4290   70.8919   -0.9661 C.3     1  UNL1        0.1895
     11 C          21.2099   72.0252   -2.6418 C.3     1  UNL1        0.1764
     12 C          22.6671   72.3868   -0.8368 C.3     1  UNL1        0.2383
     13 H          23.7273   70.0415   -3.1354 H       1  UNL1        0.2105
     14 H          23.3749   69.1858   -0.7510 H       1  UNL1        0.2106
     15 O          21.2585   70.9342    1.1339 O.2     1  UNL1       -0.2464
     16 O          21.6508   74.3551    4.1974 O.2     1  UNL1       -0.2670
     17 N          22.3872   72.8736    0.4846 N.ar    1  UNL1       -0.2551
     18 N          21.4552   72.6386    2.6577 N.ar    1  UNL1       -0.2743
     19 C          21.6716   72.0652    1.3983 C.ar    1  UNL1        0.3323
     20 C          22.8211   74.1395    0.8631 C.ar    1  UNL1        0.0869
     21 C          22.6054   74.6723    2.0676 C.ar    1  UNL1        0.0795
     22 C          21.8653   73.8930    3.0810 C.ar    1  UNL1        0.2626
     23 H          20.9584   72.0938    3.3106 H       1  UNL1        0.1734
     24 O          17.0393   72.8587   -3.8586 O.3     1  UNL1       -0.2703
     25 P          16.8640   73.4788   -5.3411 P.3     1  UNL1        0.2208
     26 O          17.3587   75.0090   -5.1641 O.co2   1  UNL1       -0.4371
     27 O          15.4811   73.3366   -5.9080 O.2     1  UNL1       -0.5170
     28 O          18.0219   72.7748   -6.2178 O.3     1  UNL1       -0.2858
     29 O          19.8643   73.5709   -7.4780 O.3     1  UNL1       -0.3258
     30 O          18.4432   70.7261  -10.1120 O.3     1  UNL1       -0.3794
     31 O          20.8809   70.2358   -8.6749 O.3     1  UNL1       -0.3794
     32 O          16.5846   72.3397   -8.5884 O.3     1  UNL1       -0.3775
     33 C          18.7352   71.2815   -8.8269 C.3     1  UNL1        0.1715
     34 C          20.2452   71.5096   -8.7348 C.3     1  UNL1        0.1694
     35 C          17.9816   72.6010   -8.6705 C.3     1  UNL1        0.1967
     36 C          20.6049   72.3450   -7.4988 C.3     1  UNL1        0.1761
     37 C          18.4494   73.3759   -7.4373 C.3     1  UNL1        0.2704
     38 H          18.9183   69.8878  -10.2175 H       1  UNL1        0.2105
     39 H          20.6452   69.7182   -9.4608 H       1  UNL1        0.2105
     40 H          16.3008   71.8490   -9.3749 H       1  UNL1        0.2106
     41 O          22.4235   73.3071   -8.7137 O.3     1  UNL1       -0.3794
     42 C          22.0856   72.7178   -7.4716 C.3     1  UNL1        0.1693
     43 H          23.3631   73.5498   -8.7108 H       1  UNL1        0.2105
@<TRIPOS>UNITY_ATOM_ATTR
2 1
charge -1
26 1
charge -1
@<TRIPOS>BOND
     1    25    28    1
     2    25    24    1
     3    25    26    1
     4    25    27    2
     5     1     4    1
     6     1    24    1
     7     1     2    1
     8     1     3    2
     9     6    11    1
    10     6    12    1
    11    29    36    1
    12    29    37    1
    13     7     9    1
    14     7    13    1
    15     8    10    1
    16     8    14    1
    17    28    37    1
    18     4     5    1
    19    30    33    1
    20    30    38    1
    21    31    34    1
    22    31    39    1
    23    32    35    1
    24    32    40    1
    25    41    42    1
    26    41    43    1
    27    15    19    2
    28    16    22    2
    29    17    12    1
    30    17    19   ar
    31    17    20   ar
    32    18    19   ar
    33    18    22   ar
    34    18    23    1
    35     9    10    1
    36     9    11    1
    37    10    12    1
    38    11     5    1
    39    33    34    1
    40    33    35    1
    41    34    36    1
    42    35    37    1
    43    36    42    1
    44    20    21   ar
    45    21    22   ar
@<TRIPOS>MOLECULE
*****
 43 45 0 0 0
SMALL
GASTEIGER

@<TRIPOS>ATOM
      1 P          21.9946   74.0606   -5.6409 P.3     1  UNL1        0.2189
      2 O          22.6338   75.5468   -5.6403 O.co2   1  UNL1       -0.4371
      3 O          22.6095   73.1066   -6.6223 O.2     1  UNL1       -0.5170
      4 O          20.4071   74.3206   -5.8141 O.3     1  UNL1       -0.3112
      5 C          19.6096   74.4358   -4.6485 C.3     1  UNL1        0.1811
      6 O          18.0926   74.7851   -6.4789 O.3     1  UNL1       -0.3308
      7 O          15.9152   74.8441   -4.4182 O.3     1  UNL1       -0.3794
      8 O          15.7034   72.3225   -5.4347 O.3     1  UNL1       -0.3779
      9 C          17.1019   74.0530   -4.4545 C.3     1  UNL1        0.1713
     10 C          16.9680   72.9511   -5.4847 C.3     1  UNL1        0.1895
     11 C          18.2171   74.9068   -5.0450 C.3     1  UNL1        0.1764
     12 C          17.1950   73.7052   -6.7839 C.3     1  UNL1        0.2383
     13 H          15.1888   74.3201   -4.0444 H       1  UNL1        0.2105
     14 H          15.6070   71.8565   -4.5896 H       1  UNL1        0.2106
     15 O          17.4837   74.4657   -9.4888 O.2     1  UNL1       -0.2464
     16 O          19.4762   70.4593  -10.5931 O.2     1  UNL1       -0.2670
     17 N          17.7860   72.8805   -7.7998 N.ar    1  UNL1       -0.2551
     18 N          18.4757   72.4703  -10.0364 N.ar    1  UNL1       -0.2743
     19 C          17.8822   73.3563   -9.1282 C.ar    1  UNL1        0.3323
     20 C          18.2630   71.6153   -7.4746 C.ar    1  UNL1        0.0869
     21 C          18.8252   70.7821   -8.3526 C.ar    1  UNL1        0.0795
     22 C          18.9639   71.2026   -9.7619 C.ar    1  UNL1        0.2626
     23 H          18.5531   72.7801  -10.9679 H       1  UNL1        0.1734
     24 O          22.1222   73.6095   -4.0939 O.3     1  UNL1       -0.2703
     25 P          23.3403   72.9185   -3.2867 P.3     1  UNL1        0.2208
     26 O          24.5851   73.9117   -3.5719 O.co2   1  UNL1       -0.4371
     27 O          23.5924   71.4865   -3.6606 O.2     1  UNL1       -0.5170
     28 O          22.9823   73.1502   -1.7300 O.3     1  UNL1       -0.2858
     29 O          20.9795   71.8956   -1.9081 O.3     1  UNL1       -0.3258
     30 O          21.7060   71.4095    2.1276 O.3     1  UNL1       -0.3794
     31 O          22.1065   69.1990    0.3385 O.3     1  UNL1       -0.3794
     32 O          22.2527   73.9529    0.8581 O.3     1  UNL1       -0.3775
     33 C          22.0569   71.5548    0.7488 C.3     1  UNL1        0.1715
     34 C          21.4294   70.3972   -0.0303 C.3     1  UNL1        0.1694
     35 C          21.5302   72.8946    0.2381 C.3     1  UNL1        0.1967
     36 C          21.5351   70.6265   -1.5440 C.3     1  UNL1        0.1761
     37 C          21.6369   73.0004   -1.2842 C.3     1  UNL1        0.2704
     38 H          22.0380   70.5610    2.4581 H       1  UNL1        0.2105
     39 H          22.0326   69.0661    1.2966 H       1  UNL1        0.2105
     40 H          22.1771   73.8750    1.8215 H       1  UNL1        0.2106
     41 O          19.4194   69.5895   -1.9406 O.3     1  UNL1       -0.3794
     42 C          20.7781   69.5639   -2.3377 C.3     1  UNL1        0.1693
     43 H          18.9252   68.9185   -2.4378 H       1  UNL1        0.2105
@<TRIPOS>UNITY_ATOM_ATTR
2 1
charge -1
26 1
charge -1
@<TRIPOS>BOND
     1    25    28    1
     2    25    24    1
     3    25    26    1
     4    25    27    2
     5     1     4    1
     6     1    24    1
     7     1     2    1
     8     1     3    2
     9     6    11    1
    10     6    12    1
    11    29    36    1
    12    29    37    1
    13     7     9    1
    14     7    13    1
    15     8    10    1
    16     8    14    1
    17    28    37    1
    18     4     5    1
    19    30    33    1
    20    30    38    1
    21    31    34    1
    22    31    39    1
    23    32    35    1
    24    32    40    1
    25    41    42    1
    26    41    43    1
    27    15    19    2
    28    16    22    2
    29    17    12    1
    30    17    19   ar
    31    17    20   ar
    32    18    19   ar
    33    18    22   ar
    34    18    23    1
    35     9    10    1
    36     9    11    1
    37    10    12    1
    38    11     5    1
    39    33    34    1
    40    33    35    1
    41    34    36    1
    42    35    37    1
    43    36    42    1
    44    20    21   ar
    45    21    22   ar
@<TRIPOS>MOLECULE
*****
 43 45 0 0 0
SMALL
GASTEIGER

@<TRIPOS>ATOM
      1 P          18.6355   70.1452   -2.7902 P.3     1  UNL1        0.2189
      2 O          19.2054   70.4177   -4.2796 O.co2   1  UNL1       -0.4371
      3 O          18.4809   68.6980   -2.4257 O.2     1  UNL1       -0.5170
      4 O          17.2858   71.0350   -2.7220 O.3     1  UNL1       -0.3112
      5 C          16.6018   71.3196   -3.9298 C.3     1  UNL1        0.1811
      6 O          17.7280   73.0075   -5.2168 O.3     1  UNL1       -0.3308
      7 O          15.4230   74.8000   -4.5349 O.3     1  UNL1       -0.3794
      8 O          14.8366   74.0204   -7.0815 O.3     1  UNL1       -0.3779
      9 C          15.4272   73.3994   -4.8062 C.3     1  UNL1        0.1713
     10 C          15.6188   73.1514   -6.2879 C.3     1  UNL1        0.1895
     11 C          16.7036   72.8112   -4.2177 C.3     1  UNL1        0.1764
     12 C          17.1099   73.3885   -6.4569 C.3     1  UNL1        0.2383
     13 H          14.6169   75.1976   -4.9011 H       1  UNL1        0.2105
     14 H          13.8963   73.8303   -6.9389 H       1  UNL1        0.2106
     15 O          16.2918   70.7643   -7.1067 O.2     1  UNL1       -0.2464
     16 O          19.3403   70.4706  -10.5509 O.2     1  UNL1       -0.2670
     17 N          17.6725   72.6031   -7.5189 N.ar    1  UNL1       -0.2551
     18 N          17.8102   70.6203   -8.8212 N.ar    1  UNL1       -0.2743
     19 C          17.1909   71.2955   -7.7617 C.ar    1  UNL1        0.3323
     20 C          18.6898   73.1304   -8.3069 C.ar    1  UNL1        0.0869
     21 C          19.2707   72.4730   -9.3126 C.ar    1  UNL1        0.0795
     22 C          18.8259   71.1012   -9.6323 C.ar    1  UNL1        0.2626
     23 H          17.4914   69.7076   -9.0086 H       1  UNL1        0.1734
     24 O          19.6618   70.9694   -1.8519 O.3     1  UNL1       -0.2703
     25 P          21.1583   70.6183   -1.3517 P.3     1  UNL1        0.2208
     26 O          21.7368   69.6840   -2.5391 O.co2   1  UNL1       -0.4371
     27 O          21.2206   69.9951    0.0128 O.2     1  UNL1       -0.5170
     28 O          21.9717   72.0053   -1.4913 O.3     1  UNL1       -0.2858
     29 O          21.2278   74.1412   -2.1993 O.3     1  UNL1       -0.3258
     30 O          25.0272   74.1965   -3.8156 O.3     1  UNL1       -0.3794
     31 O          24.4377   75.8231   -1.5234 O.3     1  UNL1       -0.3794
     32 O          23.4821   71.7487   -3.8424 O.3     1  UNL1       -0.3775
     33 C          24.0291   73.8714   -2.8443 C.3     1  UNL1        0.1715
     34 C          23.4389   75.1770   -2.3078 C.3     1  UNL1        0.1694
     35 C          22.9450   73.0237   -3.5071 C.3     1  UNL1        0.1967
     36 C          22.1848   74.9125   -1.4638 C.3     1  UNL1        0.1761
     37 C          21.7221   72.8624   -2.6023 C.3     1  UNL1        0.2704
     38 H          25.7189   74.7343   -3.4011 H       1  UNL1        0.2105
     39 H          25.2243   75.9840   -2.0679 H       1  UNL1        0.2105
     40 H          24.2554   71.8644   -4.4156 H       1  UNL1        0.2106
     41 O          22.2646   76.8307   -0.0414 O.3     1  UNL1       -0.3794
     42 C          21.4902   76.2079   -1.0498 C.3     1  UNL1        0.1693
     43 H          21.8348   77.6567    0.2316 H       1  UNL1        0.2105
@<TRIPOS>UNITY_ATOM_ATTR
2 1
charge -1
26 1
charge -1
@<TRIPOS>BOND
     1    25    28    1
     2    25    24    1
     3    25    26    1
     4    25    27    2
     5     1     4    1
     6     1    24    1
     7     1     2    1
     8     1     3    2
     9     6    11    1
    10     6    12    1
    11    29    36    1
    12    29    37    1
    13     7     9    1
    14     7    13    1
    15     8    10    1
    16     8    14    1
    17    28    37    1
    18     4     5    1
    19    30    33    1
    20    30    38    1
    21    31    34    1
    22    31    39    1
    23    32    35    1
    24    32    40    1
    25    41    42    1
    26    41    43    1
    27    15    19    2
    28    16    22    2
    29    17    12    1
    30    17    19   ar
    31    17    20   ar
    32    18    19   ar
    33    18    22   ar
    34    18    23    1
    35     9    10    1
    36     9    11    1
    37    10    12    1
    38    11     5    1
    39    33    34    1
    40    33    35    1
    41    34    36    1
    42    35    37    1
    43    36    42    1
    44    20    21   ar
    45    21    22   ar
