
 OpenBabel04092510453D

 45 46  0  0  1  0  0  0  0  0999 V2000
   -0.1938   -4.3456   -2.2629 O   0  0  0  0  0  0  0  0  0  0  0  0
   -0.8113   -3.3338   -1.4633 C   0  0  0  0  0  0  0  0  0  0  0  0
    0.1430   -2.1422   -1.3056 C   0  0  1  0  0  0  0  0  0  0  0  0
    0.2815   -1.5000   -2.5834 O   0  0  0  0  0  0  0  0  0  0  0  0
    1.2091   -0.4196   -2.5656 C   0  0  1  0  0  0  0  0  0  0  0  0
    1.3126    0.1331   -3.8799 O   0  0  0  0  0  0  0  0  0  0  0  0
    1.8737   -0.7425   -4.8828 C   0  0  2  0  0  0  0  0  0  0  0  0
    3.3796   -1.0052   -4.6509 C   0  0  1  0  0  0  0  0  0  0  0  0
    3.5923   -1.8972   -3.5490 O   0  0  0  0  0  0  0  0  0  0  0  0
    4.0638   -1.5635   -5.9147 C   0  0  2  0  0  0  0  0  0  0  0  0
    5.4692   -1.6459   -5.7321 O   0  0  0  0  0  0  0  0  0  0  0  0
    3.8031   -0.7713   -7.0573 O   0  0  0  0  0  0  0  0  0  0  0  0
    2.4092   -0.7507   -7.3746 C   0  0  2  0  0  0  0  0  0  0  0  0
    2.2288   -0.0580   -8.7345 C   0  0  0  0  0  0  0  0  0  0  0  0
    0.8795   -0.0865   -9.1858 O   0  0  0  0  0  0  0  0  0  0  0  0
    1.6316   -0.0469   -6.2489 C   0  0  1  0  0  0  0  0  0  0  0  0
    0.2357   -0.0022   -6.5853 O   0  0  0  0  0  0  0  0  0  0  0  0
    0.7313    0.6878   -1.5931 C   0  0  2  0  0  0  0  0  0  0  0  0
    1.6671    1.7745   -1.5148 O   0  0  0  0  0  0  0  0  0  0  0  0
    0.5235    0.0718   -0.1975 C   0  0  1  0  0  0  0  0  0  0  0  0
   -0.0014    1.0205    0.7379 O   0  0  0  0  0  0  0  0  0  0  0  0
   -0.4012   -1.1498   -0.2708 C   0  0  2  0  0  0  0  0  0  0  0  0
   -0.5237   -1.7870    1.0013 O   0  0  0  0  0  0  0  0  0  0  0  0
   -0.8544   -5.0523   -2.3676 H   0  0  0  0  0  0  0  0  0  0  0  0
   -1.0641   -3.7815   -0.4974 H   0  0  0  0  0  0  0  0  0  0  0  0
   -1.7306   -3.0238   -1.9714 H   0  0  0  0  0  0  0  0  0  0  0  0
    1.1237   -2.5277   -0.9943 H   0  0  0  0  0  0  0  0  0  0  0  0
    2.1909   -0.7529   -2.2239 H   0  0  0  0  0  0  0  0  0  0  0  0
    1.3181   -1.6884   -4.8565 H   0  0  0  0  0  0  0  0  0  0  0  0
    3.8553   -0.0524   -4.3605 H   0  0  0  0  0  0  0  0  0  0  0  0
    3.3547   -2.8072   -3.8334 H   0  0  0  0  0  0  0  0  0  0  0  0
    3.7267   -2.5904   -6.1026 H   0  0  0  0  0  0  0  0  0  0  0  0
    5.7427   -0.8568   -5.2370 H   0  0  0  0  0  0  0  0  0  0  0  0
    2.0336   -1.7786   -7.4826 H   0  0  0  0  0  0  0  0  0  0  0  0
    2.5708    0.9815   -8.6985 H   0  0  0  0  0  0  0  0  0  0  0  0
    2.8433   -0.5635   -9.4893 H   0  0  0  0  0  0  0  0  0  0  0  0
    0.3298    0.2425   -8.4425 H   0  0  0  0  0  0  0  0  0  0  0  0
    1.9653    0.9951   -6.1708 H   0  0  0  0  0  0  0  0  0  0  0  0
   -0.2391   -0.6468   -6.0277 H   0  0  0  0  0  0  0  0  0  0  0  0
   -0.2082    1.1220   -1.9518 H   0  0  0  0  0  0  0  0  0  0  0  0
    2.4703    1.4637   -1.0635 H   0  0  0  0  0  0  0  0  0  0  0  0
    1.4943   -0.2225    0.2224 H   0  0  0  0  0  0  0  0  0  0  0  0
   -0.7855    1.4423    0.3410 H   0  0  0  0  0  0  0  0  0  0  0  0
   -1.4041   -0.8117   -0.5607 H   0  0  0  0  0  0  0  0  0  0  0  0
    0.1088   -1.3754    1.6194 H   0  0  0  0  0  0  0  0  0  0  0  0
  1  2  1  0  0  0  0
  1 24  1  0  0  0  0
  2 25  1  0  0  0  0
  2 26  1  0  0  0  0
  3  4  1  0  0  0  0
  3 22  1  0  0  0  0
  3  2  1  0  0  0  0
  3 27  1  1  0  0  0
  4  5  1  0  0  0  0
  5 18  1  0  0  0  0
  5  6  1  0  0  0  0
  5 28  1  1  0  0  0
  6  7  1  0  0  0  0
  7  8  1  0  0  0  0
  7 16  1  0  0  0  0
  7 29  1  1  0  0  0
  8  9  1  0  0  0  0
  8 10  1  0  0  0  0
  8 30  1  1  0  0  0
  9 31  1  0  0  0  0
 10 12  1  0  0  0  0
 10 11  1  0  0  0  0
 10 32  1  6  0  0  0
 11 33  1  0  0  0  0
 12 13  1  0  0  0  0
 13 16  1  0  0  0  0
 13 14  1  0  0  0  0
 13 34  1  6  0  0  0
 14 15  1  0  0  0  0
 14 35  1  0  0  0  0
 14 36  1  0  0  0  0
 15 37  1  0  0  0  0
 16 17  1  0  0  0  0
 16 38  1  1  0  0  0
 17 39  1  0  0  0  0
 18 19  1  0  0  0  0
 18 20  1  0  0  0  0
 18 40  1  6  0  0  0
 19 41  1  0  0  0  0
 20 21  1  0  0  0  0
 20 22  1  0  0  0  0
 20 42  1  1  0  0  0
 21 43  1  0  0  0  0
 22 23  1  0  0  0  0
 22 44  1  6  0  0  0
 23 45  1  0  0  0  0
M  END
$$$$
