


 31 32  0  0  0  0  0  0  0  0999 V2000
    8.7043    8.8233  -14.6437 O   0  0  0  0  0  0  0  0  0  0  0  0
   11.8823    7.1889  -15.2768 C   0  0  0  0  0  0  0  0  0  0  0  0
   10.5050    7.5722  -15.4203 O   0  0  0  0  0  0  0  0  0  0  0  0
   10.0671    8.4660  -14.4018 C   0  0  0  0  0  0  0  0  0  0  0  0
   10.1686    7.7923  -13.0103 C   0  0  0  0  0  0  0  0  0  0  0  0
    9.7778    8.6821  -11.9528 O   0  0  0  0  0  0  0  0  0  0  0  0
   11.6163    7.3173  -12.7894 C   0  0  0  0  0  0  0  0  0  0  0  0
   11.7681    6.6065  -11.5556 O   0  0  0  0  0  0  0  0  0  0  0  0
   12.0879    6.4389  -13.9550 C   0  0  0  0  0  0  0  0  0  0  0  0
   13.4603    6.0723  -13.8085 O   0  0  0  0  0  0  0  0  0  0  0  0
   10.4470    9.3826  -11.8701 H   0  0  0  0  0  0  0  0  0  0  0  0
   11.0847    5.9127  -11.5142 H   0  0  0  0  0  0  0  0  0  0  0  0
   13.8367    6.5646  -13.0552 H   0  0  0  0  0  0  0  0  0  0  0  0
   11.2702    6.4054  -17.4895 O   0  0  0  0  0  0  0  0  0  0  0  0
   12.2636    6.2979  -16.4668 C   0  0  0  0  0  0  0  0  0  0  0  0
   11.5366    5.7906  -18.1951 H   0  0  0  0  0  0  0  0  0  0  0  0
    8.4991    9.9043  -15.5801 C   0  0  0  0  0  0  0  0  0  0  0  0
    7.5903   11.0129  -15.0008 C   0  0  0  0  0  0  0  0  0  0  0  0
    8.2829   11.8010  -14.0240 O   0  0  0  0  0  0  0  0  0  0  0  0
    7.0284   11.9277  -16.1073 C   0  0  0  0  0  0  0  0  0  0  0  0
    6.0744   12.8344  -15.5753 O   0  0  0  0  0  0  0  0  0  0  0  0
    6.4185   11.1917  -17.1502 O   0  0  0  0  0  0  0  0  0  0  0  0
    7.3601   10.3472  -17.8167 C   0  0  0  0  0  0  0  0  0  0  0  0
    7.8656    9.2665  -16.8452 C   0  0  0  0  0  0  0  0  0  0  0  0
    8.7889    8.4025  -17.5269 O   0  0  0  0  0  0  0  0  0  0  0  0
    8.9123   12.3941  -14.4904 H   0  0  0  0  0  0  0  0  0  0  0  0
    5.5518   12.3496  -14.9161 H   0  0  0  0  0  0  0  0  0  0  0  0
    9.6910    8.6030  -17.2141 H   0  0  0  0  0  0  0  0  0  0  0  0
    6.6837    9.7488  -19.0601 C   0  0  0  0  0  0  0  0  0  0  0  0
    7.6233    9.3353  -20.0456 O   0  0  0  0  0  0  0  0  0  0  0  0
    8.2827    8.7739  -19.5842 H   0  0  0  0  0  0  0  0  0  0  0  0
 14 15  1  0
 14 16  1  0
  2  3  1  0
  2  9  1  0
  2 15  1  0
  3  4  1  0
  4  5  1  0
  4  1  1  0
  1 17  1  0
 17 18  1  0
 17 24  1  0
 18 19  1  0
 18 20  1  0
 19 26  1  0
 20 22  1  0
 20 21  1  0
 21 27  1  0
 22 23  1  0
 23 24  1  0
 23 29  1  0
 29 30  1  0
 30 31  1  0
 24 25  1  0
 25 28  1  0
  5  6  1  0
  5  7  1  0
  6 11  1  0
  7  8  1  0
  7  9  1  0
  8 12  1  0
  9 10  1  0
 10 13  1  0
M  END
> <minimizedAffinity>
-4.84945

> <CNNscore>
0.9562825561

> <CNNaffinity>
3.3714859486

> <CNN_VS>
3.2240931988

> <CNNaffinity_variance>
0.2718181312

$$$$



 31 32  0  0  0  0  0  0  0  0999 V2000
   13.6751    6.2079  -14.9690 O   0  0  0  0  0  0  0  0  0  0  0  0
   10.4215    7.5859  -14.1402 C   0  0  0  0  0  0  0  0  0  0  0  0
   11.6195    7.2928  -14.8773 O   0  0  0  0  0  0  0  0  0  0  0  0
   12.5357    6.4806  -14.1500 C   0  0  0  0  0  0  0  0  0  0  0  0
   13.0050    7.2106  -12.8665 C   0  0  0  0  0  0  0  0  0  0  0  0
   13.8960    6.4010  -12.0832 O   0  0  0  0  0  0  0  0  0  0  0  0
   11.7707    7.5937  -12.0298 C   0  0  0  0  0  0  0  0  0  0  0  0
   12.1220    8.3497  -10.8655 O   0  0  0  0  0  0  0  0  0  0  0  0
   10.7606    8.3813  -12.8737 C   0  0  0  0  0  0  0  0  0  0  0  0
    9.5696    8.6581  -12.1360 O   0  0  0  0  0  0  0  0  0  0  0  0
   13.3934    5.6604  -11.7035 H   0  0  0  0  0  0  0  0  0  0  0  0
   12.6929    9.0905  -11.1404 H   0  0  0  0  0  0  0  0  0  0  0  0
    9.6079    8.1769  -11.2883 H   0  0  0  0  0  0  0  0  0  0  0  0
    8.1338    8.2608  -14.5828 O   0  0  0  0  0  0  0  0  0  0  0  0
    9.4801    8.3910  -15.0463 C   0  0  0  0  0  0  0  0  0  0  0  0
    7.5786    8.7499  -15.2147 H   0  0  0  0  0  0  0  0  0  0  0  0
   13.8577    4.8246  -15.3438 C   0  0  0  0  0  0  0  0  0  0  0  0
   15.1166    4.2057  -14.6938 C   0  0  0  0  0  0  0  0  0  0  0  0
   14.9132    3.9487  -13.2982 O   0  0  0  0  0  0  0  0  0  0  0  0
   15.5490    2.9086  -15.4064 C   0  0  0  0  0  0  0  0  0  0  0  0
   16.7915    2.4454  -14.8995 O   0  0  0  0  0  0  0  0  0  0  0  0
   15.6689    3.0823  -16.8051 O   0  0  0  0  0  0  0  0  0  0  0  0
   14.4155    3.4266  -17.4005 C   0  0  0  0  0  0  0  0  0  0  0  0
   13.9616    4.8060  -16.8922 C   0  0  0  0  0  0  0  0  0  0  0  0
   12.7168    5.1611  -17.5152 O   0  0  0  0  0  0  0  0  0  0  0  0
   14.3324    3.1614  -13.2070 H   0  0  0  0  0  0  0  0  0  0  0  0
   17.3494    3.2251  -14.7464 H   0  0  0  0  0  0  0  0  0  0  0  0
   12.0037    5.0769  -16.8547 H   0  0  0  0  0  0  0  0  0  0  0  0
   14.5744    3.3873  -18.9286 C   0  0  0  0  0  0  0  0  0  0  0  0
   13.3346    3.1963  -19.6005 O   0  0  0  0  0  0  0  0  0  0  0  0
   12.7136    3.8623  -19.2347 H   0  0  0  0  0  0  0  0  0  0  0  0
 14 15  1  0
 14 16  1  0
  2  3  1  0
  2  9  1  0
  2 15  1  0
  3  4  1  0
  4  5  1  0
  4  1  1  0
  1 17  1  0
 17 18  1  0
 17 24  1  0
 18 19  1  0
 18 20  1  0
 19 26  1  0
 20 22  1  0
 20 21  1  0
 21 27  1  0
 22 23  1  0
 23 24  1  0
 23 29  1  0
 29 30  1  0
 30 31  1  0
 24 25  1  0
 25 28  1  0
  5  6  1  0
  5  7  1  0
  6 11  1  0
  7  8  1  0
  7  9  1  0
  8 12  1  0
  9 10  1  0
 10 13  1  0
M  END
> <minimizedAffinity>
-4.69323

> <CNNscore>
0.9383415580

> <CNNaffinity>
3.1974442005

> <CNN_VS>
3.0002946854

> <CNNaffinity_variance>
0.3085903227

$$$$



 31 32  0  0  0  0  0  0  0  0999 V2000
    9.2971    9.0981  -14.7547 O   0  0  0  0  0  0  0  0  0  0  0  0
   10.1027   10.9814  -17.7507 C   0  0  0  0  0  0  0  0  0  0  0  0
    9.9282   10.6568  -16.3619 O   0  0  0  0  0  0  0  0  0  0  0  0
    9.4008    9.3497  -16.1580 C   0  0  0  0  0  0  0  0  0  0  0  0
    7.9930    9.2290  -16.7936 C   0  0  0  0  0  0  0  0  0  0  0  0
    7.4488    7.9080  -16.6470 O   0  0  0  0  0  0  0  0  0  0  0  0
    8.0851    9.5967  -18.2858 C   0  0  0  0  0  0  0  0  0  0  0  0
    6.8026    9.5904  -18.9228 O   0  0  0  0  0  0  0  0  0  0  0  0
    8.7493   10.9668  -18.4717 C   0  0  0  0  0  0  0  0  0  0  0  0
    8.9280   11.2753  -19.8545 O   0  0  0  0  0  0  0  0  0  0  0  0
    7.9584    7.2961  -17.2049 H   0  0  0  0  0  0  0  0  0  0  0  0
    6.1921   10.1329  -18.3906 H   0  0  0  0  0  0  0  0  0  0  0  0
    8.6979   10.4882  -20.3828 H   0  0  0  0  0  0  0  0  0  0  0  0
    9.9612   13.3209  -17.1248 O   0  0  0  0  0  0  0  0  0  0  0  0
   10.7490   12.3702  -17.8459 C   0  0  0  0  0  0  0  0  0  0  0  0
   10.3887   14.1852  -17.2552 H   0  0  0  0  0  0  0  0  0  0  0  0
    9.9371    7.8897  -14.2883 C   0  0  0  0  0  0  0  0  0  0  0  0
   10.5838    8.0725  -12.8958 C   0  0  0  0  0  0  0  0  0  0  0  0
    9.5937    8.1173  -11.8600 O   0  0  0  0  0  0  0  0  0  0  0  0
   11.6087    6.9617  -12.5912 C   0  0  0  0  0  0  0  0  0  0  0  0
   12.3043    7.2352  -11.3843 O   0  0  0  0  0  0  0  0  0  0  0  0
   12.5544    6.8077  -13.6319 O   0  0  0  0  0  0  0  0  0  0  0  0
   11.9298    6.4044  -14.8530 C   0  0  0  0  0  0  0  0  0  0  0  0
   11.0028    7.5247  -15.3559 C   0  0  0  0  0  0  0  0  0  0  0  0
   10.4001    7.1275  -16.5979 O   0  0  0  0  0  0  0  0  0  0  0  0
    9.2523    7.2075  -11.7147 H   0  0  0  0  0  0  0  0  0  0  0  0
   12.4747    8.1907  -11.3595 H   0  0  0  0  0  0  0  0  0  0  0  0
    9.4631    6.9109  -16.4333 H   0  0  0  0  0  0  0  0  0  0  0  0
   13.0276    6.0508  -15.8687 C   0  0  0  0  0  0  0  0  0  0  0  0
   13.9104    5.0434  -15.3883 O   0  0  0  0  0  0  0  0  0  0  0  0
   13.3459    4.3071  -15.0689 H   0  0  0  0  0  0  0  0  0  0  0  0
 14 15  1  0
 14 16  1  0
  2  3  1  0
  2  9  1  0
  2 15  1  0
  3  4  1  0
  4  5  1  0
  4  1  1  0
  1 17  1  0
 17 18  1  0
 17 24  1  0
 18 19  1  0
 18 20  1  0
 19 26  1  0
 20 22  1  0
 20 21  1  0
 21 27  1  0
 22 23  1  0
 23 24  1  0
 23 29  1  0
 29 30  1  0
 30 31  1  0
 24 25  1  0
 25 28  1  0
  5  6  1  0
  5  7  1  0
  6 11  1  0
  7  8  1  0
  7  9  1  0
  8 12  1  0
  9 10  1  0
 10 13  1  0
M  END
> <minimizedAffinity>
-4.73316

> <CNNscore>
0.9290140271

> <CNNaffinity>
3.2433226109

> <CNN_VS>
3.0130922794

> <CNNaffinity_variance>
0.2509787381

$$$$



 31 32  0  0  0  0  0  0  0  0999 V2000
    9.6739    7.7129  -14.5074 O   0  0  0  0  0  0  0  0  0  0  0  0
   13.0977    6.6456  -13.9504 C   0  0  0  0  0  0  0  0  0  0  0  0
   11.7313    6.6335  -14.3945 O   0  0  0  0  0  0  0  0  0  0  0  0
   11.0050    7.7905  -13.9921 C   0  0  0  0  0  0  0  0  0  0  0  0
   10.9393    7.8777  -12.4467 C   0  0  0  0  0  0  0  0  0  0  0  0
   10.2525    9.0588  -12.0039 O   0  0  0  0  0  0  0  0  0  0  0  0
   12.3722    7.8610  -11.8837 C   0  0  0  0  0  0  0  0  0  0  0  0
   12.3889    7.8529  -10.4519 O   0  0  0  0  0  0  0  0  0  0  0  0
   13.1559    6.6555  -12.4179 C   0  0  0  0  0  0  0  0  0  0  0  0
   14.5148    6.6825  -11.9799 O   0  0  0  0  0  0  0  0  0  0  0  0
   10.7998    9.8352  -12.2115 H   0  0  0  0  0  0  0  0  0  0  0  0
   11.8044    7.1372  -10.1414 H   0  0  0  0  0  0  0  0  0  0  0  0
   14.6823    7.5330  -11.5324 H   0  0  0  0  0  0  0  0  0  0  0  0
   13.9174    4.4109  -13.4824 O   0  0  0  0  0  0  0  0  0  0  0  0
   13.7994    5.3999  -14.5083 C   0  0  0  0  0  0  0  0  0  0  0  0
   14.4059    3.6666  -13.8752 H   0  0  0  0  0  0  0  0  0  0  0  0
    9.3132    8.7363  -15.4612 C   0  0  0  0  0  0  0  0  0  0  0  0
    8.2286    9.6907  -14.9103 C   0  0  0  0  0  0  0  0  0  0  0  0
    8.7694   10.5908  -13.9344 O   0  0  0  0  0  0  0  0  0  0  0  0
    7.5453   10.4908  -16.0371 C   0  0  0  0  0  0  0  0  0  0  0  0
    6.4494   11.2381  -15.5313 O   0  0  0  0  0  0  0  0  0  0  0  0
    7.0788    9.6548  -17.0786 O   0  0  0  0  0  0  0  0  0  0  0  0
    8.1547    8.9655  -17.7198 C   0  0  0  0  0  0  0  0  0  0  0  0
    8.8112    7.9910  -16.7266 C   0  0  0  0  0  0  0  0  0  0  0  0
    9.8724    7.2792  -17.3831 O   0  0  0  0  0  0  0  0  0  0  0  0
    9.3030   11.2722  -14.3996 H   0  0  0  0  0  0  0  0  0  0  0  0
    6.0007   10.6830  -14.8732 H   0  0  0  0  0  0  0  0  0  0  0  0
   10.7253    7.6257  -17.0600 H   0  0  0  0  0  0  0  0  0  0  0  0
    7.6038    8.2522  -18.9646 C   0  0  0  0  0  0  0  0  0  0  0  0
    6.4260    8.8704  -19.4703 O   0  0  0  0  0  0  0  0  0  0  0  0
    6.6286    9.8264  -19.5584 H   0  0  0  0  0  0  0  0  0  0  0  0
 14 15  1  0
 14 16  1  0
  2  3  1  0
  2  9  1  0
  2 15  1  0
  3  4  1  0
  4  5  1  0
  4  1  1  0
  1 17  1  0
 17 18  1  0
 17 24  1  0
 18 19  1  0
 18 20  1  0
 19 26  1  0
 20 22  1  0
 20 21  1  0
 21 27  1  0
 22 23  1  0
 23 24  1  0
 23 29  1  0
 29 30  1  0
 30 31  1  0
 24 25  1  0
 25 28  1  0
  5  6  1  0
  5  7  1  0
  6 11  1  0
  7  8  1  0
  7  9  1  0
  8 12  1  0
  9 10  1  0
 10 13  1  0
M  END
> <minimizedAffinity>
-5.43837

> <CNNscore>
0.9152314663

> <CNNaffinity>
3.3142368793

> <CNN_VS>
3.0332939625

> <CNNaffinity_variance>
0.4412401617

$$$$



 31 32  0  0  0  0  0  0  0  0999 V2000
   12.5009    6.8497  -17.0161 O   0  0  0  0  0  0  0  0  0  0  0  0
   11.1864    7.3978  -13.6779 C   0  0  0  0  0  0  0  0  0  0  0  0
   11.6111    7.6596  -15.0253 O   0  0  0  0  0  0  0  0  0  0  0  0
   12.1416    6.5088  -15.6751 C   0  0  0  0  0  0  0  0  0  0  0  0
   13.4031    6.0014  -14.9325 C   0  0  0  0  0  0  0  0  0  0  0  0
   13.9392    4.8127  -15.5344 O   0  0  0  0  0  0  0  0  0  0  0  0
   13.0409    5.7279  -13.4613 C   0  0  0  0  0  0  0  0  0  0  0  0
   14.1813    5.3356  -12.6892 O   0  0  0  0  0  0  0  0  0  0  0  0
   12.3806    6.9564  -12.8229 C   0  0  0  0  0  0  0  0  0  0  0  0
   11.9526    6.6828  -11.4883 O   0  0  0  0  0  0  0  0  0  0  0  0
   13.3224    4.0775  -15.3781 H   0  0  0  0  0  0  0  0  0  0  0  0
   14.8910    5.9876  -12.8356 H   0  0  0  0  0  0  0  0  0  0  0  0
   12.0644    5.7297  -11.3133 H   0  0  0  0  0  0  0  0  0  0  0  0
    9.5548    8.3421  -12.1512 O   0  0  0  0  0  0  0  0  0  0  0  0
   10.5610    8.6789  -13.1096 C   0  0  0  0  0  0  0  0  0  0  0  0
    9.1632    9.1835  -11.8588 H   0  0  0  0  0  0  0  0  0  0  0  0
   11.7203    7.9032  -17.6228 C   0  0  0  0  0  0  0  0  0  0  0  0
   11.6835    9.1785  -16.7494 C   0  0  0  0  0  0  0  0  0  0  0  0
   12.9316    9.8820  -16.7962 O   0  0  0  0  0  0  0  0  0  0  0  0
   10.5362   10.1217  -17.1630 C   0  0  0  0  0  0  0  0  0  0  0  0
   10.4201   11.2038  -16.2514 O   0  0  0  0  0  0  0  0  0  0  0  0
    9.2918    9.4522  -17.2291 O   0  0  0  0  0  0  0  0  0  0  0  0
    9.2999    8.4269  -18.2255 C   0  0  0  0  0  0  0  0  0  0  0  0
   10.2951    7.3236  -17.8260 C   0  0  0  0  0  0  0  0  0  0  0  0
   10.2785    6.2816  -18.8147 O   0  0  0  0  0  0  0  0  0  0  0  0
   13.0027   10.3346  -17.6655 H   0  0  0  0  0  0  0  0  0  0  0  0
   10.5734   10.8488  -15.3609 H   0  0  0  0  0  0  0  0  0  0  0  0
   11.0985    6.3387  -19.3402 H   0  0  0  0  0  0  0  0  0  0  0  0
    7.8676    7.8944  -18.3889 C   0  0  0  0  0  0  0  0  0  0  0  0
    7.6034    6.7753  -17.5504 O   0  0  0  0  0  0  0  0  0  0  0  0
    7.8818    7.0330  -16.6454 H   0  0  0  0  0  0  0  0  0  0  0  0
 14 15  1  0
 14 16  1  0
  2  3  1  0
  2  9  1  0
  2 15  1  0
  3  4  1  0
  4  5  1  0
  4  1  1  0
  1 17  1  0
 17 18  1  0
 17 24  1  0
 18 19  1  0
 18 20  1  0
 19 26  1  0
 20 22  1  0
 20 21  1  0
 21 27  1  0
 22 23  1  0
 23 24  1  0
 23 29  1  0
 29 30  1  0
 30 31  1  0
 24 25  1  0
 25 28  1  0
  5  6  1  0
  5  7  1  0
  6 11  1  0
  7  8  1  0
  7  9  1  0
  8 12  1  0
  9 10  1  0
 10 13  1  0
M  END
> <minimizedAffinity>
-4.78235

> <CNNscore>
0.8856289983

> <CNNaffinity>
2.8633670807

> <CNN_VS>
2.5358808041

> <CNNaffinity_variance>
0.6170387268

$$$$



 31 32  0  0  0  0  0  0  0  0999 V2000
   10.3315    9.5109  -14.3180 O   0  0  0  0  0  0  0  0  0  0  0  0
   13.4446    7.6888  -13.9173 C   0  0  0  0  0  0  0  0  0  0  0  0
   12.3418    8.3627  -14.5450 O   0  0  0  0  0  0  0  0  0  0  0  0
   11.3674    8.8222  -13.6136 C   0  0  0  0  0  0  0  0  0  0  0  0
   10.7441    7.6275  -12.8490 C   0  0  0  0  0  0  0  0  0  0  0  0
    9.7885    8.0578  -11.8670 O   0  0  0  0  0  0  0  0  0  0  0  0
   11.8701    6.8261  -12.1706 C   0  0  0  0  0  0  0  0  0  0  0  0
   11.3766    5.6537  -11.5129 O   0  0  0  0  0  0  0  0  0  0  0  0
   12.9512    6.4345  -13.1858 C   0  0  0  0  0  0  0  0  0  0  0  0
   14.0472    5.7752  -12.5507 O   0  0  0  0  0  0  0  0  0  0  0  0
   10.2609    8.5127  -11.1492 H   0  0  0  0  0  0  0  0  0  0  0  0
   10.8247    5.1563  -12.1440 H   0  0  0  0  0  0  0  0  0  0  0  0
   13.9251    5.8258  -11.5842 H   0  0  0  0  0  0  0  0  0  0  0  0
   14.2068    5.9879  -15.4700 O   0  0  0  0  0  0  0  0  0  0  0  0
   14.4640    7.3142  -15.0017 C   0  0  0  0  0  0  0  0  0  0  0  0
   14.9042    5.7868  -16.1181 H   0  0  0  0  0  0  0  0  0  0  0  0
   10.4867    9.5721  -15.7531 C   0  0  0  0  0  0  0  0  0  0  0  0
   10.2696   11.0009  -16.3026 C   0  0  0  0  0  0  0  0  0  0  0  0
   11.3834   11.8523  -16.0032 O   0  0  0  0  0  0  0  0  0  0  0  0
   10.0098   10.9955  -17.8223 C   0  0  0  0  0  0  0  0  0  0  0  0
    9.6555   12.2927  -18.2775 O   0  0  0  0  0  0  0  0  0  0  0  0
    8.9819   10.0939  -18.1852 O   0  0  0  0  0  0  0  0  0  0  0  0
    9.3320    8.7443  -17.8691 C   0  0  0  0  0  0  0  0  0  0  0  0
    9.4472    8.5823  -16.3434 C   0  0  0  0  0  0  0  0  0  0  0  0
    9.7701    7.2184  -16.0287 O   0  0  0  0  0  0  0  0  0  0  0  0
   12.1301   11.6093  -16.5939 H   0  0  0  0  0  0  0  0  0  0  0  0
    9.0813   12.6887  -17.6021 H   0  0  0  0  0  0  0  0  0  0  0  0
   10.7034    7.1769  -15.7475 H   0  0  0  0  0  0  0  0  0  0  0  0
    8.2756    7.8104  -18.4803 C   0  0  0  0  0  0  0  0  0  0  0  0
    7.3952    7.2693  -17.5020 O   0  0  0  0  0  0  0  0  0  0  0  0
    7.0662    8.0275  -16.9731 H   0  0  0  0  0  0  0  0  0  0  0  0
 14 15  1  0
 14 16  1  0
  2  3  1  0
  2  9  1  0
  2 15  1  0
  3  4  1  0
  4  5  1  0
  4  1  1  0
  1 17  1  0
 17 18  1  0
 17 24  1  0
 18 19  1  0
 18 20  1  0
 19 26  1  0
 20 22  1  0
 20 21  1  0
 21 27  1  0
 22 23  1  0
 23 24  1  0
 23 29  1  0
 29 30  1  0
 30 31  1  0
 24 25  1  0
 25 28  1  0
  5  6  1  0
  5  7  1  0
  6 11  1  0
  7  8  1  0
  7  9  1  0
  8 12  1  0
  9 10  1  0
 10 13  1  0
M  END
> <minimizedAffinity>
-4.86724

> <CNNscore>
0.8710137606

> <CNNaffinity>
3.3193016052

> <CNN_VS>
2.8911573887

> <CNNaffinity_variance>
0.7400035858

$$$$



 31 32  0  0  0  0  0  0  0  0999 V2000
   10.1566    9.0384  -14.8741 O   0  0  0  0  0  0  0  0  0  0  0  0
   13.3027    7.3306  -14.2762 C   0  0  0  0  0  0  0  0  0  0  0  0
   12.1661    7.8705  -14.9697 O   0  0  0  0  0  0  0  0  0  0  0  0
   11.2301    8.4987  -14.0995 C   0  0  0  0  0  0  0  0  0  0  0  0
   10.6539    7.4719  -13.0925 C   0  0  0  0  0  0  0  0  0  0  0  0
    9.7392    8.0812  -12.1679 O   0  0  0  0  0  0  0  0  0  0  0  0
   11.8172    6.8167  -12.3259 C   0  0  0  0  0  0  0  0  0  0  0  0
   11.3656    5.7914  -11.4340 O   0  0  0  0  0  0  0  0  0  0  0  0
   12.8554    6.2391  -13.2962 C   0  0  0  0  0  0  0  0  0  0  0  0
   13.9855    5.7151  -12.5980 O   0  0  0  0  0  0  0  0  0  0  0  0
   10.2389    8.6658  -11.5730 H   0  0  0  0  0  0  0  0  0  0  0  0
   10.7910    5.1816  -11.9321 H   0  0  0  0  0  0  0  0  0  0  0  0
   13.9065    5.9497  -11.6545 H   0  0  0  0  0  0  0  0  0  0  0  0
   14.0501    5.3525  -15.4651 O   0  0  0  0  0  0  0  0  0  0  0  0
   14.2759    6.7564  -15.3148 C   0  0  0  0  0  0  0  0  0  0  0  0
   14.7187    5.0342  -16.0963 H   0  0  0  0  0  0  0  0  0  0  0  0
   10.1617   10.4744  -15.0324 C   0  0  0  0  0  0  0  0  0  0  0  0
   11.1619   11.1631  -14.0754 C   0  0  0  0  0  0  0  0  0  0  0  0
   12.5159   10.9685  -14.5040 O   0  0  0  0  0  0  0  0  0  0  0  0
   10.8707   12.6703  -13.9320 C   0  0  0  0  0  0  0  0  0  0  0  0
   11.6943   13.2496  -12.9313 O   0  0  0  0  0  0  0  0  0  0  0  0
    9.5179   12.9241  -13.6054 O   0  0  0  0  0  0  0  0  0  0  0  0
    8.6360   12.4777  -14.6384 C   0  0  0  0  0  0  0  0  0  0  0  0
    8.7089   10.9453  -14.7559 C   0  0  0  0  0  0  0  0  0  0  0  0
    7.7998   10.4985  -15.7745 O   0  0  0  0  0  0  0  0  0  0  0  0
   12.6823   11.5425  -15.2839 H   0  0  0  0  0  0  0  0  0  0  0  0
   11.7585   12.6095  -12.2042 H   0  0  0  0  0  0  0  0  0  0  0  0
    8.3174   10.2285  -16.5562 H   0  0  0  0  0  0  0  0  0  0  0  0
    7.2178   12.9749  -14.3174 C   0  0  0  0  0  0  0  0  0  0  0  0
    7.0300   13.2278  -12.9297 O   0  0  0  0  0  0  0  0  0  0  0  0
    7.7763   13.7987  -12.6468 H   0  0  0  0  0  0  0  0  0  0  0  0
 14 15  1  0
 14 16  1  0
  2  3  1  0
  2  9  1  0
  2 15  1  0
  3  4  1  0
  4  5  1  0
  4  1  1  0
  1 17  1  0
 17 18  1  0
 17 24  1  0
 18 19  1  0
 18 20  1  0
 19 26  1  0
 20 22  1  0
 20 21  1  0
 21 27  1  0
 22 23  1  0
 23 24  1  0
 23 29  1  0
 29 30  1  0
 30 31  1  0
 24 25  1  0
 25 28  1  0
  5  6  1  0
  5  7  1  0
  6 11  1  0
  7  8  1  0
  7  9  1  0
  8 12  1  0
  9 10  1  0
 10 13  1  0
M  END
> <minimizedAffinity>
-5.00128

> <CNNscore>
0.8591600060

> <CNNaffinity>
3.1599509716

> <CNN_VS>
2.7149035931

> <CNNaffinity_variance>
0.2503412068

$$$$



 31 32  0  0  0  0  0  0  0  0999 V2000
    8.8750    8.1373  -14.2316 O   0  0  0  0  0  0  0  0  0  0  0  0
   12.2323    6.9382  -14.9116 C   0  0  0  0  0  0  0  0  0  0  0  0
   10.8009    7.0536  -14.9578 O   0  0  0  0  0  0  0  0  0  0  0  0
   10.2960    8.0663  -14.0932 C   0  0  0  0  0  0  0  0  0  0  0  0
   10.6396    7.7392  -12.6183 C   0  0  0  0  0  0  0  0  0  0  0  0
   10.1850    8.7641  -11.7207 O   0  0  0  0  0  0  0  0  0  0  0  0
   12.1635    7.5639  -12.4871 C   0  0  0  0  0  0  0  0  0  0  0  0
   12.5496    7.1748  -11.1642 O   0  0  0  0  0  0  0  0  0  0  0  0
   12.6858    6.5393  -13.5020 C   0  0  0  0  0  0  0  0  0  0  0  0
   14.1096    6.4399  -13.4557 O   0  0  0  0  0  0  0  0  0  0  0  0
   10.7187    9.5642  -11.8635 H   0  0  0  0  0  0  0  0  0  0  0  0
   12.0115    6.4060  -10.9004 H   0  0  0  0  0  0  0  0  0  0  0  0
   14.4530    7.1393  -12.8688 H   0  0  0  0  0  0  0  0  0  0  0  0
   11.9300    6.0535  -17.1501 O   0  0  0  0  0  0  0  0  0  0  0  0
   12.6664    5.8816  -15.9366 C   0  0  0  0  0  0  0  0  0  0  0  0
   12.2101    5.3354  -17.7439 H   0  0  0  0  0  0  0  0  0  0  0  0
    8.3847    9.1713  -15.1135 C   0  0  0  0  0  0  0  0  0  0  0  0
    8.4673    8.7566  -16.6007 C   0  0  0  0  0  0  0  0  0  0  0  0
    7.4570    7.7956  -16.9336 O   0  0  0  0  0  0  0  0  0  0  0  0
    8.3602    9.9742  -17.5405 C   0  0  0  0  0  0  0  0  0  0  0  0
    8.5982    9.5936  -18.8872 O   0  0  0  0  0  0  0  0  0  0  0  0
    9.2719   10.9985  -17.1934 O   0  0  0  0  0  0  0  0  0  0  0  0
    9.0049   11.5187  -15.8887 C   0  0  0  0  0  0  0  0  0  0  0  0
    9.2538   10.4264  -14.8341 C   0  0  0  0  0  0  0  0  0  0  0  0
    9.0130   10.9615  -13.5229 O   0  0  0  0  0  0  0  0  0  0  0  0
    6.5915    8.2578  -16.9863 H   0  0  0  0  0  0  0  0  0  0  0  0
    9.3164    8.9403  -18.8800 H   0  0  0  0  0  0  0  0  0  0  0  0
    8.1727   10.5963  -13.1878 H   0  0  0  0  0  0  0  0  0  0  0  0
    9.8856   12.7587  -15.6684 C   0  0  0  0  0  0  0  0  0  0  0  0
   11.0831   12.4579  -14.9610 O   0  0  0  0  0  0  0  0  0  0  0  0
   11.4952   11.6956  -15.4215 H   0  0  0  0  0  0  0  0  0  0  0  0
 14 15  1  0
 14 16  1  0
  2  3  1  0
  2  9  1  0
  2 15  1  0
  3  4  1  0
  4  5  1  0
  4  1  1  0
  1 17  1  0
 17 18  1  0
 17 24  1  0
 18 19  1  0
 18 20  1  0
 19 26  1  0
 20 22  1  0
 20 21  1  0
 21 27  1  0
 22 23  1  0
 23 24  1  0
 23 29  1  0
 29 30  1  0
 30 31  1  0
 24 25  1  0
 25 28  1  0
  5  6  1  0
  5  7  1  0
  6 11  1  0
  7  8  1  0
  7  9  1  0
  8 12  1  0
  9 10  1  0
 10 13  1  0
M  END
> <minimizedAffinity>
-5.32922

> <CNNscore>
0.8176445365

> <CNNaffinity>
2.8098545074

> <CNN_VS>
2.2974622250

> <CNNaffinity_variance>
0.6712389588

$$$$



 31 32  0  0  0  0  0  0  0  0999 V2000
    9.7391    7.5982  -14.5457 O   0  0  0  0  0  0  0  0  0  0  0  0
   13.1704    6.6003  -13.9112 C   0  0  0  0  0  0  0  0  0  0  0  0
   11.8120    6.5562  -14.3773 O   0  0  0  0  0  0  0  0  0  0  0  0
   11.0601    7.7086  -14.0104 C   0  0  0  0  0  0  0  0  0  0  0  0
   10.9671    7.8257  -12.4683 C   0  0  0  0  0  0  0  0  0  0  0  0
   10.2536    9.0037  -12.0610 O   0  0  0  0  0  0  0  0  0  0  0  0
   12.3905    7.8445  -11.8818 C   0  0  0  0  0  0  0  0  0  0  0  0
   12.3835    7.8655  -10.4501 O   0  0  0  0  0  0  0  0  0  0  0  0
   13.2029    6.6419  -12.3785 C   0  0  0  0  0  0  0  0  0  0  0  0
   14.5536    6.7007  -11.9190 O   0  0  0  0  0  0  0  0  0  0  0  0
   10.7913    9.7849  -12.2754 H   0  0  0  0  0  0  0  0  0  0  0  0
   11.8058    7.1464  -10.1347 H   0  0  0  0  0  0  0  0  0  0  0  0
   14.6995    7.5626  -11.4863 H   0  0  0  0  0  0  0  0  0  0  0  0
   13.4649    5.0583  -15.7607 O   0  0  0  0  0  0  0  0  0  0  0  0
   13.9018    5.3556  -14.4321 C   0  0  0  0  0  0  0  0  0  0  0  0
   13.9232    4.2410  -16.0226 H   0  0  0  0  0  0  0  0  0  0  0  0
    9.5632    8.1121  -15.8845 C   0  0  0  0  0  0  0  0  0  0  0  0
   10.8380    7.9487  -16.7439 C   0  0  0  0  0  0  0  0  0  0  0  0
   11.0318    6.5847  -17.1399 O   0  0  0  0  0  0  0  0  0  0  0  0
   10.8072    8.8555  -17.9904 C   0  0  0  0  0  0  0  0  0  0  0  0
   12.0490    8.8106  -18.6769 O   0  0  0  0  0  0  0  0  0  0  0  0
   10.5203   10.2018  -17.6646 O   0  0  0  0  0  0  0  0  0  0  0  0
    9.2213   10.3354  -17.0826 C   0  0  0  0  0  0  0  0  0  0  0  0
    9.1832    9.6086  -15.7271 C   0  0  0  0  0  0  0  0  0  0  0  0
    7.8856    9.7702  -15.1323 O   0  0  0  0  0  0  0  0  0  0  0  0
   10.3833    6.3693  -17.8460 H   0  0  0  0  0  0  0  0  0  0  0  0
   12.7496    8.7885  -18.0051 H   0  0  0  0  0  0  0  0  0  0  0  0
    7.4055    8.9235  -15.1991 H   0  0  0  0  0  0  0  0  0  0  0  0
    8.8955   11.8319  -16.9555 C   0  0  0  0  0  0  0  0  0  0  0  0
    7.5041   12.0737  -16.7801 O   0  0  0  0  0  0  0  0  0  0  0  0
    7.2098   11.4905  -16.0479 H   0  0  0  0  0  0  0  0  0  0  0  0
 14 15  1  0
 14 16  1  0
  2  3  1  0
  2  9  1  0
  2 15  1  0
  3  4  1  0
  4  5  1  0
  4  1  1  0
  1 17  1  0
 17 18  1  0
 17 24  1  0
 18 19  1  0
 18 20  1  0
 19 26  1  0
 20 22  1  0
 20 21  1  0
 21 27  1  0
 22 23  1  0
 23 24  1  0
 23 29  1  0
 29 30  1  0
 30 31  1  0
 24 25  1  0
 25 28  1  0
  5  6  1  0
  5  7  1  0
  6 11  1  0
  7  8  1  0
  7  9  1  0
  8 12  1  0
  9 10  1  0
 10 13  1  0
M  END
> <minimizedAffinity>
-4.62364

> <CNNscore>
0.7469057441

> <CNNaffinity>
3.2570354939

> <CNN_VS>
2.4326984882

> <CNNaffinity_variance>
0.4904271662

$$$$



 31 32  0  0  0  0  0  0  0  0999 V2000
   14.2753    8.0562  -12.9639 O   0  0  0  0  0  0  0  0  0  0  0  0
   11.4095    7.5416  -15.1306 C   0  0  0  0  0  0  0  0  0  0  0  0
   12.7073    7.9620  -14.6796 O   0  0  0  0  0  0  0  0  0  0  0  0
   12.9540    7.6386  -13.3149 C   0  0  0  0  0  0  0  0  0  0  0  0
   11.9392    8.3631  -12.3952 C   0  0  0  0  0  0  0  0  0  0  0  0
   12.1293    8.0235  -11.0127 O   0  0  0  0  0  0  0  0  0  0  0  0
   10.5115    7.9917  -12.8359 C   0  0  0  0  0  0  0  0  0  0  0  0
    9.5153    8.6928  -12.0833 O   0  0  0  0  0  0  0  0  0  0  0  0
   10.3140    8.2598  -14.3332 C   0  0  0  0  0  0  0  0  0  0  0  0
    9.0257    7.8288  -14.7736 O   0  0  0  0  0  0  0  0  0  0  0  0
   11.8715    7.0953  -10.8803 H   0  0  0  0  0  0  0  0  0  0  0  0
    9.7292    9.6437  -12.1008 H   0  0  0  0  0  0  0  0  0  0  0  0
    8.5934    7.3425  -14.0470 H   0  0  0  0  0  0  0  0  0  0  0  0
   10.3004    7.0227  -17.2247 O   0  0  0  0  0  0  0  0  0  0  0  0
   11.2879    7.8656  -16.6258 C   0  0  0  0  0  0  0  0  0  0  0  0
   10.2968    7.2376  -18.1737 H   0  0  0  0  0  0  0  0  0  0  0  0
   15.2809    7.0190  -12.9733 C   0  0  0  0  0  0  0  0  0  0  0  0
   14.7489    5.6965  -13.5722 C   0  0  0  0  0  0  0  0  0  0  0  0
   14.6195    5.7813  -14.9974 O   0  0  0  0  0  0  0  0  0  0  0  0
   15.6451    4.4987  -13.1993 C   0  0  0  0  0  0  0  0  0  0  0  0
   15.0558    3.2780  -13.6209 O   0  0  0  0  0  0  0  0  0  0  0  0
   15.8871    4.4257  -11.8074 O   0  0  0  0  0  0  0  0  0  0  0  0
   16.5970    5.5742  -11.3373 C   0  0  0  0  0  0  0  0  0  0  0  0
   15.7189    6.8275  -11.4968 C   0  0  0  0  0  0  0  0  0  0  0  0
   16.4244    7.9745  -10.9962 O   0  0  0  0  0  0  0  0  0  0  0  0
   15.5168    5.7403  -15.3955 H   0  0  0  0  0  0  0  0  0  0  0  0
   14.1009    3.3476  -13.4597 H   0  0  0  0  0  0  0  0  0  0  0  0
   16.7155    8.5154  -11.7541 H   0  0  0  0  0  0  0  0  0  0  0  0
   17.0097    5.3286   -9.8775 C   0  0  0  0  0  0  0  0  0  0  0  0
   16.9687    3.9507   -9.5241 O   0  0  0  0  0  0  0  0  0  0  0  0
   17.4724    3.4703  -10.2157 H   0  0  0  0  0  0  0  0  0  0  0  0
 14 15  1  0
 14 16  1  0
  2  3  1  0
  2  9  1  0
  2 15  1  0
  3  4  1  0
  4  5  1  0
  4  1  1  0
  1 17  1  0
 17 18  1  0
 17 24  1  0
 18 19  1  0
 18 20  1  0
 19 26  1  0
 20 22  1  0
 20 21  1  0
 21 27  1  0
 22 23  1  0
 23 24  1  0
 23 29  1  0
 29 30  1  0
 30 31  1  0
 24 25  1  0
 25 28  1  0
  5  6  1  0
  5  7  1  0
  6 11  1  0
  7  8  1  0
  7  9  1  0
  8 12  1  0
  9 10  1  0
 10 13  1  0
M  END
> <minimizedAffinity>
-5.03855

> <CNNscore>
0.7429718375

> <CNNaffinity>
2.7115240097

> <CNN_VS>
2.0145859718

> <CNNaffinity_variance>
0.6234391332

$$$$



 31 32  0  0  0  0  0  0  0  0999 V2000
   10.7621    9.8718  -14.8507 O   0  0  0  0  0  0  0  0  0  0  0  0
   13.3832    9.5719  -12.3582 C   0  0  0  0  0  0  0  0  0  0  0  0
   12.7310    9.8281  -13.6126 O   0  0  0  0  0  0  0  0  0  0  0  0
   11.3339    9.5538  -13.5797 C   0  0  0  0  0  0  0  0  0  0  0  0
   11.0838    8.0546  -13.2793 C   0  0  0  0  0  0  0  0  0  0  0  0
    9.6828    7.7504  -13.1929 O   0  0  0  0  0  0  0  0  0  0  0  0
   11.7839    7.6859  -11.9586 C   0  0  0  0  0  0  0  0  0  0  0  0
   11.6679    6.2906  -11.6581 O   0  0  0  0  0  0  0  0  0  0  0  0
   13.2640    8.0872  -11.9933 C   0  0  0  0  0  0  0  0  0  0  0  0
   13.9002    7.8387  -10.7393 O   0  0  0  0  0  0  0  0  0  0  0  0
    9.3218    8.1641  -12.3906 H   0  0  0  0  0  0  0  0  0  0  0  0
   11.9486    5.7828  -12.4415 H   0  0  0  0  0  0  0  0  0  0  0  0
   13.2204    7.5788  -10.0898 H   0  0  0  0  0  0  0  0  0  0  0  0
   15.1417   11.0572  -11.5925 O   0  0  0  0  0  0  0  0  0  0  0  0
   14.8575    9.9785  -12.4870 C   0  0  0  0  0  0  0  0  0  0  0  0
   16.0704   11.3029  -11.7469 H   0  0  0  0  0  0  0  0  0  0  0  0
    9.3383    9.6559  -14.9661 C   0  0  0  0  0  0  0  0  0  0  0  0
    8.9617    8.9431  -16.2855 C   0  0  0  0  0  0  0  0  0  0  0  0
    9.3133    7.5538  -16.2493 O   0  0  0  0  0  0  0  0  0  0  0  0
    7.4619    9.0943  -16.6091 C   0  0  0  0  0  0  0  0  0  0  0  0
    7.1694    8.5739  -17.8971 O   0  0  0  0  0  0  0  0  0  0  0  0
    7.0385   10.4432  -16.5608 O   0  0  0  0  0  0  0  0  0  0  0  0
    7.1872   10.9932  -15.2496 C   0  0  0  0  0  0  0  0  0  0  0  0
    8.6796   11.0586  -14.8810 C   0  0  0  0  0  0  0  0  0  0  0  0
    8.8263   11.6389  -13.5751 O   0  0  0  0  0  0  0  0  0  0  0  0
    8.6714    7.0841  -15.6724 H   0  0  0  0  0  0  0  0  0  0  0  0
    7.9060    8.8172  -18.4808 H   0  0  0  0  0  0  0  0  0  0  0  0
    9.0659   10.9325  -12.9462 H   0  0  0  0  0  0  0  0  0  0  0  0
    6.5146   12.3747  -15.2211 C   0  0  0  0  0  0  0  0  0  0  0  0
    6.2730   12.8359  -13.8967 O   0  0  0  0  0  0  0  0  0  0  0  0
    7.1202   12.7435  -13.4103 H   0  0  0  0  0  0  0  0  0  0  0  0
 14 15  1  0
 14 16  1  0
  2  3  1  0
  2  9  1  0
  2 15  1  0
  3  4  1  0
  4  5  1  0
  4  1  1  0
  1 17  1  0
 17 18  1  0
 17 24  1  0
 18 19  1  0
 18 20  1  0
 19 26  1  0
 20 22  1  0
 20 21  1  0
 21 27  1  0
 22 23  1  0
 23 24  1  0
 23 29  1  0
 29 30  1  0
 30 31  1  0
 24 25  1  0
 25 28  1  0
  5  6  1  0
  5  7  1  0
  6 11  1  0
  7  8  1  0
  7  9  1  0
  8 12  1  0
  9 10  1  0
 10 13  1  0
M  END
> <minimizedAffinity>
-4.84839

> <CNNscore>
0.6506031156

> <CNNaffinity>
3.6856508255

> <CNN_VS>
2.3978958130

> <CNNaffinity_variance>
0.6422261596

$$$$



 31 32  0  0  0  0  0  0  0  0999 V2000
   11.6000    6.5912  -13.2457 O   0  0  0  0  0  0  0  0  0  0  0  0
    9.5056    8.5098  -15.5050 C   0  0  0  0  0  0  0  0  0  0  0  0
    9.8996    7.6830  -14.3981 O   0  0  0  0  0  0  0  0  0  0  0  0
   11.2913    7.3810  -14.3966 C   0  0  0  0  0  0  0  0  0  0  0  0
   11.6732    6.5830  -15.6685 C   0  0  0  0  0  0  0  0  0  0  0  0
   13.0803    6.3004  -15.7232 O   0  0  0  0  0  0  0  0  0  0  0  0
   11.2505    7.3893  -16.9101 C   0  0  0  0  0  0  0  0  0  0  0  0
   11.4953    6.6743  -18.1264 O   0  0  0  0  0  0  0  0  0  0  0  0
    9.7702    7.7828  -16.8291 C   0  0  0  0  0  0  0  0  0  0  0  0
    9.3914    8.6129  -17.9276 O   0  0  0  0  0  0  0  0  0  0  0  0
   13.5607    7.1323  -15.8736 H   0  0  0  0  0  0  0  0  0  0  0  0
   11.1022    5.7859  -18.0453 H   0  0  0  0  0  0  0  0  0  0  0  0
   10.1927    8.8515  -18.4301 H   0  0  0  0  0  0  0  0  0  0  0  0
    7.2550    8.0647  -16.2933 O   0  0  0  0  0  0  0  0  0  0  0  0
    8.0132    8.8365  -15.3585 C   0  0  0  0  0  0  0  0  0  0  0  0
    6.3283    8.3424  -16.1890 H   0  0  0  0  0  0  0  0  0  0  0  0
   12.3192    7.2737  -12.1949 C   0  0  0  0  0  0  0  0  0  0  0  0
   11.9856    8.7826  -12.1450 C   0  0  0  0  0  0  0  0  0  0  0  0
   10.6812    9.0130  -11.5966 O   0  0  0  0  0  0  0  0  0  0  0  0
   13.0371    9.5743  -11.3422 C   0  0  0  0  0  0  0  0  0  0  0  0
   12.8015   10.9706  -11.4430 O   0  0  0  0  0  0  0  0  0  0  0  0
   14.3555    9.3066  -11.7795 O   0  0  0  0  0  0  0  0  0  0  0  0
   14.7042    7.9337  -11.5851 C   0  0  0  0  0  0  0  0  0  0  0  0
   13.8269    7.0439  -12.4827 C   0  0  0  0  0  0  0  0  0  0  0  0
   14.2004    5.6680  -12.3062 O   0  0  0  0  0  0  0  0  0  0  0  0
   10.7202    8.8670  -10.6258 H   0  0  0  0  0  0  0  0  0  0  0  0
   12.5264   11.1517  -12.3563 H   0  0  0  0  0  0  0  0  0  0  0  0
   13.5047    5.2211  -11.7884 H   0  0  0  0  0  0  0  0  0  0  0  0
   16.2035    7.7653  -11.8775 C   0  0  0  0  0  0  0  0  0  0  0  0
   16.9883    7.7200  -10.6912 O   0  0  0  0  0  0  0  0  0  0  0  0
   16.5712    7.0516  -10.1062 H   0  0  0  0  0  0  0  0  0  0  0  0
 14 15  1  0
 14 16  1  0
  2  3  1  0
  2  9  1  0
  2 15  1  0
  3  4  1  0
  4  5  1  0
  4  1  1  0
  1 17  1  0
 17 18  1  0
 17 24  1  0
 18 19  1  0
 18 20  1  0
 19 26  1  0
 20 22  1  0
 20 21  1  0
 21 27  1  0
 22 23  1  0
 23 24  1  0
 23 29  1  0
 29 30  1  0
 30 31  1  0
 24 25  1  0
 25 28  1  0
  5  6  1  0
  5  7  1  0
  6 11  1  0
  7  8  1  0
  7  9  1  0
  8 12  1  0
  9 10  1  0
 10 13  1  0
M  END
> <minimizedAffinity>
-5.02958

> <CNNscore>
0.5904091597

> <CNNaffinity>
2.7502019405

> <CNN_VS>
1.6237443686

> <CNNaffinity_variance>
0.7257387042

$$$$



 31 32  0  0  0  0  0  0  0  0999 V2000
    9.4735    8.7788  -14.1146 O   0  0  0  0  0  0  0  0  0  0  0  0
   10.3443    7.0675  -17.1943 C   0  0  0  0  0  0  0  0  0  0  0  0
   10.4724    7.8655  -16.0064 O   0  0  0  0  0  0  0  0  0  0  0  0
    9.2462    8.0071  -15.2962 C   0  0  0  0  0  0  0  0  0  0  0  0
    8.1939    8.7316  -16.1726 C   0  0  0  0  0  0  0  0  0  0  0  0
    6.9284    8.8512  -15.5041 O   0  0  0  0  0  0  0  0  0  0  0  0
    8.0206    7.9547  -17.4904 C   0  0  0  0  0  0  0  0  0  0  0  0
    7.1229    8.6136  -18.3907 O   0  0  0  0  0  0  0  0  0  0  0  0
    9.3741    7.7339  -18.1774 C   0  0  0  0  0  0  0  0  0  0  0  0
    9.2376    6.9311  -19.3505 O   0  0  0  0  0  0  0  0  0  0  0  0
    6.5305    7.9673  -15.4272 H   0  0  0  0  0  0  0  0  0  0  0  0
    7.4048    9.5423  -18.4815 H   0  0  0  0  0  0  0  0  0  0  0  0
    8.3236    6.5932  -19.3936 H   0  0  0  0  0  0  0  0  0  0  0  0
   11.8045    5.6831  -18.5494 O   0  0  0  0  0  0  0  0  0  0  0  0
   11.7339    6.9156  -17.8280 C   0  0  0  0  0  0  0  0  0  0  0  0
   12.7137    5.6174  -18.8897 H   0  0  0  0  0  0  0  0  0  0  0  0
   10.8455    8.8452  -13.6668 C   0  0  0  0  0  0  0  0  0  0  0  0
   11.0076    8.3543  -12.2096 C   0  0  0  0  0  0  0  0  0  0  0  0
   10.8990    6.9276  -12.1222 O   0  0  0  0  0  0  0  0  0  0  0  0
   12.3452    8.8150  -11.5967 C   0  0  0  0  0  0  0  0  0  0  0  0
   12.4038    8.4931  -10.2153 O   0  0  0  0  0  0  0  0  0  0  0  0
   12.5491   10.2070  -11.7445 O   0  0  0  0  0  0  0  0  0  0  0  0
   12.6292   10.5822  -13.1218 C   0  0  0  0  0  0  0  0  0  0  0  0
   11.2752   10.3299  -13.8074 C   0  0  0  0  0  0  0  0  0  0  0  0
   11.3511   10.7357  -15.1834 O   0  0  0  0  0  0  0  0  0  0  0  0
   11.7249    6.5292  -12.4751 H   0  0  0  0  0  0  0  0  0  0  0  0
   11.5212    8.6533   -9.8439 H   0  0  0  0  0  0  0  0  0  0  0  0
   11.3817    9.9362  -15.7419 H   0  0  0  0  0  0  0  0  0  0  0  0
   13.0622   12.0546  -13.2017 C   0  0  0  0  0  0  0  0  0  0  0  0
   12.2630   12.9027  -12.3850 O   0  0  0  0  0  0  0  0  0  0  0  0
   12.2421   12.4928  -11.4937 H   0  0  0  0  0  0  0  0  0  0  0  0
 14 15  1  0
 14 16  1  0
  2  3  1  0
  2  9  1  0
  2 15  1  0
  3  4  1  0
  4  5  1  0
  4  1  1  0
  1 17  1  0
 17 18  1  0
 17 24  1  0
 18 19  1  0
 18 20  1  0
 19 26  1  0
 20 22  1  0
 20 21  1  0
 21 27  1  0
 22 23  1  0
 23 24  1  0
 23 29  1  0
 29 30  1  0
 30 31  1  0
 24 25  1  0
 25 28  1  0
  5  6  1  0
  5  7  1  0
  6 11  1  0
  7  8  1  0
  7  9  1  0
  8 12  1  0
  9 10  1  0
 10 13  1  0
M  END
> <minimizedAffinity>
-4.66819

> <CNNscore>
0.5337463617

> <CNNaffinity>
2.9307975769

> <CNN_VS>
1.5643025637

> <CNNaffinity_variance>
0.3997622430

$$$$



 31 32  0  0  0  0  0  0  0  0999 V2000
   12.0016    7.8251  -11.5093 O   0  0  0  0  0  0  0  0  0  0  0  0
   15.5357    8.0573  -10.7166 C   0  0  0  0  0  0  0  0  0  0  0  0
   14.2797    7.5149  -11.1557 O   0  0  0  0  0  0  0  0  0  0  0  0
   13.1984    8.4309  -11.0150 C   0  0  0  0  0  0  0  0  0  0  0  0
   12.9933    8.8011   -9.5246 C   0  0  0  0  0  0  0  0  0  0  0  0
   11.9387    9.7603   -9.3495 O   0  0  0  0  0  0  0  0  0  0  0  0
   14.3124    9.3622   -8.9630 C   0  0  0  0  0  0  0  0  0  0  0  0
   14.2238    9.6482   -7.5626 O   0  0  0  0  0  0  0  0  0  0  0  0
   15.4732    8.3935   -9.2216 C   0  0  0  0  0  0  0  0  0  0  0  0
   16.7179    8.9460   -8.7917 O   0  0  0  0  0  0  0  0  0  0  0  0
   12.2278   10.6134   -9.7156 H   0  0  0  0  0  0  0  0  0  0  0  0
   13.8727    8.8599   -7.1093 H   0  0  0  0  0  0  0  0  0  0  0  0
   16.5753    9.8765   -8.5362 H   0  0  0  0  0  0  0  0  0  0  0  0
   16.0750    5.7042  -10.9556 O   0  0  0  0  0  0  0  0  0  0  0  0
   16.6333    7.0201  -10.9902 C   0  0  0  0  0  0  0  0  0  0  0  0
   16.8168    5.0889  -11.0892 H   0  0  0  0  0  0  0  0  0  0  0  0
   11.5724    8.2665  -12.8163 C   0  0  0  0  0  0  0  0  0  0  0  0
   10.0329    8.2564  -12.9588 C   0  0  0  0  0  0  0  0  0  0  0  0
    9.4329    9.3412  -12.2388 O   0  0  0  0  0  0  0  0  0  0  0  0
    9.5952    8.3045  -14.4363 C   0  0  0  0  0  0  0  0  0  0  0  0
    8.1907    8.1330  -14.5515 O   0  0  0  0  0  0  0  0  0  0  0  0
   10.2361    7.3131  -15.2157 O   0  0  0  0  0  0  0  0  0  0  0  0
   11.6525    7.5049  -15.2472 C   0  0  0  0  0  0  0  0  0  0  0  0
   12.2345    7.3033  -13.8373 C   0  0  0  0  0  0  0  0  0  0  0  0
   13.6610    7.4678  -13.8791 O   0  0  0  0  0  0  0  0  0  0  0  0
    9.5935   10.1731  -12.7364 H   0  0  0  0  0  0  0  0  0  0  0  0
    7.9274    7.4628  -13.9003 H   0  0  0  0  0  0  0  0  0  0  0  0
   13.8876    8.3217  -13.4652 H   0  0  0  0  0  0  0  0  0  0  0  0
   12.2535    6.5329  -16.2748 C   0  0  0  0  0  0  0  0  0  0  0  0
   13.0548    5.5255  -15.6682 O   0  0  0  0  0  0  0  0  0  0  0  0
   12.5139    5.1342  -14.9490 H   0  0  0  0  0  0  0  0  0  0  0  0
 14 15  1  0
 14 16  1  0
  2  3  1  0
  2  9  1  0
  2 15  1  0
  3  4  1  0
  4  5  1  0
  4  1  1  0
  1 17  1  0
 17 18  1  0
 17 24  1  0
 18 19  1  0
 18 20  1  0
 19 26  1  0
 20 22  1  0
 20 21  1  0
 21 27  1  0
 22 23  1  0
 23 24  1  0
 23 29  1  0
 29 30  1  0
 30 31  1  0
 24 25  1  0
 25 28  1  0
  5  6  1  0
  5  7  1  0
  6 11  1  0
  7  8  1  0
  7  9  1  0
  8 12  1  0
  9 10  1  0
 10 13  1  0
M  END
> <minimizedAffinity>
-6.69767

> <CNNscore>
0.5222974420

> <CNNaffinity>
2.6388025284

> <CNN_VS>
1.3782397509

> <CNNaffinity_variance>
0.9394333959

$$$$



 31 32  0  0  0  0  0  0  0  0999 V2000
   12.9839    6.9455  -12.5373 O   0  0  0  0  0  0  0  0  0  0  0  0
   15.2466    8.5816  -10.2189 C   0  0  0  0  0  0  0  0  0  0  0  0
   14.6252    7.5514  -11.0044 O   0  0  0  0  0  0  0  0  0  0  0  0
   13.5139    8.0220  -11.7604 C   0  0  0  0  0  0  0  0  0  0  0  0
   12.4045    8.5530  -10.8183 C   0  0  0  0  0  0  0  0  0  0  0  0
   11.2854    9.0790  -11.5489 O   0  0  0  0  0  0  0  0  0  0  0  0
   12.9997    9.6452   -9.9110 C   0  0  0  0  0  0  0  0  0  0  0  0
   12.0512   10.1252   -8.9516 O   0  0  0  0  0  0  0  0  0  0  0  0
   14.2531    9.1340   -9.1895 C   0  0  0  0  0  0  0  0  0  0  0  0
   14.8691   10.1676   -8.4205 O   0  0  0  0  0  0  0  0  0  0  0  0
   11.5600    9.8985  -11.9943 H   0  0  0  0  0  0  0  0  0  0  0  0
   11.6640    9.3580   -8.4914 H   0  0  0  0  0  0  0  0  0  0  0  0
   14.4243   11.0127   -8.6194 H   0  0  0  0  0  0  0  0  0  0  0  0
   17.3822    9.0251   -9.1571 O   0  0  0  0  0  0  0  0  0  0  0  0
   16.4726    7.9821   -9.5167 C   0  0  0  0  0  0  0  0  0  0  0  0
   18.1554    8.5884   -8.7595 H   0  0  0  0  0  0  0  0  0  0  0  0
   13.0448    7.1207  -13.9701 C   0  0  0  0  0  0  0  0  0  0  0  0
   11.6432    7.3104  -14.5945 C   0  0  0  0  0  0  0  0  0  0  0  0
   11.1169    8.6142  -14.3146 O   0  0  0  0  0  0  0  0  0  0  0  0
   11.6581    7.0688  -16.1172 C   0  0  0  0  0  0  0  0  0  0  0  0
   10.3399    7.0898  -16.6436 O   0  0  0  0  0  0  0  0  0  0  0  0
   12.2596    5.8342  -16.4561 O   0  0  0  0  0  0  0  0  0  0  0  0
   13.6345    5.7956  -16.0660 C   0  0  0  0  0  0  0  0  0  0  0  0
   13.7399    5.8519  -14.5320 C   0  0  0  0  0  0  0  0  0  0  0  0
   15.1211    5.7832  -14.1432 O   0  0  0  0  0  0  0  0  0  0  0  0
   11.5877    9.2683  -14.8767 H   0  0  0  0  0  0  0  0  0  0  0  0
    9.7653    6.6431  -16.0010 H   0  0  0  0  0  0  0  0  0  0  0  0
   15.4031    6.6669  -13.8408 H   0  0  0  0  0  0  0  0  0  0  0  0
   14.2723    4.5262  -16.6520 C   0  0  0  0  0  0  0  0  0  0  0  0
   14.0548    4.4040  -18.0530 O   0  0  0  0  0  0  0  0  0  0  0  0
   14.3202    5.2602  -18.4522 H   0  0  0  0  0  0  0  0  0  0  0  0
 14 15  1  0
 14 16  1  0
  2  3  1  0
  2  9  1  0
  2 15  1  0
  3  4  1  0
  4  5  1  0
  4  1  1  0
  1 17  1  0
 17 18  1  0
 17 24  1  0
 18 19  1  0
 18 20  1  0
 19 26  1  0
 20 22  1  0
 20 21  1  0
 21 27  1  0
 22 23  1  0
 23 24  1  0
 23 29  1  0
 29 30  1  0
 30 31  1  0
 24 25  1  0
 25 28  1  0
  5  6  1  0
  5  7  1  0
  6 11  1  0
  7  8  1  0
  7  9  1  0
  8 12  1  0
  9 10  1  0
 10 13  1  0
M  END
> <minimizedAffinity>
-5.02883

> <CNNscore>
0.5210000873

> <CNNaffinity>
2.6746237278

> <CNN_VS>
1.3934792280

> <CNNaffinity_variance>
0.6831274629

$$$$



 31 32  0  0  0  0  0  0  0  0999 V2000
   14.4817    8.8700  -13.0884 O   0  0  0  0  0  0  0  0  0  0  0  0
   15.4780    9.0355   -9.6025 C   0  0  0  0  0  0  0  0  0  0  0  0
   15.3232    8.5455  -10.9442 O   0  0  0  0  0  0  0  0  0  0  0  0
   14.5514    9.4136  -11.7681 C   0  0  0  0  0  0  0  0  0  0  0  0
   13.1137    9.5544  -11.2083 C   0  0  0  0  0  0  0  0  0  0  0  0
   12.3192   10.4604  -11.9897 O   0  0  0  0  0  0  0  0  0  0  0  0
   13.1906   10.0456   -9.7512 C   0  0  0  0  0  0  0  0  0  0  0  0
   11.8987   10.1183   -9.1378 O   0  0  0  0  0  0  0  0  0  0  0  0
   14.1101    9.1442   -8.9177 C   0  0  0  0  0  0  0  0  0  0  0  0
   14.2660    9.6454   -7.5896 O   0  0  0  0  0  0  0  0  0  0  0  0
   12.6580   11.3629  -11.8627 H   0  0  0  0  0  0  0  0  0  0  0  0
   11.4456    9.2659   -9.2731 H   0  0  0  0  0  0  0  0  0  0  0  0
   13.8480   10.5252   -7.5364 H   0  0  0  0  0  0  0  0  0  0  0  0
   17.6907    8.6415   -8.6896 O   0  0  0  0  0  0  0  0  0  0  0  0
   16.3892    8.0677   -8.8354 C   0  0  0  0  0  0  0  0  0  0  0  0
   18.2356    7.9724   -8.2399 H   0  0  0  0  0  0  0  0  0  0  0  0
   13.6114    7.7279  -13.2481 C   0  0  0  0  0  0  0  0  0  0  0  0
   14.3918    6.3933  -13.2325 C   0  0  0  0  0  0  0  0  0  0  0  0
   14.8268    6.0561  -11.9088 O   0  0  0  0  0  0  0  0  0  0  0  0
   13.5582    5.2366  -13.8192 C   0  0  0  0  0  0  0  0  0  0  0  0
   14.3447    4.0614  -13.9437 O   0  0  0  0  0  0  0  0  0  0  0  0
   13.0204    5.5560  -15.0880 O   0  0  0  0  0  0  0  0  0  0  0  0
   12.1133    6.6584  -15.0110 C   0  0  0  0  0  0  0  0  0  0  0  0
   12.8763    7.9297  -14.6000 C   0  0  0  0  0  0  0  0  0  0  0  0
   11.9669    9.0408  -14.5525 O   0  0  0  0  0  0  0  0  0  0  0  0
   14.0494    5.7459  -11.3941 H   0  0  0  0  0  0  0  0  0  0  0  0
   15.2278    4.3351  -14.2398 H   0  0  0  0  0  0  0  0  0  0  0  0
   11.8000    9.2661  -13.6180 H   0  0  0  0  0  0  0  0  0  0  0  0
   11.4118    6.8086  -16.3701 C   0  0  0  0  0  0  0  0  0  0  0  0
   12.0165    7.8034  -17.1885 O   0  0  0  0  0  0  0  0  0  0  0  0
   12.9776    7.6059  -17.2033 H   0  0  0  0  0  0  0  0  0  0  0  0
 14 15  1  0
 14 16  1  0
  2  3  1  0
  2  9  1  0
  2 15  1  0
  3  4  1  0
  4  5  1  0
  4  1  1  0
  1 17  1  0
 17 18  1  0
 17 24  1  0
 18 19  1  0
 18 20  1  0
 19 26  1  0
 20 22  1  0
 20 21  1  0
 21 27  1  0
 22 23  1  0
 23 24  1  0
 23 29  1  0
 29 30  1  0
 30 31  1  0
 24 25  1  0
 25 28  1  0
  5  6  1  0
  5  7  1  0
  6 11  1  0
  7  8  1  0
  7  9  1  0
  8 12  1  0
  9 10  1  0
 10 13  1  0
M  END
> <minimizedAffinity>
-5.37951

> <CNNscore>
0.4970896840

> <CNNaffinity>
2.4957244396

> <CNN_VS>
1.2405989170

> <CNNaffinity_variance>
1.0701255798

$$$$



 31 32  0  0  0  0  0  0  0  0999 V2000
   12.1939    9.7154  -12.0637 O   0  0  0  0  0  0  0  0  0  0  0  0
   11.7471    8.8166  -15.5515 C   0  0  0  0  0  0  0  0  0  0  0  0
   12.1980    9.5182  -14.3815 O   0  0  0  0  0  0  0  0  0  0  0  0
   11.6648    8.9855  -13.1732 C   0  0  0  0  0  0  0  0  0  0  0  0
   10.1204    9.1088  -13.1627 C   0  0  0  0  0  0  0  0  0  0  0  0
    9.5440    8.5389  -11.9770 O   0  0  0  0  0  0  0  0  0  0  0  0
    9.5546    8.4077  -14.4112 C   0  0  0  0  0  0  0  0  0  0  0  0
    8.1339    8.5542  -14.5144 O   0  0  0  0  0  0  0  0  0  0  0  0
   10.2241    8.9362  -15.6860 C   0  0  0  0  0  0  0  0  0  0  0  0
    9.7775    8.2256  -16.8414 O   0  0  0  0  0  0  0  0  0  0  0  0
    9.6539    7.5733  -12.0088 H   0  0  0  0  0  0  0  0  0  0  0  0
    7.9148    9.4999  -14.4249 H   0  0  0  0  0  0  0  0  0  0  0  0
    9.2306    7.4713  -16.5526 H   0  0  0  0  0  0  0  0  0  0  0  0
   12.5611    8.4319  -17.8041 O   0  0  0  0  0  0  0  0  0  0  0  0
   12.4454    9.4204  -16.7775 C   0  0  0  0  0  0  0  0  0  0  0  0
   13.0475    8.8521  -18.5346 H   0  0  0  0  0  0  0  0  0  0  0  0
   12.8832    8.9261  -11.0691 C   0  0  0  0  0  0  0  0  0  0  0  0
   13.1665    9.7310   -9.7797 C   0  0  0  0  0  0  0  0  0  0  0  0
   11.9734    9.9210   -9.0079 O   0  0  0  0  0  0  0  0  0  0  0  0
   14.2486    9.0581   -8.9119 C   0  0  0  0  0  0  0  0  0  0  0  0
   14.6073    9.8901   -7.8190 O   0  0  0  0  0  0  0  0  0  0  0  0
   15.4160    8.7574   -9.6520 O   0  0  0  0  0  0  0  0  0  0  0  0
   15.1480    7.8182  -10.6960 C   0  0  0  0  0  0  0  0  0  0  0  0
   14.2033    8.4509  -11.7326 C   0  0  0  0  0  0  0  0  0  0  0  0
   13.9601    7.5146  -12.7946 O   0  0  0  0  0  0  0  0  0  0  0  0
   11.7457    9.0711   -8.5706 H   0  0  0  0  0  0  0  0  0  0  0  0
   14.6254   10.8041   -8.1458 H   0  0  0  0  0  0  0  0  0  0  0  0
   13.0525    7.1690  -12.7024 H   0  0  0  0  0  0  0  0  0  0  0  0
   16.4856    7.3788  -11.3120 C   0  0  0  0  0  0  0  0  0  0  0  0
   17.4112    8.4535  -11.4279 O   0  0  0  0  0  0  0  0  0  0  0  0
   17.4475    8.8865  -10.5481 H   0  0  0  0  0  0  0  0  0  0  0  0
 14 15  1  0
 14 16  1  0
  2  3  1  0
  2  9  1  0
  2 15  1  0
  3  4  1  0
  4  5  1  0
  4  1  1  0
  1 17  1  0
 17 18  1  0
 17 24  1  0
 18 19  1  0
 18 20  1  0
 19 26  1  0
 20 22  1  0
 20 21  1  0
 21 27  1  0
 22 23  1  0
 23 24  1  0
 23 29  1  0
 29 30  1  0
 30 31  1  0
 24 25  1  0
 25 28  1  0
  5  6  1  0
  5  7  1  0
  6 11  1  0
  7  8  1  0
  7  9  1  0
  8 12  1  0
  9 10  1  0
 10 13  1  0
M  END
> <minimizedAffinity>
-5.93257

> <CNNscore>
0.4692986012

> <CNNaffinity>
3.2738063335

> <CNN_VS>
1.5363926888

> <CNNaffinity_variance>
0.7527179122

$$$$



 31 32  0  0  0  0  0  0  0  0999 V2000
   12.0491    7.4895  -11.0375 O   0  0  0  0  0  0  0  0  0  0  0  0
   15.5057    8.4121  -11.6482 C   0  0  0  0  0  0  0  0  0  0  0  0
   14.3259    7.6056  -11.5003 O   0  0  0  0  0  0  0  0  0  0  0  0
   13.1790    8.3611  -11.1235 C   0  0  0  0  0  0  0  0  0  0  0  0
   13.4012    9.0301   -9.7438 C   0  0  0  0  0  0  0  0  0  0  0  0
   12.2808    9.8389   -9.3522 O   0  0  0  0  0  0  0  0  0  0  0  0
   14.6754    9.8921   -9.8057 C   0  0  0  0  0  0  0  0  0  0  0  0
   14.9932   10.4763   -8.5376 O   0  0  0  0  0  0  0  0  0  0  0  0
   15.8678    9.0703  -10.3113 C   0  0  0  0  0  0  0  0  0  0  0  0
   17.0321    9.8828  -10.4651 O   0  0  0  0  0  0  0  0  0  0  0  0
   12.2393   10.6178   -9.9328 H   0  0  0  0  0  0  0  0  0  0  0  0
   14.9925    9.7707   -7.8650 H   0  0  0  0  0  0  0  0  0  0  0  0
   16.7822   10.8160  -10.3304 H   0  0  0  0  0  0  0  0  0  0  0  0
   16.1400    6.5212  -13.0291 O   0  0  0  0  0  0  0  0  0  0  0  0
   16.6502    7.5118  -12.1331 C   0  0  0  0  0  0  0  0  0  0  0  0
   16.8941    5.9546  -13.2682 H   0  0  0  0  0  0  0  0  0  0  0  0
   11.5517    6.9865  -12.2972 C   0  0  0  0  0  0  0  0  0  0  0  0
   12.6950    6.5762  -13.2537 C   0  0  0  0  0  0  0  0  0  0  0  0
   13.3069    5.3469  -12.8419 O   0  0  0  0  0  0  0  0  0  0  0  0
   12.2055    6.4539  -14.7105 C   0  0  0  0  0  0  0  0  0  0  0  0
   13.2966    6.2351  -15.5920 O   0  0  0  0  0  0  0  0  0  0  0  0
   11.5052    7.6065  -15.1371 O   0  0  0  0  0  0  0  0  0  0  0  0
   10.3177    7.8135  -14.3682 C   0  0  0  0  0  0  0  0  0  0  0  0
   10.6927    8.1252  -12.9090 C   0  0  0  0  0  0  0  0  0  0  0  0
    9.4983    8.3615  -12.1466 O   0  0  0  0  0  0  0  0  0  0  0  0
   12.6982    4.6069  -13.0591 H   0  0  0  0  0  0  0  0  0  0  0  0
   14.0330    6.7869  -15.2823 H   0  0  0  0  0  0  0  0  0  0  0  0
    9.3406    7.5910  -11.5693 H   0  0  0  0  0  0  0  0  0  0  0  0
    9.5057    8.9440  -15.0198 C   0  0  0  0  0  0  0  0  0  0  0  0
    8.1046    8.7914  -14.8235 O   0  0  0  0  0  0  0  0  0  0  0  0
    7.9719    8.6453  -13.8623 H   0  0  0  0  0  0  0  0  0  0  0  0
 14 15  1  0
 14 16  1  0
  2  3  1  0
  2  9  1  0
  2 15  1  0
  3  4  1  0
  4  5  1  0
  4  1  1  0
  1 17  1  0
 17 18  1  0
 17 24  1  0
 18 19  1  0
 18 20  1  0
 19 26  1  0
 20 22  1  0
 20 21  1  0
 21 27  1  0
 22 23  1  0
 23 24  1  0
 23 29  1  0
 29 30  1  0
 30 31  1  0
 24 25  1  0
 25 28  1  0
  5  6  1  0
  5  7  1  0
  6 11  1  0
  7  8  1  0
  7  9  1  0
  8 12  1  0
  9 10  1  0
 10 13  1  0
M  END
> <minimizedAffinity>
-6.19520

> <CNNscore>
0.4495533109

> <CNNaffinity>
2.4698753357

> <CNN_VS>
1.1103405952

> <CNNaffinity_variance>
0.9940202236

$$$$



 31 32  0  0  0  0  0  0  0  0999 V2000
   11.6014    7.0264  -12.0042 O   0  0  0  0  0  0  0  0  0  0  0  0
   10.8150    7.1038  -15.5465 C   0  0  0  0  0  0  0  0  0  0  0  0
   11.5630    6.9539  -14.3289 O   0  0  0  0  0  0  0  0  0  0  0  0
   10.7936    7.2374  -13.1646 C   0  0  0  0  0  0  0  0  0  0  0  0
   10.3131    8.7102  -13.1789 C   0  0  0  0  0  0  0  0  0  0  0  0
    9.4941    9.0193  -12.0402 O   0  0  0  0  0  0  0  0  0  0  0  0
    9.5262    8.9666  -14.4771 C   0  0  0  0  0  0  0  0  0  0  0  0
    9.1216   10.3346  -14.6011 O   0  0  0  0  0  0  0  0  0  0  0  0
   10.3482    8.5560  -15.7053 C   0  0  0  0  0  0  0  0  0  0  0  0
    9.5926    8.6984  -16.9087 O   0  0  0  0  0  0  0  0  0  0  0  0
    8.6488    8.5464  -12.1253 H   0  0  0  0  0  0  0  0  0  0  0  0
    9.9031   10.9004  -14.4618 H   0  0  0  0  0  0  0  0  0  0  0  0
    8.6699    8.9120  -16.6752 H   0  0  0  0  0  0  0  0  0  0  0  0
   13.0878    6.7891  -16.3340 O   0  0  0  0  0  0  0  0  0  0  0  0
   11.7145    6.6954  -16.7210 C   0  0  0  0  0  0  0  0  0  0  0  0
   13.6102    6.5645  -17.1236 H   0  0  0  0  0  0  0  0  0  0  0  0
   12.8755    7.7074  -11.9984 C   0  0  0  0  0  0  0  0  0  0  0  0
   14.0539    6.7420  -12.2629 C   0  0  0  0  0  0  0  0  0  0  0  0
   14.1098    6.3484  -13.6403 O   0  0  0  0  0  0  0  0  0  0  0  0
   15.4029    7.3571  -11.8401 C   0  0  0  0  0  0  0  0  0  0  0  0
   16.4467    6.4002  -11.9407 O   0  0  0  0  0  0  0  0  0  0  0  0
   15.3719    7.8531  -10.5157 O   0  0  0  0  0  0  0  0  0  0  0  0
   14.4253    8.9153  -10.3752 C   0  0  0  0  0  0  0  0  0  0  0  0
   13.0027    8.3755  -10.6034 C   0  0  0  0  0  0  0  0  0  0  0  0
   12.0527    9.4394  -10.4323 O   0  0  0  0  0  0  0  0  0  0  0  0
   14.4533    7.1033  -14.1671 H   0  0  0  0  0  0  0  0  0  0  0  0
   16.0884    5.5496  -11.6395 H   0  0  0  0  0  0  0  0  0  0  0  0
   11.7137    9.6974  -11.3101 H   0  0  0  0  0  0  0  0  0  0  0  0
   14.5988    9.5422   -8.9828 C   0  0  0  0  0  0  0  0  0  0  0  0
   13.5131    9.2450   -8.1122 O   0  0  0  0  0  0  0  0  0  0  0  0
   13.3838    8.2730   -8.1496 H   0  0  0  0  0  0  0  0  0  0  0  0
 14 15  1  0
 14 16  1  0
  2  3  1  0
  2  9  1  0
  2 15  1  0
  3  4  1  0
  4  5  1  0
  4  1  1  0
  1 17  1  0
 17 18  1  0
 17 24  1  0
 18 19  1  0
 18 20  1  0
 19 26  1  0
 20 22  1  0
 20 21  1  0
 21 27  1  0
 22 23  1  0
 23 24  1  0
 23 29  1  0
 29 30  1  0
 30 31  1  0
 24 25  1  0
 25 28  1  0
  5  6  1  0
  5  7  1  0
  6 11  1  0
  7  8  1  0
  7  9  1  0
  8 12  1  0
  9 10  1  0
 10 13  1  0
M  END
> <minimizedAffinity>
-5.88475

> <CNNscore>
0.3831372261

> <CNNaffinity>
2.5240752697

> <CNN_VS>
0.9670671821

> <CNNaffinity_variance>
0.7964828610

$$$$



 31 32  0  0  0  0  0  0  0  0999 V2000
   10.4996    7.1387  -14.2803 O   0  0  0  0  0  0  0  0  0  0  0  0
   13.8195    8.5209  -14.7698 C   0  0  0  0  0  0  0  0  0  0  0  0
   12.5613    7.8881  -15.0541 O   0  0  0  0  0  0  0  0  0  0  0  0
   11.7403    7.7385  -13.9002 C   0  0  0  0  0  0  0  0  0  0  0  0
   12.4359    6.8303  -12.8553 C   0  0  0  0  0  0  0  0  0  0  0  0
   11.6554    6.6942  -11.6574 O   0  0  0  0  0  0  0  0  0  0  0  0
   13.8164    7.4226  -12.5185 C   0  0  0  0  0  0  0  0  0  0  0  0
   14.5562    6.5888  -11.6196 O   0  0  0  0  0  0  0  0  0  0  0  0
   14.6343    7.6636  -13.7935 C   0  0  0  0  0  0  0  0  0  0  0  0
   15.8777    8.3023  -13.5015 O   0  0  0  0  0  0  0  0  0  0  0  0
   11.6495    7.5464  -11.1894 H   0  0  0  0  0  0  0  0  0  0  0  0
   14.5610    5.6812  -11.9754 H   0  0  0  0  0  0  0  0  0  0  0  0
   15.8840    8.5589  -12.5604 H   0  0  0  0  0  0  0  0  0  0  0  0
   13.7018    8.4554  -17.1919 O   0  0  0  0  0  0  0  0  0  0  0  0
   14.5795    8.7031  -16.0906 C   0  0  0  0  0  0  0  0  0  0  0  0
   14.2424    8.5398  -17.9965 H   0  0  0  0  0  0  0  0  0  0  0  0
    9.5026    8.0445  -14.8028 C   0  0  0  0  0  0  0  0  0  0  0  0
    9.6510    8.2587  -16.3269 C   0  0  0  0  0  0  0  0  0  0  0  0
    9.2019    7.1137  -17.0632 O   0  0  0  0  0  0  0  0  0  0  0  0
    8.8961    9.5156  -16.8037 C   0  0  0  0  0  0  0  0  0  0  0  0
    9.1755    9.7833  -18.1695 O   0  0  0  0  0  0  0  0  0  0  0  0
    9.2300   10.6601  -16.0423 O   0  0  0  0  0  0  0  0  0  0  0  0
    8.8549   10.5060  -14.6713 C   0  0  0  0  0  0  0  0  0  0  0  0
    9.6831    9.3787  -14.0307 C   0  0  0  0  0  0  0  0  0  0  0  0
    9.3241    9.2469  -12.6460 O   0  0  0  0  0  0  0  0  0  0  0  0
    8.2198    7.0932  -17.0405 H   0  0  0  0  0  0  0  0  0  0  0  0
   10.1168    9.5944  -18.3140 H   0  0  0  0  0  0  0  0  0  0  0  0
    8.7928    8.4357  -12.5386 H   0  0  0  0  0  0  0  0  0  0  0  0
    9.0477   11.8537  -13.9585 C   0  0  0  0  0  0  0  0  0  0  0  0
    7.8119   12.4814  -13.6361 O   0  0  0  0  0  0  0  0  0  0  0  0
    7.2690   11.8073  -13.1738 H   0  0  0  0  0  0  0  0  0  0  0  0
 14 15  1  0
 14 16  1  0
  2  3  1  0
  2  9  1  0
  2 15  1  0
  3  4  1  0
  4  5  1  0
  4  1  1  0
  1 17  1  0
 17 18  1  0
 17 24  1  0
 18 19  1  0
 18 20  1  0
 19 26  1  0
 20 22  1  0
 20 21  1  0
 21 27  1  0
 22 23  1  0
 23 24  1  0
 23 29  1  0
 29 30  1  0
 30 31  1  0
 24 25  1  0
 25 28  1  0
  5  6  1  0
  5  7  1  0
  6 11  1  0
  7  8  1  0
  7  9  1  0
  8 12  1  0
  9 10  1  0
 10 13  1  0
M  END
> <minimizedAffinity>
-4.86035

> <CNNscore>
0.3602167368

> <CNNaffinity>
3.3535873890

> <CNN_VS>
1.2080183029

> <CNNaffinity_variance>
1.1856862307

$$$$
