


 31 32  0  0  0  0  0  0  0  0999 V2000
   14.1116   -8.6066    9.2501 O   0  0  0  0  0  0  0  0  0  0  0  0
   13.0404   -5.1877    9.8292 C   0  0  0  0  0  0  0  0  0  0  0  0
   13.7772   -6.4148    9.9539 O   0  0  0  0  0  0  0  0  0  0  0  0
   13.3008   -7.4405    9.0884 C   0  0  0  0  0  0  0  0  0  0  0  0
   11.8333   -7.7997    9.4317 C   0  0  0  0  0  0  0  0  0  0  0  0
   11.3041   -8.8001    8.5474 O   0  0  0  0  0  0  0  0  0  0  0  0
   10.9753   -6.5236    9.3548 C   0  0  0  0  0  0  0  0  0  0  0  0
    9.6180   -6.7623    9.7439 O   0  0  0  0  0  0  0  0  0  0  0  0
   11.5743   -5.4085   10.2211 C   0  0  0  0  0  0  0  0  0  0  0  0
   10.8416   -4.1908   10.0819 O   0  0  0  0  0  0  0  0  0  0  0  0
   11.1989   -8.4113    7.6625 H   0  0  0  0  0  0  0  0  0  0  0  0
    9.6206   -7.2187   10.6053 H   0  0  0  0  0  0  0  0  0  0  0  0
   10.1868   -4.2998    9.3672 H   0  0  0  0  0  0  0  0  0  0  0  0
   14.8305   -3.5717   10.0913 O   0  0  0  0  0  0  0  0  0  0  0  0
   13.6898   -4.1380   10.7412 C   0  0  0  0  0  0  0  0  0  0  0  0
   15.2269   -2.9506   10.7269 H   0  0  0  0  0  0  0  0  0  0  0  0
   14.8439   -9.0252    8.0771 C   0  0  0  0  0  0  0  0  0  0  0  0
   14.3548  -10.3903    7.5407 C   0  0  0  0  0  0  0  0  0  0  0  0
   13.0875  -10.2706    6.8814 O   0  0  0  0  0  0  0  0  0  0  0  0
   15.3820  -11.0308    6.5860 C   0  0  0  0  0  0  0  0  0  0  0  0
   14.9887  -12.3483    6.2329 O   0  0  0  0  0  0  0  0  0  0  0  0
   16.6772  -11.0833    7.1524 O   0  0  0  0  0  0  0  0  0  0  0  0
   17.1884   -9.7742    7.4153 C   0  0  0  0  0  0  0  0  0  0  0  0
   16.3358   -9.0928    8.4996 C   0  0  0  0  0  0  0  0  0  0  0  0
   16.8703   -7.7895    8.7818 O   0  0  0  0  0  0  0  0  0  0  0  0
   13.2288   -9.8428    6.0082 H   0  0  0  0  0  0  0  0  0  0  0  0
   14.6149  -12.7609    7.0283 H   0  0  0  0  0  0  0  0  0  0  0  0
   16.2762   -7.1195    8.3945 H   0  0  0  0  0  0  0  0  0  0  0  0
   18.6649   -9.9000    7.8226 C   0  0  0  0  0  0  0  0  0  0  0  0
   19.5520   -9.4764    6.7936 O   0  0  0  0  0  0  0  0  0  0  0  0
   19.2435   -8.5901    6.5068 H   0  0  0  0  0  0  0  0  0  0  0  0
 14 15  1  0
 14 16  1  0
  2  3  1  0
  2  9  1  0
  2 15  1  0
  3  4  1  0
  4  5  1  0
  4  1  1  0
  1 17  1  0
 17 18  1  0
 17 24  1  0
 18 19  1  0
 18 20  1  0
 19 26  1  0
 20 22  1  0
 20 21  1  0
 21 27  1  0
 22 23  1  0
 23 24  1  0
 23 29  1  0
 29 30  1  0
 30 31  1  0
 24 25  1  0
 25 28  1  0
  5  6  1  0
  5  7  1  0
  6 11  1  0
  7  8  1  0
  7  9  1  0
  8 12  1  0
  9 10  1  0
 10 13  1  0
M  END
> <minimizedAffinity>
-5.12321

> <CNNscore>
0.9424677491

> <CNNaffinity>
3.1296527386

> <CNN_VS>
2.9495968819

> <CNNaffinity_variance>
0.4872482717

$$$$



 31 32  0  0  0  0  0  0  0  0999 V2000
   14.1493   -8.4692    9.4275 O   0  0  0  0  0  0  0  0  0  0  0  0
   12.7835   -5.1216    9.7441 C   0  0  0  0  0  0  0  0  0  0  0  0
   13.6140   -6.2717    9.9715 O   0  0  0  0  0  0  0  0  0  0  0  0
   13.2512   -7.3883    9.1654 C   0  0  0  0  0  0  0  0  0  0  0  0
   11.8078   -7.8460    9.4933 C   0  0  0  0  0  0  0  0  0  0  0  0
   11.3910   -8.9431    8.6654 O   0  0  0  0  0  0  0  0  0  0  0  0
   10.8511   -6.6542    9.3071 C   0  0  0  0  0  0  0  0  0  0  0  0
    9.5061   -6.9799    9.6754 O   0  0  0  0  0  0  0  0  0  0  0  0
   11.3287   -5.4384   10.1112 C   0  0  0  0  0  0  0  0  0  0  0  0
   10.5035   -4.2982    9.8701 O   0  0  0  0  0  0  0  0  0  0  0  0
   11.2827   -8.6234    7.7536 H   0  0  0  0  0  0  0  0  0  0  0  0
    9.5185   -7.3770   10.5656 H   0  0  0  0  0  0  0  0  0  0  0  0
    9.8831   -4.5083    9.1473 H   0  0  0  0  0  0  0  0  0  0  0  0
   12.4178   -3.7113   11.6837 O   0  0  0  0  0  0  0  0  0  0  0  0
   13.3152   -3.9635   10.5995 C   0  0  0  0  0  0  0  0  0  0  0  0
   12.7771   -2.9446   12.1632 H   0  0  0  0  0  0  0  0  0  0  0  0
   15.0387   -8.2833   10.5507 C   0  0  0  0  0  0  0  0  0  0  0  0
   16.4991   -8.0417   10.1042 C   0  0  0  0  0  0  0  0  0  0  0  0
   16.6716   -6.7237    9.5673 O   0  0  0  0  0  0  0  0  0  0  0  0
   17.4951   -8.2700   11.2588 C   0  0  0  0  0  0  0  0  0  0  0  0
   18.8335   -8.2007   10.7907 O   0  0  0  0  0  0  0  0  0  0  0  0
   17.3025   -9.5209   11.8907 O   0  0  0  0  0  0  0  0  0  0  0  0
   16.0114   -9.6084   12.4985 C   0  0  0  0  0  0  0  0  0  0  0  0
   14.9230   -9.5694   11.4117 C   0  0  0  0  0  0  0  0  0  0  0  0
   13.6289   -9.6873   12.0241 O   0  0  0  0  0  0  0  0  0  0  0  0
   16.6658   -6.0805   10.3101 H   0  0  0  0  0  0  0  0  0  0  0  0
   18.8584   -8.6338    9.9221 H   0  0  0  0  0  0  0  0  0  0  0  0
   13.1906   -8.8161   11.9945 H   0  0  0  0  0  0  0  0  0  0  0  0
   15.9546  -10.8930   13.3401 C   0  0  0  0  0  0  0  0  0  0  0  0
   17.2125  -11.2211   13.9191 O   0  0  0  0  0  0  0  0  0  0  0  0
   17.5334  -10.4094   14.3673 H   0  0  0  0  0  0  0  0  0  0  0  0
 14 15  1  0
 14 16  1  0
  2  3  1  0
  2  9  1  0
  2 15  1  0
  3  4  1  0
  4  5  1  0
  4  1  1  0
  1 17  1  0
 17 18  1  0
 17 24  1  0
 18 19  1  0
 18 20  1  0
 19 26  1  0
 20 22  1  0
 20 21  1  0
 21 27  1  0
 22 23  1  0
 23 24  1  0
 23 29  1  0
 29 30  1  0
 30 31  1  0
 24 25  1  0
 25 28  1  0
  5  6  1  0
  5  7  1  0
  6 11  1  0
  7  8  1  0
  7  9  1  0
  8 12  1  0
  9 10  1  0
 10 13  1  0
M  END
> <minimizedAffinity>
-4.35891

> <CNNscore>
0.9393498302

> <CNNaffinity>
3.3391323090

> <CNN_VS>
3.1366133690

> <CNNaffinity_variance>
0.2219260931

$$$$



 31 32  0  0  0  0  0  0  0  0999 V2000
   15.9156   -6.0994    9.5022 O   0  0  0  0  0  0  0  0  0  0  0  0
   12.3813   -6.9215    9.5724 C   0  0  0  0  0  0  0  0  0  0  0  0
   13.7402   -6.8266    9.1153 O   0  0  0  0  0  0  0  0  0  0  0  0
   14.5812   -6.1113   10.0148 C   0  0  0  0  0  0  0  0  0  0  0  0
   14.0907   -4.6496   10.1676 C   0  0  0  0  0  0  0  0  0  0  0  0
   14.8895   -3.9100   11.1044 O   0  0  0  0  0  0  0  0  0  0  0  0
   12.6205   -4.6610   10.6247 C   0  0  0  0  0  0  0  0  0  0  0  0
   12.0709   -3.3412   10.7058 O   0  0  0  0  0  0  0  0  0  0  0  0
   11.7634   -5.5228    9.6892 C   0  0  0  0  0  0  0  0  0  0  0  0
   10.4179   -5.6197   10.1577 O   0  0  0  0  0  0  0  0  0  0  0  0
   14.7248   -4.2564   11.9979 H   0  0  0  0  0  0  0  0  0  0  0  0
   12.2485   -2.8818    9.8645 H   0  0  0  0  0  0  0  0  0  0  0  0
   10.3651   -5.2136   11.0431 H   0  0  0  0  0  0  0  0  0  0  0  0
   10.7036   -6.9472    7.8205 O   0  0  0  0  0  0  0  0  0  0  0  0
   11.5925   -7.7774    8.5721 C   0  0  0  0  0  0  0  0  0  0  0  0
   10.2001   -7.5425    7.2383 H   0  0  0  0  0  0  0  0  0  0  0  0
   16.7519   -7.2035    9.9132 C   0  0  0  0  0  0  0  0  0  0  0  0
   18.0389   -6.7267   10.6252 C   0  0  0  0  0  0  0  0  0  0  0  0
   17.7612   -6.2580   11.9512 O   0  0  0  0  0  0  0  0  0  0  0  0
   19.1084   -7.8359   10.6763 C   0  0  0  0  0  0  0  0  0  0  0  0
   20.3332   -7.3318   11.1872 O   0  0  0  0  0  0  0  0  0  0  0  0
   19.3503   -8.4036    9.4034 O   0  0  0  0  0  0  0  0  0  0  0  0
   18.1826   -9.0448    8.8844 C   0  0  0  0  0  0  0  0  0  0  0  0
   17.0885   -7.9955    8.6216 C   0  0  0  0  0  0  0  0  0  0  0  0
   15.9277   -8.6398    8.0727 O   0  0  0  0  0  0  0  0  0  0  0  0
   17.5869   -7.0349   12.5270 H   0  0  0  0  0  0  0  0  0  0  0  0
   20.4532   -6.4403   10.8218 H   0  0  0  0  0  0  0  0  0  0  0  0
   15.2358   -8.6715    8.7598 H   0  0  0  0  0  0  0  0  0  0  0  0
   18.5737   -9.8158    7.6138 C   0  0  0  0  0  0  0  0  0  0  0  0
   19.5470  -10.8230    7.8654 O   0  0  0  0  0  0  0  0  0  0  0  0
   19.2123  -11.3516    8.6214 H   0  0  0  0  0  0  0  0  0  0  0  0
 14 15  1  0
 14 16  1  0
  2  3  1  0
  2  9  1  0
  2 15  1  0
  3  4  1  0
  4  5  1  0
  4  1  1  0
  1 17  1  0
 17 18  1  0
 17 24  1  0
 18 19  1  0
 18 20  1  0
 19 26  1  0
 20 22  1  0
 20 21  1  0
 21 27  1  0
 22 23  1  0
 23 24  1  0
 23 29  1  0
 29 30  1  0
 30 31  1  0
 24 25  1  0
 25 28  1  0
  5  6  1  0
  5  7  1  0
  6 11  1  0
  7  8  1  0
  7  9  1  0
  8 12  1  0
  9 10  1  0
 10 13  1  0
M  END
> <minimizedAffinity>
-4.32112

> <CNNscore>
0.9235597849

> <CNNaffinity>
3.3287198544

> <CNN_VS>
3.0742716789

> <CNNaffinity_variance>
0.3163052499

$$$$



 31 32  0  0  0  0  0  0  0  0999 V2000
   13.0381   -8.1949    8.4183 O   0  0  0  0  0  0  0  0  0  0  0  0
   14.6009  -11.4608    8.6704 C   0  0  0  0  0  0  0  0  0  0  0  0
   14.3710  -10.0965    8.2828 O   0  0  0  0  0  0  0  0  0  0  0  0
   13.1663   -9.5606    8.8208 C   0  0  0  0  0  0  0  0  0  0  0  0
   11.9413  -10.3532    8.2995 C   0  0  0  0  0  0  0  0  0  0  0  0
   10.7103   -9.8686    8.8586 O   0  0  0  0  0  0  0  0  0  0  0  0
   12.1253  -11.8421    8.6454 C   0  0  0  0  0  0  0  0  0  0  0  0
   11.0690  -12.6526    8.1184 O   0  0  0  0  0  0  0  0  0  0  0  0
   13.4775  -12.3587    8.1379 C   0  0  0  0  0  0  0  0  0  0  0  0
   13.7011  -13.7114    8.5372 O   0  0  0  0  0  0  0  0  0  0  0  0
   10.6876  -10.0911    9.8048 H   0  0  0  0  0  0  0  0  0  0  0  0
   10.9680  -12.4482    7.1706 H   0  0  0  0  0  0  0  0  0  0  0  0
   12.9936  -13.9762    9.1544 H   0  0  0  0  0  0  0  0  0  0  0  0
   16.9456  -10.9077    8.3848 O   0  0  0  0  0  0  0  0  0  0  0  0
   15.9576  -11.9028    8.1052 C   0  0  0  0  0  0  0  0  0  0  0  0
   17.7692  -11.2157    7.9683 H   0  0  0  0  0  0  0  0  0  0  0  0
   12.9033   -7.2378    9.4921 C   0  0  0  0  0  0  0  0  0  0  0  0
   11.6266   -6.3775    9.3495 C   0  0  0  0  0  0  0  0  0  0  0  0
   10.4500   -7.1272    9.6794 O   0  0  0  0  0  0  0  0  0  0  0  0
   11.6952   -5.1045   10.2165 C   0  0  0  0  0  0  0  0  0  0  0  0
   10.5907   -4.2534    9.9503 O   0  0  0  0  0  0  0  0  0  0  0  0
   12.8884   -4.3756   10.0016 O   0  0  0  0  0  0  0  0  0  0  0  0
   14.0413   -5.1346   10.3740 C   0  0  0  0  0  0  0  0  0  0  0  0
   14.1795   -6.3556    9.4481 C   0  0  0  0  0  0  0  0  0  0  0  0
   15.3551   -7.0991    9.8068 O   0  0  0  0  0  0  0  0  0  0  0  0
   10.4124   -7.2360   10.6552 H   0  0  0  0  0  0  0  0  0  0  0  0
   10.4269   -4.2837    8.9938 H   0  0  0  0  0  0  0  0  0  0  0  0
   15.0788   -7.9183   10.2590 H   0  0  0  0  0  0  0  0  0  0  0  0
   15.2703   -4.2137   10.3184 C   0  0  0  0  0  0  0  0  0  0  0  0
   15.2880   -3.2641   11.3781 O   0  0  0  0  0  0  0  0  0  0  0  0
   15.1477   -3.7692   12.2076 H   0  0  0  0  0  0  0  0  0  0  0  0
 14 15  1  0
 14 16  1  0
  2  3  1  0
  2  9  1  0
  2 15  1  0
  3  4  1  0
  4  5  1  0
  4  1  1  0
  1 17  1  0
 17 18  1  0
 17 24  1  0
 18 19  1  0
 18 20  1  0
 19 26  1  0
 20 22  1  0
 20 21  1  0
 21 27  1  0
 22 23  1  0
 23 24  1  0
 23 29  1  0
 29 30  1  0
 30 31  1  0
 24 25  1  0
 25 28  1  0
  5  6  1  0
  5  7  1  0
  6 11  1  0
  7  8  1  0
  7  9  1  0
  8 12  1  0
  9 10  1  0
 10 13  1  0
M  END
> <minimizedAffinity>
-4.50926

> <CNNscore>
0.9203224182

> <CNNaffinity>
3.1855199337

> <CNN_VS>
2.9317054749

> <CNNaffinity_variance>
0.3318774104

$$$$



 31 32  0  0  0  0  0  0  0  0999 V2000
   15.3981   -6.8517   10.1067 O   0  0  0  0  0  0  0  0  0  0  0  0
   17.4355   -8.4019    7.5342 C   0  0  0  0  0  0  0  0  0  0  0  0
   16.3810   -8.2050    8.4900 O   0  0  0  0  0  0  0  0  0  0  0  0
   16.5042   -6.9829    9.2107 C   0  0  0  0  0  0  0  0  0  0  0  0
   17.8179   -6.9692   10.0320 C   0  0  0  0  0  0  0  0  0  0  0  0
   17.9981   -5.7308   10.7367 O   0  0  0  0  0  0  0  0  0  0  0  0
   19.0044   -7.2100    9.0809 C   0  0  0  0  0  0  0  0  0  0  0  0
   20.2495   -7.2958    9.7831 O   0  0  0  0  0  0  0  0  0  0  0  0
   18.7899   -8.4809    8.2493 C   0  0  0  0  0  0  0  0  0  0  0  0
   19.8372   -8.6618    7.2955 O   0  0  0  0  0  0  0  0  0  0  0  0
   18.1747   -5.0261   10.0905 H   0  0  0  0  0  0  0  0  0  0  0  0
   20.1505   -7.9409   10.5072 H   0  0  0  0  0  0  0  0  0  0  0  0
   20.4024   -7.8667    7.2971 H   0  0  0  0  0  0  0  0  0  0  0  0
   16.0137   -9.5268    5.9224 O   0  0  0  0  0  0  0  0  0  0  0  0
   17.1558   -9.7002    6.7650 C   0  0  0  0  0  0  0  0  0  0  0  0
   15.8555  -10.3869    5.4959 H   0  0  0  0  0  0  0  0  0  0  0  0
   14.2299   -6.1971    9.5643 C   0  0  0  0  0  0  0  0  0  0  0  0
   13.8343   -4.9428   10.3772 C   0  0  0  0  0  0  0  0  0  0  0  0
   14.7337   -3.8539   10.1314 O   0  0  0  0  0  0  0  0  0  0  0  0
   12.3869   -4.5021   10.0803 C   0  0  0  0  0  0  0  0  0  0  0  0
   11.9914   -3.4522   10.9501 O   0  0  0  0  0  0  0  0  0  0  0  0
   11.4664   -5.5681   10.2122 O   0  0  0  0  0  0  0  0  0  0  0  0
   11.7321   -6.6104    9.2704 C   0  0  0  0  0  0  0  0  0  0  0  0
   13.0943   -7.2549    9.5809 C   0  0  0  0  0  0  0  0  0  0  0  0
   13.3440   -8.3208    8.6508 O   0  0  0  0  0  0  0  0  0  0  0  0
   14.5417   -3.4849    9.2413 H   0  0  0  0  0  0  0  0  0  0  0  0
   12.3588   -3.6498   11.8267 H   0  0  0  0  0  0  0  0  0  0  0  0
   14.0259   -8.0274    8.0177 H   0  0  0  0  0  0  0  0  0  0  0  0
   10.5775   -7.6232    9.3252 C   0  0  0  0  0  0  0  0  0  0  0  0
    9.3688   -7.0460    9.8058 O   0  0  0  0  0  0  0  0  0  0  0  0
    9.2209   -6.2306    9.2802 H   0  0  0  0  0  0  0  0  0  0  0  0
 14 15  1  0
 14 16  1  0
  2  3  1  0
  2  9  1  0
  2 15  1  0
  3  4  1  0
  4  5  1  0
  4  1  1  0
  1 17  1  0
 17 18  1  0
 17 24  1  0
 18 19  1  0
 18 20  1  0
 19 26  1  0
 20 22  1  0
 20 21  1  0
 21 27  1  0
 22 23  1  0
 23 24  1  0
 23 29  1  0
 29 30  1  0
 30 31  1  0
 24 25  1  0
 25 28  1  0
  5  6  1  0
  5  7  1  0
  6 11  1  0
  7  8  1  0
  7  9  1  0
  8 12  1  0
  9 10  1  0
 10 13  1  0
M  END
> <minimizedAffinity>
-4.54839

> <CNNscore>
0.9163305759

> <CNNaffinity>
3.4656245708

> <CNN_VS>
3.1756577492

> <CNNaffinity_variance>
0.2523556948

$$$$



 31 32  0  0  0  0  0  0  0  0999 V2000
   15.2515   -4.7914   10.0763 O   0  0  0  0  0  0  0  0  0  0  0  0
   12.6524   -7.2968    9.7029 C   0  0  0  0  0  0  0  0  0  0  0  0
   13.8718   -6.5687    9.4857 O   0  0  0  0  0  0  0  0  0  0  0  0
   13.9985   -5.4302   10.3318 C   0  0  0  0  0  0  0  0  0  0  0  0
   12.8563   -4.4206   10.0551 C   0  0  0  0  0  0  0  0  0  0  0  0
   12.9260   -3.2791   10.9239 O   0  0  0  0  0  0  0  0  0  0  0  0
   11.5040   -5.1347   10.2332 C   0  0  0  0  0  0  0  0  0  0  0  0
   10.3984   -4.2841    9.9098 O   0  0  0  0  0  0  0  0  0  0  0  0
   11.4426   -6.4101    9.3833 C   0  0  0  0  0  0  0  0  0  0  0  0
   10.2322   -7.1318    9.6143 O   0  0  0  0  0  0  0  0  0  0  0  0
   12.7103   -3.5613   11.8290 H   0  0  0  0  0  0  0  0  0  0  0  0
   10.5576   -3.8934    9.0310 H   0  0  0  0  0  0  0  0  0  0  0  0
    9.7579   -6.7167   10.3588 H   0  0  0  0  0  0  0  0  0  0  0  0
   11.8285   -8.3173    7.6622 O   0  0  0  0  0  0  0  0  0  0  0  0
   12.6630   -8.5391    8.8018 C   0  0  0  0  0  0  0  0  0  0  0  0
   11.8359   -9.1461    7.1525 H   0  0  0  0  0  0  0  0  0  0  0  0
   16.3965   -5.3775   10.7343 C   0  0  0  0  0  0  0  0  0  0  0  0
   17.1253   -4.3653   11.6480 C   0  0  0  0  0  0  0  0  0  0  0  0
   16.3839   -4.1157   12.8494 O   0  0  0  0  0  0  0  0  0  0  0  0
   18.5499   -4.8369   12.0016 C   0  0  0  0  0  0  0  0  0  0  0  0
   19.2556   -3.8254   12.7044 O   0  0  0  0  0  0  0  0  0  0  0  0
   19.2954   -5.1920   10.8530 O   0  0  0  0  0  0  0  0  0  0  0  0
   18.7043   -6.2970   10.1648 C   0  0  0  0  0  0  0  0  0  0  0  0
   17.3320   -5.8848    9.6045 C   0  0  0  0  0  0  0  0  0  0  0  0
   16.7547   -6.9885    8.8888 O   0  0  0  0  0  0  0  0  0  0  0  0
   16.4739   -4.8959   13.4398 H   0  0  0  0  0  0  0  0  0  0  0  0
   19.0206   -2.9749   12.2993 H   0  0  0  0  0  0  0  0  0  0  0  0
   16.0287   -7.3604    9.4240 H   0  0  0  0  0  0  0  0  0  0  0  0
   19.6722   -6.7605    9.0647 C   0  0  0  0  0  0  0  0  0  0  0  0
   19.3098   -6.2714    7.7785 O   0  0  0  0  0  0  0  0  0  0  0  0
   19.1766   -5.3040    7.8753 H   0  0  0  0  0  0  0  0  0  0  0  0
 14 15  1  0
 14 16  1  0
  2  3  1  0
  2  9  1  0
  2 15  1  0
  3  4  1  0
  4  5  1  0
  4  1  1  0
  1 17  1  0
 17 18  1  0
 17 24  1  0
 18 19  1  0
 18 20  1  0
 19 26  1  0
 20 22  1  0
 20 21  1  0
 21 27  1  0
 22 23  1  0
 23 24  1  0
 23 29  1  0
 29 30  1  0
 30 31  1  0
 24 25  1  0
 25 28  1  0
  5  6  1  0
  5  7  1  0
  6 11  1  0
  7  8  1  0
  7  9  1  0
  8 12  1  0
  9 10  1  0
 10 13  1  0
M  END
> <minimizedAffinity>
-4.40347

> <CNNscore>
0.9146321416

> <CNNaffinity>
3.2070105076

> <CNN_VS>
2.9332349300

> <CNNaffinity_variance>
0.2989242375

$$$$



 31 32  0  0  0  0  0  0  0  0999 V2000
   11.7618   -8.5449    8.3392 O   0  0  0  0  0  0  0  0  0  0  0  0
   11.9373  -12.1392    7.8676 C   0  0  0  0  0  0  0  0  0  0  0  0
   11.9206  -10.7340    7.5685 O   0  0  0  0  0  0  0  0  0  0  0  0
   11.7261   -9.9218    8.7220 C   0  0  0  0  0  0  0  0  0  0  0  0
   10.3529  -10.2251    9.3722 C   0  0  0  0  0  0  0  0  0  0  0  0
   10.1422   -9.4557   10.5665 O   0  0  0  0  0  0  0  0  0  0  0  0
   10.2738  -11.7284    9.6948 C   0  0  0  0  0  0  0  0  0  0  0  0
    8.9954  -12.1002   10.2220 O   0  0  0  0  0  0  0  0  0  0  0  0
   10.5874  -12.5719    8.4526 C   0  0  0  0  0  0  0  0  0  0  0  0
   10.6123  -13.9656    8.7625 O   0  0  0  0  0  0  0  0  0  0  0  0
   10.7494   -9.7751   11.2555 H   0  0  0  0  0  0  0  0  0  0  0  0
    8.3052  -11.7594    9.6241 H   0  0  0  0  0  0  0  0  0  0  0  0
   10.5442  -14.0722    9.7297 H   0  0  0  0  0  0  0  0  0  0  0  0
   12.2919  -11.9949    5.4722 O   0  0  0  0  0  0  0  0  0  0  0  0
   12.2341  -12.9066    6.5721 C   0  0  0  0  0  0  0  0  0  0  0  0
   12.4364  -12.5357    4.6762 H   0  0  0  0  0  0  0  0  0  0  0  0
   12.0268   -7.6072    9.4059 C   0  0  0  0  0  0  0  0  0  0  0  0
   11.0571   -6.4032    9.3780 C   0  0  0  0  0  0  0  0  0  0  0  0
    9.7498   -6.7726    9.8356 O   0  0  0  0  0  0  0  0  0  0  0  0
   11.5887   -5.2216   10.2137 C   0  0  0  0  0  0  0  0  0  0  0  0
   10.7674   -4.0759   10.0457 O   0  0  0  0  0  0  0  0  0  0  0  0
   12.9172   -4.8787    9.8691 O   0  0  0  0  0  0  0  0  0  0  0  0
   13.8224   -5.9525   10.1365 C   0  0  0  0  0  0  0  0  0  0  0  0
   13.4968   -7.1453    9.2207 C   0  0  0  0  0  0  0  0  0  0  0  0
   14.4269   -8.2109    9.4718 O   0  0  0  0  0  0  0  0  0  0  0  0
    9.7792   -6.8797   10.8119 H   0  0  0  0  0  0  0  0  0  0  0  0
   10.5072   -4.0418    9.1110 H   0  0  0  0  0  0  0  0  0  0  0  0
   13.9656   -8.9169    9.9622 H   0  0  0  0  0  0  0  0  0  0  0  0
   15.2581   -5.4394    9.9439 C   0  0  0  0  0  0  0  0  0  0  0  0
   15.3410   -4.0197    9.9959 O   0  0  0  0  0  0  0  0  0  0  0  0
   14.8757   -3.7430   10.8143 H   0  0  0  0  0  0  0  0  0  0  0  0
 14 15  1  0
 14 16  1  0
  2  3  1  0
  2  9  1  0
  2 15  1  0
  3  4  1  0
  4  5  1  0
  4  1  1  0
  1 17  1  0
 17 18  1  0
 17 24  1  0
 18 19  1  0
 18 20  1  0
 19 26  1  0
 20 22  1  0
 20 21  1  0
 21 27  1  0
 22 23  1  0
 23 24  1  0
 23 29  1  0
 29 30  1  0
 30 31  1  0
 24 25  1  0
 25 28  1  0
  5  6  1  0
  5  7  1  0
  6 11  1  0
  7  8  1  0
  7  9  1  0
  8 12  1  0
  9 10  1  0
 10 13  1  0
M  END
> <minimizedAffinity>
-6.01007

> <CNNscore>
0.9089794159

> <CNNaffinity>
3.3948876858

> <CNN_VS>
3.0858831406

> <CNNaffinity_variance>
0.2796430886

$$$$



 31 32  0  0  0  0  0  0  0  0999 V2000
   14.1627   -8.4595    9.4770 O   0  0  0  0  0  0  0  0  0  0  0  0
   12.7810   -5.1182    9.7909 C   0  0  0  0  0  0  0  0  0  0  0  0
   13.6082   -6.2687   10.0284 O   0  0  0  0  0  0  0  0  0  0  0  0
   13.2690   -7.3781    9.2024 C   0  0  0  0  0  0  0  0  0  0  0  0
   11.8188   -7.8423    9.4885 C   0  0  0  0  0  0  0  0  0  0  0  0
   11.4262   -8.9321    8.6395 O   0  0  0  0  0  0  0  0  0  0  0  0
   10.8643   -6.6508    9.2893 C   0  0  0  0  0  0  0  0  0  0  0  0
    9.5111   -6.9831    9.6196 O   0  0  0  0  0  0  0  0  0  0  0  0
   11.3180   -5.4419   10.1172 C   0  0  0  0  0  0  0  0  0  0  0  0
   10.4965   -4.3012    9.8661 O   0  0  0  0  0  0  0  0  0  0  0  0
   11.3407   -8.6037    7.7283 H   0  0  0  0  0  0  0  0  0  0  0  0
    9.5015   -7.3888   10.5059 H   0  0  0  0  0  0  0  0  0  0  0  0
    9.8954   -4.5056    9.1255 H   0  0  0  0  0  0  0  0  0  0  0  0
   12.3579   -3.7224   11.7293 O   0  0  0  0  0  0  0  0  0  0  0  0
   13.2876   -3.9675   10.6710 C   0  0  0  0  0  0  0  0  0  0  0  0
   12.7032   -2.9600   12.2255 H   0  0  0  0  0  0  0  0  0  0  0  0
   15.2480   -8.1580   10.3818 C   0  0  0  0  0  0  0  0  0  0  0  0
   14.7407   -7.6759   11.7605 C   0  0  0  0  0  0  0  0  0  0  0  0
   14.2100   -8.7611   12.5324 O   0  0  0  0  0  0  0  0  0  0  0  0
   15.8484   -6.9596   12.5587 C   0  0  0  0  0  0  0  0  0  0  0  0
   15.3232   -6.3865   13.7465 O   0  0  0  0  0  0  0  0  0  0  0  0
   16.4755   -5.9400   11.8049 O   0  0  0  0  0  0  0  0  0  0  0  0
   17.1381   -6.4701   10.6543 C   0  0  0  0  0  0  0  0  0  0  0  0
   16.1002   -7.0635    9.6858 C   0  0  0  0  0  0  0  0  0  0  0  0
   16.7673   -7.5685    8.5180 O   0  0  0  0  0  0  0  0  0  0  0  0
   14.9588   -9.3042   12.8638 H   0  0  0  0  0  0  0  0  0  0  0  0
   14.4500   -6.0216   13.5293 H   0  0  0  0  0  0  0  0  0  0  0  0
   16.7655   -8.5433    8.5563 H   0  0  0  0  0  0  0  0  0  0  0  0
   17.9685   -5.3490   10.0099 C   0  0  0  0  0  0  0  0  0  0  0  0
   18.4842   -4.4328   10.9690 O   0  0  0  0  0  0  0  0  0  0  0  0
   18.9250   -4.9717   11.6605 H   0  0  0  0  0  0  0  0  0  0  0  0
 14 15  1  0
 14 16  1  0
  2  3  1  0
  2  9  1  0
  2 15  1  0
  3  4  1  0
  4  5  1  0
  4  1  1  0
  1 17  1  0
 17 18  1  0
 17 24  1  0
 18 19  1  0
 18 20  1  0
 19 26  1  0
 20 22  1  0
 20 21  1  0
 21 27  1  0
 22 23  1  0
 23 24  1  0
 23 29  1  0
 29 30  1  0
 30 31  1  0
 24 25  1  0
 25 28  1  0
  5  6  1  0
  5  7  1  0
  6 11  1  0
  7  8  1  0
  7  9  1  0
  8 12  1  0
  9 10  1  0
 10 13  1  0
M  END
> <minimizedAffinity>
-4.66057

> <CNNscore>
0.9063707590

> <CNNaffinity>
3.0922439098

> <CNN_VS>
2.8027193546

> <CNNaffinity_variance>
0.4706513584

$$$$



 31 32  0  0  0  0  0  0  0  0999 V2000
   13.4028   -4.5132    9.8690 O   0  0  0  0  0  0  0  0  0  0  0  0
   13.4030   -8.0728    9.1609 C   0  0  0  0  0  0  0  0  0  0  0  0
   13.7673   -6.6836    9.1157 O   0  0  0  0  0  0  0  0  0  0  0  0
   12.9473   -5.8661    9.9448 C   0  0  0  0  0  0  0  0  0  0  0  0
   11.4725   -5.9250    9.4738 C   0  0  0  0  0  0  0  0  0  0  0  0
   10.6079   -5.1472   10.3166 O   0  0  0  0  0  0  0  0  0  0  0  0
   11.0106   -7.3936    9.4598 C   0  0  0  0  0  0  0  0  0  0  0  0
    9.6792   -7.5352    8.9519 O   0  0  0  0  0  0  0  0  0  0  0  0
   11.9731   -8.2621    8.6401 C   0  0  0  0  0  0  0  0  0  0  0  0
   11.6089   -9.6416    8.7001 O   0  0  0  0  0  0  0  0  0  0  0  0
   10.5440   -5.5810   11.1844 H   0  0  0  0  0  0  0  0  0  0  0  0
    9.6239   -7.0665    8.0990 H   0  0  0  0  0  0  0  0  0  0  0  0
   10.8927   -9.7478    9.3537 H   0  0  0  0  0  0  0  0  0  0  0  0
   14.4741  -10.2131    8.7650 O   0  0  0  0  0  0  0  0  0  0  0  0
   14.3988   -8.8628    8.3008 C   0  0  0  0  0  0  0  0  0  0  0  0
   15.1476  -10.6531    8.2177 H   0  0  0  0  0  0  0  0  0  0  0  0
   14.0788   -4.0153   11.0447 C   0  0  0  0  0  0  0  0  0  0  0  0
   13.3311   -2.8240   11.6867 C   0  0  0  0  0  0  0  0  0  0  0  0
   12.1500   -3.2560   12.3747 O   0  0  0  0  0  0  0  0  0  0  0  0
   14.2375   -2.0327   12.6508 C   0  0  0  0  0  0  0  0  0  0  0  0
   13.5853   -0.8560   13.1038 O   0  0  0  0  0  0  0  0  0  0  0  0
   15.4644   -1.6656   12.0500 O   0  0  0  0  0  0  0  0  0  0  0  0
   16.2337   -2.8138   11.6840 C   0  0  0  0  0  0  0  0  0  0  0  0
   15.5008   -3.5992   10.5826 C   0  0  0  0  0  0  0  0  0  0  0  0
   16.2907   -4.7354   10.1969 O   0  0  0  0  0  0  0  0  0  0  0  0
   12.4188   -3.6937   13.2123 H   0  0  0  0  0  0  0  0  0  0  0  0
   13.0965   -0.4884   12.3498 H   0  0  0  0  0  0  0  0  0  0  0  0
   15.8729   -5.5406   10.5560 H   0  0  0  0  0  0  0  0  0  0  0  0
   17.6288   -2.3452   11.2414 C   0  0  0  0  0  0  0  0  0  0  0  0
   17.9206   -1.0205   11.6717 O   0  0  0  0  0  0  0  0  0  0  0  0
   17.7252   -0.9901   12.6328 H   0  0  0  0  0  0  0  0  0  0  0  0
 14 15  1  0
 14 16  1  0
  2  3  1  0
  2  9  1  0
  2 15  1  0
  3  4  1  0
  4  5  1  0
  4  1  1  0
  1 17  1  0
 17 18  1  0
 17 24  1  0
 18 19  1  0
 18 20  1  0
 19 26  1  0
 20 22  1  0
 20 21  1  0
 21 27  1  0
 22 23  1  0
 23 24  1  0
 23 29  1  0
 29 30  1  0
 30 31  1  0
 24 25  1  0
 25 28  1  0
  5  6  1  0
  5  7  1  0
  6 11  1  0
  7  8  1  0
  7  9  1  0
  8 12  1  0
  9 10  1  0
 10 13  1  0
M  END
> <minimizedAffinity>
-4.60861

> <CNNscore>
0.8890175819

> <CNNaffinity>
3.2660405636

> <CNN_VS>
2.9035675526

> <CNNaffinity_variance>
0.2572720349

$$$$



 31 32  0  0  0  0  0  0  0  0999 V2000
   11.1616   -8.0717    9.2354 O   0  0  0  0  0  0  0  0  0  0  0  0
   14.3532   -6.3559    9.4405 C   0  0  0  0  0  0  0  0  0  0  0  0
   13.3593   -7.3856    9.5682 O   0  0  0  0  0  0  0  0  0  0  0  0
   12.0744   -6.9789    9.1079 C   0  0  0  0  0  0  0  0  0  0  0  0
   11.5503   -5.7882    9.9492 C   0  0  0  0  0  0  0  0  0  0  0  0
   10.2747   -5.3211    9.4828 O   0  0  0  0  0  0  0  0  0  0  0  0
   12.5804   -4.6453    9.8939 C   0  0  0  0  0  0  0  0  0  0  0  0
   12.2029   -3.5387   10.7205 O   0  0  0  0  0  0  0  0  0  0  0  0
   13.9731   -5.1440   10.2998 C   0  0  0  0  0  0  0  0  0  0  0  0
   14.9551   -4.1168   10.1592 O   0  0  0  0  0  0  0  0  0  0  0  0
   10.3944   -4.8984    8.6154 H   0  0  0  0  0  0  0  0  0  0  0  0
   11.9939   -3.8767   11.6106 H   0  0  0  0  0  0  0  0  0  0  0  0
   14.5450   -3.3506    9.7162 H   0  0  0  0  0  0  0  0  0  0  0  0
   16.7672   -6.2222    9.2415 O   0  0  0  0  0  0  0  0  0  0  0  0
   15.7051   -6.9298    9.8862 C   0  0  0  0  0  0  0  0  0  0  0  0
   17.5930   -6.6531    9.5228 H   0  0  0  0  0  0  0  0  0  0  0  0
   11.7250   -9.2989    9.7492 C   0  0  0  0  0  0  0  0  0  0  0  0
   11.2617  -10.5350    8.9444 C   0  0  0  0  0  0  0  0  0  0  0  0
   11.9121  -10.6037    7.6687 O   0  0  0  0  0  0  0  0  0  0  0  0
   11.4975  -11.8450    9.7224 C   0  0  0  0  0  0  0  0  0  0  0  0
   10.9218  -12.9478    9.0385 O   0  0  0  0  0  0  0  0  0  0  0  0
   10.9594  -11.7941   11.0296 O   0  0  0  0  0  0  0  0  0  0  0  0
   11.5903  -10.7817   11.8177 C   0  0  0  0  0  0  0  0  0  0  0  0
   11.2734   -9.3952   11.2309 C   0  0  0  0  0  0  0  0  0  0  0  0
   11.8846   -8.3796   12.0424 O   0  0  0  0  0  0  0  0  0  0  0  0
   12.8410  -10.8925    7.8069 H   0  0  0  0  0  0  0  0  0  0  0  0
   10.0753  -12.6484    8.6693 H   0  0  0  0  0  0  0  0  0  0  0  0
   12.6514   -8.0165   11.5606 H   0  0  0  0  0  0  0  0  0  0  0  0
   11.1129  -10.9270   13.2712 C   0  0  0  0  0  0  0  0  0  0  0  0
   10.2217   -9.8873   13.6585 O   0  0  0  0  0  0  0  0  0  0  0  0
    9.5289   -9.8412   12.9651 H   0  0  0  0  0  0  0  0  0  0  0  0
 14 15  1  0
 14 16  1  0
  2  3  1  0
  2  9  1  0
  2 15  1  0
  3  4  1  0
  4  5  1  0
  4  1  1  0
  1 17  1  0
 17 18  1  0
 17 24  1  0
 18 19  1  0
 18 20  1  0
 19 26  1  0
 20 22  1  0
 20 21  1  0
 21 27  1  0
 22 23  1  0
 23 24  1  0
 23 29  1  0
 29 30  1  0
 30 31  1  0
 24 25  1  0
 25 28  1  0
  5  6  1  0
  5  7  1  0
  6 11  1  0
  7  8  1  0
  7  9  1  0
  8 12  1  0
  9 10  1  0
 10 13  1  0
M  END
> <minimizedAffinity>
-4.95496

> <CNNscore>
0.8819599152

> <CNNaffinity>
3.0410423279

> <CNN_VS>
2.6820774078

> <CNNaffinity_variance>
0.4527963698

$$$$



 31 32  0  0  0  0  0  0  0  0999 V2000
   15.2702   -7.2541   10.6881 O   0  0  0  0  0  0  0  0  0  0  0  0
   11.7464   -6.5549   10.1728 C   0  0  0  0  0  0  0  0  0  0  0  0
   13.0413   -7.1605   10.0290 O   0  0  0  0  0  0  0  0  0  0  0  0
   14.0289   -6.5680   10.8668 C   0  0  0  0  0  0  0  0  0  0  0  0
   14.2246   -5.0755   10.5003 C   0  0  0  0  0  0  0  0  0  0  0  0
   15.1819   -4.4330   11.3568 O   0  0  0  0  0  0  0  0  0  0  0  0
   12.8673   -4.3552   10.5960 C   0  0  0  0  0  0  0  0  0  0  0  0
   12.9538   -2.9854   10.1875 O   0  0  0  0  0  0  0  0  0  0  0  0
   11.8037   -5.0789    9.7607 C   0  0  0  0  0  0  0  0  0  0  0  0
   10.5187   -4.4762    9.9188 O   0  0  0  0  0  0  0  0  0  0  0  0
   14.8026   -4.3579   12.2489 H   0  0  0  0  0  0  0  0  0  0  0  0
   13.3900   -2.9512    9.3165 H   0  0  0  0  0  0  0  0  0  0  0  0
   10.5730   -3.8046   10.6241 H   0  0  0  0  0  0  0  0  0  0  0  0
   10.5863   -6.6424    8.0441 O   0  0  0  0  0  0  0  0  0  0  0  0
   10.7521   -7.3224    9.2909 C   0  0  0  0  0  0  0  0  0  0  0  0
    9.9171   -7.1435    7.5463 H   0  0  0  0  0  0  0  0  0  0  0  0
   15.7451   -7.3408    9.3264 C   0  0  0  0  0  0  0  0  0  0  0  0
   15.5763   -8.7611    8.7393 C   0  0  0  0  0  0  0  0  0  0  0  0
   14.2048   -9.0402    8.4291 O   0  0  0  0  0  0  0  0  0  0  0  0
   16.4484   -8.9686    7.4850 C   0  0  0  0  0  0  0  0  0  0  0  0
   16.4022  -10.3215    7.0574 O   0  0  0  0  0  0  0  0  0  0  0  0
   17.7989   -8.6121    7.7085 O   0  0  0  0  0  0  0  0  0  0  0  0
   17.9303   -7.2229    8.0198 C   0  0  0  0  0  0  0  0  0  0  0  0
   17.2399   -6.9249    9.3622 C   0  0  0  0  0  0  0  0  0  0  0  0
   17.3996   -5.5343    9.6855 O   0  0  0  0  0  0  0  0  0  0  0  0
   13.9614   -8.5452    7.6160 H   0  0  0  0  0  0  0  0  0  0  0  0
   16.4079  -10.8764    7.8540 H   0  0  0  0  0  0  0  0  0  0  0  0
   16.5448   -5.0838    9.5505 H   0  0  0  0  0  0  0  0  0  0  0  0
   19.4250   -6.8661    8.0366 C   0  0  0  0  0  0  0  0  0  0  0  0
   19.6605   -5.4925    7.7489 O   0  0  0  0  0  0  0  0  0  0  0  0
   19.0737   -4.9783    8.3440 H   0  0  0  0  0  0  0  0  0  0  0  0
 14 15  1  0
 14 16  1  0
  2  3  1  0
  2  9  1  0
  2 15  1  0
  3  4  1  0
  4  5  1  0
  4  1  1  0
  1 17  1  0
 17 18  1  0
 17 24  1  0
 18 19  1  0
 18 20  1  0
 19 26  1  0
 20 22  1  0
 20 21  1  0
 21 27  1  0
 22 23  1  0
 23 24  1  0
 23 29  1  0
 29 30  1  0
 30 31  1  0
 24 25  1  0
 25 28  1  0
  5  6  1  0
  5  7  1  0
  6 11  1  0
  7  8  1  0
  7  9  1  0
  8 12  1  0
  9 10  1  0
 10 13  1  0
M  END
> <minimizedAffinity>
-4.38954

> <CNNscore>
0.8786101341

> <CNNaffinity>
3.4013602734

> <CNN_VS>
2.9884696007

> <CNNaffinity_variance>
0.2374147922

$$$$



 31 32  0  0  0  0  0  0  0  0999 V2000
   11.1780   -7.4597    8.6437 O   0  0  0  0  0  0  0  0  0  0  0  0
   14.3793   -6.0834    9.6583 C   0  0  0  0  0  0  0  0  0  0  0  0
   13.3417   -7.0396    9.3872 O   0  0  0  0  0  0  0  0  0  0  0  0
   12.1373   -6.4375    8.9239 C   0  0  0  0  0  0  0  0  0  0  0  0
   11.5570   -5.4886   10.0025 C   0  0  0  0  0  0  0  0  0  0  0  0
   10.3645   -4.8275    9.5512 O   0  0  0  0  0  0  0  0  0  0  0  0
   12.6257   -4.4460   10.3781 C   0  0  0  0  0  0  0  0  0  0  0  0
   12.1898   -3.5837   11.4349 O   0  0  0  0  0  0  0  0  0  0  0  0
   13.9405   -5.1288   10.7754 C   0  0  0  0  0  0  0  0  0  0  0  0
   14.9678   -4.1707   11.0322 O   0  0  0  0  0  0  0  0  0  0  0  0
   10.6033   -4.1934    8.8538 H   0  0  0  0  0  0  0  0  0  0  0  0
   11.8627   -4.1367   12.1681 H   0  0  0  0  0  0  0  0  0  0  0  0
   14.6415   -3.2870   10.7790 H   0  0  0  0  0  0  0  0  0  0  0  0
   15.6997   -6.9658   11.4922 O   0  0  0  0  0  0  0  0  0  0  0  0
   15.6462   -6.8466   10.0683 C   0  0  0  0  0  0  0  0  0  0  0  0
   16.5384   -7.4141   11.6976 H   0  0  0  0  0  0  0  0  0  0  0  0
   10.8368   -8.3171    9.7554 C   0  0  0  0  0  0  0  0  0  0  0  0
   11.4856   -9.7152    9.6340 C   0  0  0  0  0  0  0  0  0  0  0  0
   12.8900   -9.6676    9.9176 O   0  0  0  0  0  0  0  0  0  0  0  0
   10.8011  -10.7450   10.5549 C   0  0  0  0  0  0  0  0  0  0  0  0
   11.3030  -12.0505   10.3116 O   0  0  0  0  0  0  0  0  0  0  0  0
    9.3968  -10.7628   10.3854 O   0  0  0  0  0  0  0  0  0  0  0  0
    8.8097   -9.5082   10.7392 C   0  0  0  0  0  0  0  0  0  0  0  0
    9.2881   -8.4185    9.7642 C   0  0  0  0  0  0  0  0  0  0  0  0
    8.6730   -7.1659   10.1052 O   0  0  0  0  0  0  0  0  0  0  0  0
   13.0094   -9.5643   10.8874 H   0  0  0  0  0  0  0  0  0  0  0  0
   11.4283  -12.1375    9.3528 H   0  0  0  0  0  0  0  0  0  0  0  0
    9.3450   -6.5922   10.5189 H   0  0  0  0  0  0  0  0  0  0  0  0
    7.2811   -9.6674   10.7375 C   0  0  0  0  0  0  0  0  0  0  0  0
    6.6175   -8.5622   11.3404 O   0  0  0  0  0  0  0  0  0  0  0  0
    6.9813   -7.7545   10.9183 H   0  0  0  0  0  0  0  0  0  0  0  0
 14 15  1  0
 14 16  1  0
  2  3  1  0
  2  9  1  0
  2 15  1  0
  3  4  1  0
  4  5  1  0
  4  1  1  0
  1 17  1  0
 17 18  1  0
 17 24  1  0
 18 19  1  0
 18 20  1  0
 19 26  1  0
 20 22  1  0
 20 21  1  0
 21 27  1  0
 22 23  1  0
 23 24  1  0
 23 29  1  0
 29 30  1  0
 30 31  1  0
 24 25  1  0
 25 28  1  0
  5  6  1  0
  5  7  1  0
  6 11  1  0
  7  8  1  0
  7  9  1  0
  8 12  1  0
  9 10  1  0
 10 13  1  0
M  END
> <minimizedAffinity>
-5.25653

> <CNNscore>
0.8688486814

> <CNNaffinity>
2.9941673279

> <CNN_VS>
2.6014783382

> <CNNaffinity_variance>
0.6188351512

$$$$



 31 32  0  0  0  0  0  0  0  0999 V2000
   14.3938   -5.3195   10.6962 O   0  0  0  0  0  0  0  0  0  0  0  0
   11.8253   -7.2315    8.9877 C   0  0  0  0  0  0  0  0  0  0  0  0
   12.4755   -6.4258    9.9839 O   0  0  0  0  0  0  0  0  0  0  0  0
   13.8394   -6.1545    9.6768 C   0  0  0  0  0  0  0  0  0  0  0  0
   14.6519   -7.4720    9.6121 C   0  0  0  0  0  0  0  0  0  0  0  0
   16.0245   -7.2400    9.2587 O   0  0  0  0  0  0  0  0  0  0  0  0
   13.9968   -8.4133    8.5848 C   0  0  0  0  0  0  0  0  0  0  0  0
   14.6454   -9.6888    8.5318 O   0  0  0  0  0  0  0  0  0  0  0  0
   12.5054   -8.6025    8.8892 C   0  0  0  0  0  0  0  0  0  0  0  0
   11.8663   -9.3952    7.8881 O   0  0  0  0  0  0  0  0  0  0  0  0
   16.0641   -6.9506    8.3313 H   0  0  0  0  0  0  0  0  0  0  0  0
   14.7147  -10.0366    9.4399 H   0  0  0  0  0  0  0  0  0  0  0  0
   12.4958   -9.5439    7.1579 H   0  0  0  0  0  0  0  0  0  0  0  0
   10.1799   -8.5758   10.1583 O   0  0  0  0  0  0  0  0  0  0  0  0
   10.3497   -7.3889    9.3794 C   0  0  0  0  0  0  0  0  0  0  0  0
    9.2268   -8.6499   10.3395 H   0  0  0  0  0  0  0  0  0  0  0  0
   14.8396   -4.0159   10.2612 C   0  0  0  0  0  0  0  0  0  0  0  0
   16.3563   -3.8142   10.4837 C   0  0  0  0  0  0  0  0  0  0  0  0
   17.1289   -4.5540    9.5293 O   0  0  0  0  0  0  0  0  0  0  0  0
   16.7486   -2.3241   10.4312 C   0  0  0  0  0  0  0  0  0  0  0  0
   18.1094   -2.1483   10.7954 O   0  0  0  0  0  0  0  0  0  0  0  0
   15.9471   -1.5304   11.2848 O   0  0  0  0  0  0  0  0  0  0  0  0
   14.5727   -1.5611   10.8922 C   0  0  0  0  0  0  0  0  0  0  0  0
   14.0134   -2.9829   11.0730 C   0  0  0  0  0  0  0  0  0  0  0  0
   12.6248   -3.0027   10.7055 O   0  0  0  0  0  0  0  0  0  0  0  0
   17.0737   -4.0969    8.6612 H   0  0  0  0  0  0  0  0  0  0  0  0
   18.2945   -2.7612   11.5252 H   0  0  0  0  0  0  0  0  0  0  0  0
   12.5368   -3.4592    9.8477 H   0  0  0  0  0  0  0  0  0  0  0  0
   13.8054   -0.5188   11.7210 C   0  0  0  0  0  0  0  0  0  0  0  0
   13.1605   -1.0906   12.8533 O   0  0  0  0  0  0  0  0  0  0  0  0
   13.8398   -1.6203   13.3233 H   0  0  0  0  0  0  0  0  0  0  0  0
 14 15  1  0
 14 16  1  0
  2  3  1  0
  2  9  1  0
  2 15  1  0
  3  4  1  0
  4  5  1  0
  4  1  1  0
  1 17  1  0
 17 18  1  0
 17 24  1  0
 18 19  1  0
 18 20  1  0
 19 26  1  0
 20 22  1  0
 20 21  1  0
 21 27  1  0
 22 23  1  0
 23 24  1  0
 23 29  1  0
 29 30  1  0
 30 31  1  0
 24 25  1  0
 25 28  1  0
  5  6  1  0
  5  7  1  0
  6 11  1  0
  7  8  1  0
  7  9  1  0
  8 12  1  0
  9 10  1  0
 10 13  1  0
M  END
> <minimizedAffinity>
-4.25992

> <CNNscore>
0.8611884713

> <CNNaffinity>
3.0452253819

> <CNN_VS>
2.6225130558

> <CNNaffinity_variance>
0.4796858728

$$$$



 31 32  0  0  0  0  0  0  0  0999 V2000
   13.3765   -4.2278   10.7846 O   0  0  0  0  0  0  0  0  0  0  0  0
   15.3637   -5.4226   13.5766 C   0  0  0  0  0  0  0  0  0  0  0  0
   14.2486   -4.9078   12.8311 O   0  0  0  0  0  0  0  0  0  0  0  0
   14.5474   -4.7016   11.4541 C   0  0  0  0  0  0  0  0  0  0  0  0
   15.6741   -3.6499   11.2965 C   0  0  0  0  0  0  0  0  0  0  0  0
   16.0339   -3.4500    9.9206 O   0  0  0  0  0  0  0  0  0  0  0  0
   16.9040   -4.1110   12.0996 C   0  0  0  0  0  0  0  0  0  0  0  0
   17.9602   -3.1444   12.0707 O   0  0  0  0  0  0  0  0  0  0  0  0
   16.5240   -4.4201   13.5531 C   0  0  0  0  0  0  0  0  0  0  0  0
   17.6358   -4.9410   14.2824 O   0  0  0  0  0  0  0  0  0  0  0  0
   16.4789   -4.2505    9.5942 H   0  0  0  0  0  0  0  0  0  0  0  0
   17.5913   -2.2781   12.3228 H   0  0  0  0  0  0  0  0  0  0  0  0
   18.3696   -5.1027   13.6604 H   0  0  0  0  0  0  0  0  0  0  0  0
   14.8949   -7.0879   15.2772 O   0  0  0  0  0  0  0  0  0  0  0  0
   14.9046   -5.6818   15.0180 C   0  0  0  0  0  0  0  0  0  0  0  0
   14.5556   -7.1966   16.1826 H   0  0  0  0  0  0  0  0  0  0  0  0
   12.8004   -5.1341    9.8182 C   0  0  0  0  0  0  0  0  0  0  0  0
   11.3161   -5.4433   10.1213 C   0  0  0  0  0  0  0  0  0  0  0  0
   10.4719   -4.3319    9.7942 O   0  0  0  0  0  0  0  0  0  0  0  0
   10.8315   -6.7042    9.3780 C   0  0  0  0  0  0  0  0  0  0  0  0
    9.5215   -7.0611    9.7925 O   0  0  0  0  0  0  0  0  0  0  0  0
   11.6881   -7.8102    9.5879 O   0  0  0  0  0  0  0  0  0  0  0  0
   12.9991   -7.5635    9.0738 C   0  0  0  0  0  0  0  0  0  0  0  0
   13.6615   -6.4243    9.8678 C   0  0  0  0  0  0  0  0  0  0  0  0
   14.9892   -6.1995    9.3674 O   0  0  0  0  0  0  0  0  0  0  0  0
   10.3862   -4.2818    8.8166 H   0  0  0  0  0  0  0  0  0  0  0  0
    9.4701   -6.9085   10.7499 H   0  0  0  0  0  0  0  0  0  0  0  0
   14.9922   -5.3684    8.8565 H   0  0  0  0  0  0  0  0  0  0  0  0
   13.8035   -8.8712    9.1416 C   0  0  0  0  0  0  0  0  0  0  0  0
   14.3946   -9.0817   10.4188 O   0  0  0  0  0  0  0  0  0  0  0  0
   13.6790   -8.9648   11.0800 H   0  0  0  0  0  0  0  0  0  0  0  0
 14 15  1  0
 14 16  1  0
  2  3  1  0
  2  9  1  0
  2 15  1  0
  3  4  1  0
  4  5  1  0
  4  1  1  0
  1 17  1  0
 17 18  1  0
 17 24  1  0
 18 19  1  0
 18 20  1  0
 19 26  1  0
 20 22  1  0
 20 21  1  0
 21 27  1  0
 22 23  1  0
 23 24  1  0
 23 29  1  0
 29 30  1  0
 30 31  1  0
 24 25  1  0
 25 28  1  0
  5  6  1  0
  5  7  1  0
  6 11  1  0
  7  8  1  0
  7  9  1  0
  8 12  1  0
  9 10  1  0
 10 13  1  0
M  END
> <minimizedAffinity>
-4.41272

> <CNNscore>
0.8603222966

> <CNNaffinity>
3.2040300369

> <CNN_VS>
2.7564985752

> <CNNaffinity_variance>
0.3140600622

$$$$



 31 32  0  0  0  0  0  0  0  0999 V2000
   11.2050   -7.5405    8.8790 O   0  0  0  0  0  0  0  0  0  0  0  0
   14.4169   -6.0821    9.7327 C   0  0  0  0  0  0  0  0  0  0  0  0
   13.3783   -7.0587    9.5542 O   0  0  0  0  0  0  0  0  0  0  0  0
   12.1653   -6.4975    9.0626 C   0  0  0  0  0  0  0  0  0  0  0  0
   11.5982   -5.4669   10.0708 C   0  0  0  0  0  0  0  0  0  0  0  0
   10.3972   -4.8459    9.5863 O   0  0  0  0  0  0  0  0  0  0  0  0
   12.6692   -4.3957   10.3462 C   0  0  0  0  0  0  0  0  0  0  0  0
   12.2464   -3.4528   11.3375 O   0  0  0  0  0  0  0  0  0  0  0  0
   13.9918   -5.0423   10.7768 C   0  0  0  0  0  0  0  0  0  0  0  0
   15.0199   -4.0650   10.9411 O   0  0  0  0  0  0  0  0  0  0  0  0
   10.6237   -4.2689    8.8372 H   0  0  0  0  0  0  0  0  0  0  0  0
   11.9319   -3.9463   12.1171 H   0  0  0  0  0  0  0  0  0  0  0  0
   14.6873   -3.2048   10.6233 H   0  0  0  0  0  0  0  0  0  0  0  0
   16.5692   -6.9821    9.0675 O   0  0  0  0  0  0  0  0  0  0  0  0
   15.6920   -6.8078   10.1831 C   0  0  0  0  0  0  0  0  0  0  0  0
   17.3350   -7.4833    9.3976 H   0  0  0  0  0  0  0  0  0  0  0  0
   11.6596   -8.8722    9.2066 C   0  0  0  0  0  0  0  0  0  0  0  0
   12.2736   -9.5955    7.9858 C   0  0  0  0  0  0  0  0  0  0  0  0
   13.5717   -9.0768    7.6677 O   0  0  0  0  0  0  0  0  0  0  0  0
   12.3595  -11.1188    8.2075 C   0  0  0  0  0  0  0  0  0  0  0  0
   12.7740  -11.7781    7.0205 O   0  0  0  0  0  0  0  0  0  0  0  0
   11.1235  -11.6688    8.6208 O   0  0  0  0  0  0  0  0  0  0  0  0
   10.7087  -11.1383    9.8820 C   0  0  0  0  0  0  0  0  0  0  0  0
   10.4177   -9.6341    9.7412 C   0  0  0  0  0  0  0  0  0  0  0  0
    9.9730   -9.1113   11.0032 O   0  0  0  0  0  0  0  0  0  0  0  0
   14.2121   -9.4062    8.3362 H   0  0  0  0  0  0  0  0  0  0  0  0
   12.3370  -11.3340    6.2760 H   0  0  0  0  0  0  0  0  0  0  0  0
   10.6916   -8.5751   11.3880 H   0  0  0  0  0  0  0  0  0  0  0  0
    9.4835  -11.9304   10.3650 C   0  0  0  0  0  0  0  0  0  0  0  0
    8.3451  -11.7334    9.5342 O   0  0  0  0  0  0  0  0  0  0  0  0
    8.6419  -11.8914    8.6124 H   0  0  0  0  0  0  0  0  0  0  0  0
 14 15  1  0
 14 16  1  0
  2  3  1  0
  2  9  1  0
  2 15  1  0
  3  4  1  0
  4  5  1  0
  4  1  1  0
  1 17  1  0
 17 18  1  0
 17 24  1  0
 18 19  1  0
 18 20  1  0
 19 26  1  0
 20 22  1  0
 20 21  1  0
 21 27  1  0
 22 23  1  0
 23 24  1  0
 23 29  1  0
 29 30  1  0
 30 31  1  0
 24 25  1  0
 25 28  1  0
  5  6  1  0
  5  7  1  0
  6 11  1  0
  7  8  1  0
  7  9  1  0
  8 12  1  0
  9 10  1  0
 10 13  1  0
M  END
> <minimizedAffinity>
-4.82786

> <CNNscore>
0.8592378497

> <CNNaffinity>
3.0399520397

> <CNN_VS>
2.6120419502

> <CNNaffinity_variance>
0.4211231470

$$$$



 31 32  0  0  0  0  0  0  0  0999 V2000
   14.3416   -6.3391   10.2995 O   0  0  0  0  0  0  0  0  0  0  0  0
   17.7733   -5.8538    9.2226 C   0  0  0  0  0  0  0  0  0  0  0  0
   16.6185   -6.4490    9.8362 O   0  0  0  0  0  0  0  0  0  0  0  0
   15.4437   -5.6563    9.6971 C   0  0  0  0  0  0  0  0  0  0  0  0
   15.6283   -4.2874   10.3987 C   0  0  0  0  0  0  0  0  0  0  0  0
   14.4781   -3.4424   10.2392 O   0  0  0  0  0  0  0  0  0  0  0  0
   16.8747   -3.5932    9.8199 C   0  0  0  0  0  0  0  0  0  0  0  0
   17.1590   -2.3558   10.4820 O   0  0  0  0  0  0  0  0  0  0  0  0
   18.0987   -4.5145    9.8952 C   0  0  0  0  0  0  0  0  0  0  0  0
   19.2378   -3.9185    9.2735 O   0  0  0  0  0  0  0  0  0  0  0  0
   14.4180   -3.1682    9.3082 H   0  0  0  0  0  0  0  0  0  0  0  0
   17.1733   -2.5175   11.4432 H   0  0  0  0  0  0  0  0  0  0  0  0
   18.9564   -3.0993    8.8249 H   0  0  0  0  0  0  0  0  0  0  0  0
   18.5777   -8.1142    8.8641 O   0  0  0  0  0  0  0  0  0  0  0  0
   18.9518   -6.8271    9.3621 C   0  0  0  0  0  0  0  0  0  0  0  0
   19.3403   -8.6987    9.0172 H   0  0  0  0  0  0  0  0  0  0  0  0
   13.2594   -6.6861    9.4074 C   0  0  0  0  0  0  0  0  0  0  0  0
   11.8820   -6.2674    9.9712 C   0  0  0  0  0  0  0  0  0  0  0  0
   11.6889   -4.8496    9.8834 O   0  0  0  0  0  0  0  0  0  0  0  0
   10.7264   -6.9972    9.2578 C   0  0  0  0  0  0  0  0  0  0  0  0
    9.4875   -6.7219    9.8941 O   0  0  0  0  0  0  0  0  0  0  0  0
   10.9169   -8.3986    9.2288 O   0  0  0  0  0  0  0  0  0  0  0  0
   12.0869   -8.7539    8.4879 C   0  0  0  0  0  0  0  0  0  0  0  0
   13.3382   -8.2234    9.2090 C   0  0  0  0  0  0  0  0  0  0  0  0
   14.5130   -8.6078    8.4770 O   0  0  0  0  0  0  0  0  0  0  0  0
   11.5102   -4.6161    8.9458 H   0  0  0  0  0  0  0  0  0  0  0  0
    9.6507   -6.7111   10.8511 H   0  0  0  0  0  0  0  0  0  0  0  0
   14.8713   -7.8191    8.0283 H   0  0  0  0  0  0  0  0  0  0  0  0
   12.1110  -10.2810    8.3172 C   0  0  0  0  0  0  0  0  0  0  0  0
   10.8052  -10.8441    8.2646 O   0  0  0  0  0  0  0  0  0  0  0  0
   10.3062  -10.3293    7.5946 H   0  0  0  0  0  0  0  0  0  0  0  0
 14 15  1  0
 14 16  1  0
  2  3  1  0
  2  9  1  0
  2 15  1  0
  3  4  1  0
  4  5  1  0
  4  1  1  0
  1 17  1  0
 17 18  1  0
 17 24  1  0
 18 19  1  0
 18 20  1  0
 19 26  1  0
 20 22  1  0
 20 21  1  0
 21 27  1  0
 22 23  1  0
 23 24  1  0
 23 29  1  0
 29 30  1  0
 30 31  1  0
 24 25  1  0
 25 28  1  0
  5  6  1  0
  5  7  1  0
  6 11  1  0
  7  8  1  0
  7  9  1  0
  8 12  1  0
  9 10  1  0
 10 13  1  0
M  END
> <minimizedAffinity>
-4.63328

> <CNNscore>
0.8587215543

> <CNNaffinity>
3.2966547012

> <CNN_VS>
2.8309085369

> <CNNaffinity_variance>
0.2390263528

$$$$



 31 32  0  0  0  0  0  0  0  0999 V2000
   11.5678   -8.4608   10.6193 O   0  0  0  0  0  0  0  0  0  0  0  0
   14.4442   -6.3572    9.9316 C   0  0  0  0  0  0  0  0  0  0  0  0
   13.6382   -7.4086   10.4878 O   0  0  0  0  0  0  0  0  0  0  0  0
   12.2836   -7.3617   10.0508 C   0  0  0  0  0  0  0  0  0  0  0  0
   11.6142   -6.0401   10.5044 C   0  0  0  0  0  0  0  0  0  0  0  0
   10.2586   -5.9379   10.0410 O   0  0  0  0  0  0  0  0  0  0  0  0
   12.4411   -4.8539    9.9757 C   0  0  0  0  0  0  0  0  0  0  0  0
   11.9291   -3.5955   10.4283 O   0  0  0  0  0  0  0  0  0  0  0  0
   13.9142   -4.9901   10.3808 C   0  0  0  0  0  0  0  0  0  0  0  0
   14.7083   -3.9470    9.8146 O   0  0  0  0  0  0  0  0  0  0  0  0
   10.2660   -5.8216    9.0757 H   0  0  0  0  0  0  0  0  0  0  0  0
   11.8212   -3.6375   11.3962 H   0  0  0  0  0  0  0  0  0  0  0  0
   14.1582   -3.4398    9.1888 H   0  0  0  0  0  0  0  0  0  0  0  0
   16.7557   -6.6817    9.2709 O   0  0  0  0  0  0  0  0  0  0  0  0
   15.8913   -6.5555   10.4029 C   0  0  0  0  0  0  0  0  0  0  0  0
   17.6465   -6.8494    9.6246 H   0  0  0  0  0  0  0  0  0  0  0  0
   10.7970   -9.2522    9.6882 C   0  0  0  0  0  0  0  0  0  0  0  0
    9.6814  -10.0586   10.3922 C   0  0  0  0  0  0  0  0  0  0  0  0
    8.5955   -9.2122   10.7917 O   0  0  0  0  0  0  0  0  0  0  0  0
    9.1532  -11.2012    9.5021 C   0  0  0  0  0  0  0  0  0  0  0  0
    8.2485  -12.0243   10.2228 O   0  0  0  0  0  0  0  0  0  0  0  0
   10.1972  -12.0119    8.9983 O   0  0  0  0  0  0  0  0  0  0  0  0
   11.0786  -11.2677    8.1537 C   0  0  0  0  0  0  0  0  0  0  0  0
   11.8073  -10.1951    8.9818 C   0  0  0  0  0  0  0  0  0  0  0  0
   12.7134   -9.4692    8.1357 O   0  0  0  0  0  0  0  0  0  0  0  0
    8.0796   -8.9676    9.9920 H   0  0  0  0  0  0  0  0  0  0  0  0
    8.5987  -12.1184   11.1234 H   0  0  0  0  0  0  0  0  0  0  0  0
   12.3414   -8.5825    7.9705 H   0  0  0  0  0  0  0  0  0  0  0  0
   12.0502  -12.2481    7.4781 C   0  0  0  0  0  0  0  0  0  0  0  0
   12.4612  -11.8066    6.1892 O   0  0  0  0  0  0  0  0  0  0  0  0
   12.7666  -10.8802    6.2960 H   0  0  0  0  0  0  0  0  0  0  0  0
 14 15  1  0
 14 16  1  0
  2  3  1  0
  2  9  1  0
  2 15  1  0
  3  4  1  0
  4  5  1  0
  4  1  1  0
  1 17  1  0
 17 18  1  0
 17 24  1  0
 18 19  1  0
 18 20  1  0
 19 26  1  0
 20 22  1  0
 20 21  1  0
 21 27  1  0
 22 23  1  0
 23 24  1  0
 23 29  1  0
 29 30  1  0
 30 31  1  0
 24 25  1  0
 25 28  1  0
  5  6  1  0
  5  7  1  0
  6 11  1  0
  7  8  1  0
  7  9  1  0
  8 12  1  0
  9 10  1  0
 10 13  1  0
M  END
> <minimizedAffinity>
-4.98834

> <CNNscore>
0.8581390977

> <CNNaffinity>
3.2974970341

> <CNN_VS>
2.8297111988

> <CNNaffinity_variance>
0.3004652262

$$$$



 31 32  0  0  0  0  0  0  0  0999 V2000
   15.1894   -5.5176    9.8875 O   0  0  0  0  0  0  0  0  0  0  0  0
   12.2371   -7.6242    9.7524 C   0  0  0  0  0  0  0  0  0  0  0  0
   13.5396   -7.0983    9.4505 O   0  0  0  0  0  0  0  0  0  0  0  0
   13.8684   -5.9484   10.2236 C   0  0  0  0  0  0  0  0  0  0  0  0
   12.8758   -4.7960    9.9282 C   0  0  0  0  0  0  0  0  0  0  0  0
   13.1497   -3.6333   10.7257 O   0  0  0  0  0  0  0  0  0  0  0  0
   11.4423   -5.2903   10.1949 C   0  0  0  0  0  0  0  0  0  0  0  0
   10.4606   -4.3028    9.8610 O   0  0  0  0  0  0  0  0  0  0  0  0
   11.1578   -6.5854    9.4239 C   0  0  0  0  0  0  0  0  0  0  0  0
    9.8657   -7.1056    9.7388 O   0  0  0  0  0  0  0  0  0  0  0  0
   12.9342   -3.8321   11.6528 H   0  0  0  0  0  0  0  0  0  0  0  0
   10.6373   -3.9872    8.9558 H   0  0  0  0  0  0  0  0  0  0  0  0
    9.4901   -6.5859   10.4738 H   0  0  0  0  0  0  0  0  0  0  0  0
   12.1565   -8.6015    7.5336 O   0  0  0  0  0  0  0  0  0  0  0  0
   12.0264   -8.9001    8.9258 C   0  0  0  0  0  0  0  0  0  0  0  0
   11.9702   -9.4296    7.0578 H   0  0  0  0  0  0  0  0  0  0  0  0
   16.2181   -5.8547   10.8443 C   0  0  0  0  0  0  0  0  0  0  0  0
   16.5010   -7.3742   10.8853 C   0  0  0  0  0  0  0  0  0  0  0  0
   17.2356   -7.8017    9.7309 O   0  0  0  0  0  0  0  0  0  0  0  0
   17.2573   -7.7806   12.1659 C   0  0  0  0  0  0  0  0  0  0  0  0
   17.3651   -9.1929   12.2606 O   0  0  0  0  0  0  0  0  0  0  0  0
   16.6254   -7.2969   13.3354 O   0  0  0  0  0  0  0  0  0  0  0  0
   16.5982   -5.8678   13.3644 C   0  0  0  0  0  0  0  0  0  0  0  0
   15.7141   -5.3427   12.2200 C   0  0  0  0  0  0  0  0  0  0  0  0
   15.6657   -3.9079   12.2706 O   0  0  0  0  0  0  0  0  0  0  0  0
   18.1672   -7.5042    9.8256 H   0  0  0  0  0  0  0  0  0  0  0  0
   16.5246   -9.5679   11.9515 H   0  0  0  0  0  0  0  0  0  0  0  0
   16.2070   -3.5528   11.5407 H   0  0  0  0  0  0  0  0  0  0  0  0
   16.0985   -5.4175   14.7462 C   0  0  0  0  0  0  0  0  0  0  0  0
   14.7061   -5.1236   14.7528 O   0  0  0  0  0  0  0  0  0  0  0  0
   14.2562   -5.8954   14.3468 H   0  0  0  0  0  0  0  0  0  0  0  0
 14 15  1  0
 14 16  1  0
  2  3  1  0
  2  9  1  0
  2 15  1  0
  3  4  1  0
  4  5  1  0
  4  1  1  0
  1 17  1  0
 17 18  1  0
 17 24  1  0
 18 19  1  0
 18 20  1  0
 19 26  1  0
 20 22  1  0
 20 21  1  0
 21 27  1  0
 22 23  1  0
 23 24  1  0
 23 29  1  0
 29 30  1  0
 30 31  1  0
 24 25  1  0
 25 28  1  0
  5  6  1  0
  5  7  1  0
  6 11  1  0
  7  8  1  0
  7  9  1  0
  8 12  1  0
  9 10  1  0
 10 13  1  0
M  END
> <minimizedAffinity>
-4.27422

> <CNNscore>
0.8276553750

> <CNNaffinity>
2.8966429234

> <CNN_VS>
2.3974220753

> <CNNaffinity_variance>
0.5124565959

$$$$



 31 32  0  0  0  0  0  0  0  0999 V2000
   11.9296   -8.9356    9.1275 O   0  0  0  0  0  0  0  0  0  0  0  0
   13.7326   -6.2912   10.8386 C   0  0  0  0  0  0  0  0  0  0  0  0
   13.1670   -7.5819   10.5583 O   0  0  0  0  0  0  0  0  0  0  0  0
   12.4205   -7.6109    9.3459 C   0  0  0  0  0  0  0  0  0  0  0  0
   11.2172   -6.6384    9.4281 C   0  0  0  0  0  0  0  0  0  0  0  0
   10.4670   -6.6073    8.2037 O   0  0  0  0  0  0  0  0  0  0  0  0
   11.7364   -5.2280    9.7621 C   0  0  0  0  0  0  0  0  0  0  0  0
   10.6701   -4.2887    9.9387 O   0  0  0  0  0  0  0  0  0  0  0  0
   12.6185   -5.2526   11.0167 C   0  0  0  0  0  0  0  0  0  0  0  0
   13.1842   -3.9682   11.2805 O   0  0  0  0  0  0  0  0  0  0  0  0
   11.0063   -6.1793    7.5172 H   0  0  0  0  0  0  0  0  0  0  0  0
   10.0307   -4.6646   10.5713 H   0  0  0  0  0  0  0  0  0  0  0  0
   12.9830   -3.3778   10.5305 H   0  0  0  0  0  0  0  0  0  0  0  0
   15.6884   -5.5029   12.0379 O   0  0  0  0  0  0  0  0  0  0  0  0
   14.5774   -6.3996   12.1154 C   0  0  0  0  0  0  0  0  0  0  0  0
   16.2109   -5.6445   12.8465 H   0  0  0  0  0  0  0  0  0  0  0  0
   11.5749   -9.6740   10.3176 C   0  0  0  0  0  0  0  0  0  0  0  0
   12.4346  -10.9472   10.4917 C   0  0  0  0  0  0  0  0  0  0  0  0
   13.7661  -10.6266   10.9153 O   0  0  0  0  0  0  0  0  0  0  0  0
   11.7946  -11.9378   11.4847 C   0  0  0  0  0  0  0  0  0  0  0  0
   12.5127  -13.1622   11.5084 O   0  0  0  0  0  0  0  0  0  0  0  0
   10.4437  -12.2134   11.1683 O   0  0  0  0  0  0  0  0  0  0  0  0
    9.6348  -11.0374   11.2519 C   0  0  0  0  0  0  0  0  0  0  0  0
   10.0712  -10.0303   10.1737 C   0  0  0  0  0  0  0  0  0  0  0  0
    9.2370   -8.8628   10.2420 O   0  0  0  0  0  0  0  0  0  0  0  0
   13.7390  -10.3702   11.8635 H   0  0  0  0  0  0  0  0  0  0  0  0
   12.7759  -13.3602   10.5951 H   0  0  0  0  0  0  0  0  0  0  0  0
    9.7553   -8.1328   10.6298 H   0  0  0  0  0  0  0  0  0  0  0  0
    8.1609  -11.4482   11.1091 C   0  0  0  0  0  0  0  0  0  0  0  0
    8.0085  -12.7378   10.5268 O   0  0  0  0  0  0  0  0  0  0  0  0
    8.5921  -13.3430   11.0329 H   0  0  0  0  0  0  0  0  0  0  0  0
 14 15  1  0
 14 16  1  0
  2  3  1  0
  2  9  1  0
  2 15  1  0
  3  4  1  0
  4  5  1  0
  4  1  1  0
  1 17  1  0
 17 18  1  0
 17 24  1  0
 18 19  1  0
 18 20  1  0
 19 26  1  0
 20 22  1  0
 20 21  1  0
 21 27  1  0
 22 23  1  0
 23 24  1  0
 23 29  1  0
 29 30  1  0
 30 31  1  0
 24 25  1  0
 25 28  1  0
  5  6  1  0
  5  7  1  0
  6 11  1  0
  7  8  1  0
  7  9  1  0
  8 12  1  0
  9 10  1  0
 10 13  1  0
M  END
> <minimizedAffinity>
-4.59696

> <CNNscore>
0.7964727283

> <CNNaffinity>
3.2275879383

> <CNN_VS>
2.5706858635

> <CNNaffinity_variance>
0.4664406478

$$$$



 31 32  0  0  0  0  0  0  0  0999 V2000
   13.7112   -4.8823   10.9371 O   0  0  0  0  0  0  0  0  0  0  0  0
   15.4335   -1.7430   10.3447 C   0  0  0  0  0  0  0  0  0  0  0  0
   15.2041   -3.1530   10.4989 O   0  0  0  0  0  0  0  0  0  0  0  0
   13.8574   -3.4634   10.8426 C   0  0  0  0  0  0  0  0  0  0  0  0
   13.4876   -2.8301   12.2074 C   0  0  0  0  0  0  0  0  0  0  0  0
   12.1199   -3.0844   12.5647 O   0  0  0  0  0  0  0  0  0  0  0  0
   13.7392   -1.3128   12.1389 C   0  0  0  0  0  0  0  0  0  0  0  0
   13.4997   -0.6692   13.3954 O   0  0  0  0  0  0  0  0  0  0  0  0
   15.1688   -1.0159   11.6688 C   0  0  0  0  0  0  0  0  0  0  0  0
   15.3833    0.3867   11.5084 O   0  0  0  0  0  0  0  0  0  0  0  0
   11.5415   -2.5843   11.9641 H   0  0  0  0  0  0  0  0  0  0  0  0
   13.9934   -1.1488   14.0857 H   0  0  0  0  0  0  0  0  0  0  0  0
   14.5305    0.8479   11.6163 H   0  0  0  0  0  0  0  0  0  0  0  0
   16.9436   -1.4333    8.4716 O   0  0  0  0  0  0  0  0  0  0  0  0
   16.8865   -1.5349    9.8967 C   0  0  0  0  0  0  0  0  0  0  0  0
   17.8851   -1.3484    8.2411 H   0  0  0  0  0  0  0  0  0  0  0  0
   12.9658   -5.5055    9.8679 C   0  0  0  0  0  0  0  0  0  0  0  0
   11.4609   -5.6281   10.2007 C   0  0  0  0  0  0  0  0  0  0  0  0
   10.7998   -4.3591   10.1133 O   0  0  0  0  0  0  0  0  0  0  0  0
   10.7546   -6.6492    9.2866 C   0  0  0  0  0  0  0  0  0  0  0  0
    9.4171   -6.8647    9.7109 O   0  0  0  0  0  0  0  0  0  0  0  0
   11.4251   -7.8945    9.2588 O   0  0  0  0  0  0  0  0  0  0  0  0
   12.7426   -7.7690    8.7179 C   0  0  0  0  0  0  0  0  0  0  0  0
   13.6059   -6.9026    9.6513 C   0  0  0  0  0  0  0  0  0  0  0  0
   14.9367   -6.8035    9.1193 O   0  0  0  0  0  0  0  0  0  0  0  0
   10.6938   -4.1268    9.1645 H   0  0  0  0  0  0  0  0  0  0  0  0
    9.4204   -6.8751   10.6817 H   0  0  0  0  0  0  0  0  0  0  0  0
   15.0597   -5.9068    8.7551 H   0  0  0  0  0  0  0  0  0  0  0  0
   13.3245   -9.1775    8.5195 C   0  0  0  0  0  0  0  0  0  0  0  0
   13.1003   -9.6798    7.2071 O   0  0  0  0  0  0  0  0  0  0  0  0
   13.4019   -8.9823    6.5862 H   0  0  0  0  0  0  0  0  0  0  0  0
 14 15  1  0
 14 16  1  0
  2  3  1  0
  2  9  1  0
  2 15  1  0
  3  4  1  0
  4  5  1  0
  4  1  1  0
  1 17  1  0
 17 18  1  0
 17 24  1  0
 18 19  1  0
 18 20  1  0
 19 26  1  0
 20 22  1  0
 20 21  1  0
 21 27  1  0
 22 23  1  0
 23 24  1  0
 23 29  1  0
 29 30  1  0
 30 31  1  0
 24 25  1  0
 25 28  1  0
  5  6  1  0
  5  7  1  0
  6 11  1  0
  7  8  1  0
  7  9  1  0
  8 12  1  0
  9 10  1  0
 10 13  1  0
M  END
> <minimizedAffinity>
-5.87396

> <CNNscore>
0.7844839096

> <CNNaffinity>
3.4199783802

> <CNN_VS>
2.6829180717

> <CNNaffinity_variance>
0.2695312798

$$$$
