


 31 32  0  0  0  0  0  0  0  0999 V2000
   -5.5150  -12.3191  -10.3806 O   0  0  0  0  0  0  0  0  0  0  0  0
   -6.5024  -14.2698   -7.4837 C   0  0  0  0  0  0  0  0  0  0  0  0
   -6.2577  -13.9080   -8.8525 O   0  0  0  0  0  0  0  0  0  0  0  0
   -5.7660  -12.5793   -8.9975 C   0  0  0  0  0  0  0  0  0  0  0  0
   -6.8075  -11.5572   -8.4769 C   0  0  0  0  0  0  0  0  0  0  0  0
   -6.3258  -10.2070   -8.5653 O   0  0  0  0  0  0  0  0  0  0  0  0
   -7.1539  -11.8968   -7.0157 C   0  0  0  0  0  0  0  0  0  0  0  0
   -8.1775  -11.0434   -6.4919 O   0  0  0  0  0  0  0  0  0  0  0  0
   -7.5831  -13.3633   -6.8819 C   0  0  0  0  0  0  0  0  0  0  0  0
   -7.8134  -13.7158   -5.5173 O   0  0  0  0  0  0  0  0  0  0  0  0
   -5.6086  -10.0879   -7.9197 H   0  0  0  0  0  0  0  0  0  0  0  0
   -8.9271  -11.0438   -7.1151 H   0  0  0  0  0  0  0  0  0  0  0  0
   -7.5278  -12.9751   -4.9505 H   0  0  0  0  0  0  0  0  0  0  0  0
   -6.8146  -16.2470   -6.1132 O   0  0  0  0  0  0  0  0  0  0  0  0
   -6.9468  -15.7383   -7.4430 C   0  0  0  0  0  0  0  0  0  0  0  0
   -7.0647  -17.1864   -6.1539 H   0  0  0  0  0  0  0  0  0  0  0  0
   -4.1763  -11.8794  -10.6999 C   0  0  0  0  0  0  0  0  0  0  0  0
   -4.1709  -10.5367  -11.4665 C   0  0  0  0  0  0  0  0  0  0  0  0
   -4.4781   -9.4371  -10.5995 O   0  0  0  0  0  0  0  0  0  0  0  0
   -2.8225  -10.2859  -12.1708 C   0  0  0  0  0  0  0  0  0  0  0  0
   -2.8919   -9.1329  -12.9960 O   0  0  0  0  0  0  0  0  0  0  0  0
   -2.4223  -11.3858  -12.9652 O   0  0  0  0  0  0  0  0  0  0  0  0
   -2.2087  -12.5559  -12.1720 C   0  0  0  0  0  0  0  0  0  0  0  0
   -3.5406  -13.0112  -11.5506 C   0  0  0  0  0  0  0  0  0  0  0  0
   -3.3270  -14.2037  -10.7786 O   0  0  0  0  0  0  0  0  0  0  0  0
   -3.6944   -9.2558  -10.0353 H   0  0  0  0  0  0  0  0  0  0  0  0
   -3.7653   -9.1336  -13.4201 H   0  0  0  0  0  0  0  0  0  0  0  0
   -3.3720  -13.9730   -9.8317 H   0  0  0  0  0  0  0  0  0  0  0  0
   -1.5750  -13.6382  -13.0601 C   0  0  0  0  0  0  0  0  0  0  0  0
   -0.8385  -14.5968  -12.3093 O   0  0  0  0  0  0  0  0  0  0  0  0
   -1.4314  -14.9027  -11.5897 H   0  0  0  0  0  0  0  0  0  0  0  0
 14 15  1  0
 14 16  1  0
  2  3  1  0
  2  9  1  0
  2 15  1  0
  3  4  1  0
  4  5  1  0
  4  1  1  0
  1 17  1  0
 17 18  1  0
 17 24  1  0
 18 19  1  0
 18 20  1  0
 19 26  1  0
 20 22  1  0
 20 21  1  0
 21 27  1  0
 22 23  1  0
 23 24  1  0
 23 29  1  0
 29 30  1  0
 30 31  1  0
 24 25  1  0
 25 28  1  0
  5  6  1  0
  5  7  1  0
  6 11  1  0
  7  8  1  0
  7  9  1  0
  8 12  1  0
  9 10  1  0
 10 13  1  0
M  END
> <minimizedAffinity>
-5.63063

> <CNNscore>
0.9060288072

> <CNNaffinity>
3.1956155300

> <CNN_VS>
2.8953197002

> <CNNaffinity_variance>
0.3023515344

$$$$



 31 32  0  0  0  0  0  0  0  0999 V2000
   -4.4705  -12.1748   -9.6675 O   0  0  0  0  0  0  0  0  0  0  0  0
   -3.4841  -12.7690  -13.1093 C   0  0  0  0  0  0  0  0  0  0  0  0
   -3.5949  -12.9302  -11.6858 O   0  0  0  0  0  0  0  0  0  0  0  0
   -4.3819  -11.9153  -11.0705 C   0  0  0  0  0  0  0  0  0  0  0  0
   -3.7331  -10.5245  -11.2823 C   0  0  0  0  0  0  0  0  0  0  0  0
   -4.5250   -9.4699  -10.7136 O   0  0  0  0  0  0  0  0  0  0  0  0
   -3.5455  -10.2851  -12.7916 C   0  0  0  0  0  0  0  0  0  0  0  0
   -2.8708   -9.0513  -13.0621 O   0  0  0  0  0  0  0  0  0  0  0  0
   -2.7809  -11.4466  -13.4389 C   0  0  0  0  0  0  0  0  0  0  0  0
   -2.6855  -11.2825  -14.8543 O   0  0  0  0  0  0  0  0  0  0  0  0
   -5.3411   -9.3762  -11.2337 H   0  0  0  0  0  0  0  0  0  0  0  0
   -2.0579   -9.0211  -12.5251 H   0  0  0  0  0  0  0  0  0  0  0  0
   -3.2372  -10.5228  -15.1188 H   0  0  0  0  0  0  0  0  0  0  0  0
   -2.8659  -15.0979  -12.8281 O   0  0  0  0  0  0  0  0  0  0  0  0
   -2.6899  -13.9562  -13.6707 C   0  0  0  0  0  0  0  0  0  0  0  0
   -2.3092  -15.8025  -13.2027 H   0  0  0  0  0  0  0  0  0  0  0  0
   -5.8017  -12.4153   -9.1601 C   0  0  0  0  0  0  0  0  0  0  0  0
   -6.2744  -11.2927   -8.2078 C   0  0  0  0  0  0  0  0  0  0  0  0
   -6.6110  -10.1006   -8.9293 O   0  0  0  0  0  0  0  0  0  0  0  0
   -7.4738  -11.7395   -7.3482 C   0  0  0  0  0  0  0  0  0  0  0  0
   -7.7886  -10.7570   -6.3731 O   0  0  0  0  0  0  0  0  0  0  0  0
   -7.2306  -12.9673   -6.6892 O   0  0  0  0  0  0  0  0  0  0  0  0
   -7.0314  -14.0328   -7.6214 C   0  0  0  0  0  0  0  0  0  0  0  0
   -5.7452  -13.7825   -8.4278 C   0  0  0  0  0  0  0  0  0  0  0  0
   -5.5330  -14.8697   -9.3425 O   0  0  0  0  0  0  0  0  0  0  0  0
   -7.4710  -10.2424   -9.3829 H   0  0  0  0  0  0  0  0  0  0  0  0
   -6.9488  -10.4019   -6.0395 H   0  0  0  0  0  0  0  0  0  0  0  0
   -5.7367  -14.5606  -10.2451 H   0  0  0  0  0  0  0  0  0  0  0  0
   -6.9888  -15.3584   -6.8452 C   0  0  0  0  0  0  0  0  0  0  0  0
   -7.3537  -15.2017   -5.4787 O   0  0  0  0  0  0  0  0  0  0  0  0
   -8.2022  -14.7088   -5.4713 H   0  0  0  0  0  0  0  0  0  0  0  0
 14 15  1  0
 14 16  1  0
  2  3  1  0
  2  9  1  0
  2 15  1  0
  3  4  1  0
  4  5  1  0
  4  1  1  0
  1 17  1  0
 17 18  1  0
 17 24  1  0
 18 19  1  0
 18 20  1  0
 19 26  1  0
 20 22  1  0
 20 21  1  0
 21 27  1  0
 22 23  1  0
 23 24  1  0
 23 29  1  0
 29 30  1  0
 30 31  1  0
 24 25  1  0
 25 28  1  0
  5  6  1  0
  5  7  1  0
  6 11  1  0
  7  8  1  0
  7  9  1  0
  8 12  1  0
  9 10  1  0
 10 13  1  0
M  END
> <minimizedAffinity>
-5.92285

> <CNNscore>
0.9013357759

> <CNNaffinity>
3.3491337299

> <CNN_VS>
3.0186941624

> <CNNaffinity_variance>
0.3138231337

$$$$



 31 32  0  0  0  0  0  0  0  0999 V2000
   -5.7014  -12.0993  -10.6311 O   0  0  0  0  0  0  0  0  0  0  0  0
   -6.4056  -14.1961   -7.7536 C   0  0  0  0  0  0  0  0  0  0  0  0
   -6.2851  -13.7689   -9.1201 O   0  0  0  0  0  0  0  0  0  0  0  0
   -5.8285  -12.4258   -9.2451 C   0  0  0  0  0  0  0  0  0  0  0  0
   -6.8371  -11.4483   -8.5911 C   0  0  0  0  0  0  0  0  0  0  0  0
   -6.3860  -10.0865   -8.6579 O   0  0  0  0  0  0  0  0  0  0  0  0
   -7.0513  -11.8595   -7.1230 C   0  0  0  0  0  0  0  0  0  0  0  0
   -8.0392  -11.0503   -6.4751 O   0  0  0  0  0  0  0  0  0  0  0  0
   -7.4445  -13.3385   -7.0207 C   0  0  0  0  0  0  0  0  0  0  0  0
   -7.5511  -13.7559   -5.6592 O   0  0  0  0  0  0  0  0  0  0  0  0
   -5.6178   -9.9823   -8.0710 H   0  0  0  0  0  0  0  0  0  0  0  0
   -8.8395  -11.0375   -7.0315 H   0  0  0  0  0  0  0  0  0  0  0  0
   -7.2294  -13.0358   -5.0853 H   0  0  0  0  0  0  0  0  0  0  0  0
   -7.5827  -15.9529   -6.5650 O   0  0  0  0  0  0  0  0  0  0  0  0
   -6.8219  -15.6733   -7.7428 C   0  0  0  0  0  0  0  0  0  0  0  0
   -7.7802  -16.9054   -6.5869 H   0  0  0  0  0  0  0  0  0  0  0  0
   -4.3850  -12.2831  -11.1974 C   0  0  0  0  0  0  0  0  0  0  0  0
   -3.3570  -12.7533  -10.1426 C   0  0  0  0  0  0  0  0  0  0  0  0
   -3.5552  -14.1299   -9.7951 O   0  0  0  0  0  0  0  0  0  0  0  0
   -1.9074  -12.5389  -10.6219 C   0  0  0  0  0  0  0  0  0  0  0  0
   -0.9851  -12.8257   -9.5815 O   0  0  0  0  0  0  0  0  0  0  0  0
   -1.6836  -11.2163  -11.0711 O   0  0  0  0  0  0  0  0  0  0  0  0
   -2.4944  -10.9034  -12.2063 C   0  0  0  0  0  0  0  0  0  0  0  0
   -3.9787  -10.9125  -11.8016 C   0  0  0  0  0  0  0  0  0  0  0  0
   -4.7880  -10.5688  -12.9377 O   0  0  0  0  0  0  0  0  0  0  0  0
   -3.2309  -14.6888  -10.5354 H   0  0  0  0  0  0  0  0  0  0  0  0
   -1.3682  -12.4893   -8.7553 H   0  0  0  0  0  0  0  0  0  0  0  0
   -5.2357  -11.3753  -13.2555 H   0  0  0  0  0  0  0  0  0  0  0  0
   -2.0467   -9.5438  -12.7655 C   0  0  0  0  0  0  0  0  0  0  0  0
   -1.3284   -8.7715  -11.8102 O   0  0  0  0  0  0  0  0  0  0  0  0
   -0.6282   -9.3562  -11.4486 H   0  0  0  0  0  0  0  0  0  0  0  0
 14 15  1  0
 14 16  1  0
  2  3  1  0
  2  9  1  0
  2 15  1  0
  3  4  1  0
  4  5  1  0
  4  1  1  0
  1 17  1  0
 17 18  1  0
 17 24  1  0
 18 19  1  0
 18 20  1  0
 19 26  1  0
 20 22  1  0
 20 21  1  0
 21 27  1  0
 22 23  1  0
 23 24  1  0
 23 29  1  0
 29 30  1  0
 30 31  1  0
 24 25  1  0
 25 28  1  0
  5  6  1  0
  5  7  1  0
  6 11  1  0
  7  8  1  0
  7  9  1  0
  8 12  1  0
  9 10  1  0
 10 13  1  0
M  END
> <minimizedAffinity>
-6.36611

> <CNNscore>
0.8571932912

> <CNNaffinity>
2.9295339584

> <CNN_VS>
2.5111768246

> <CNNaffinity_variance>
0.8193204999

$$$$



 31 32  0  0  0  0  0  0  0  0999 V2000
   -7.1947  -12.3586   -8.6550 O   0  0  0  0  0  0  0  0  0  0  0  0
   -7.0255  -15.3885   -6.6643 C   0  0  0  0  0  0  0  0  0  0  0  0
   -7.1530  -14.5232   -7.8041 O   0  0  0  0  0  0  0  0  0  0  0  0
   -7.0998  -13.1417   -7.4627 C   0  0  0  0  0  0  0  0  0  0  0  0
   -8.2758  -12.7703   -6.5249 C   0  0  0  0  0  0  0  0  0  0  0  0
   -8.2276  -11.3925   -6.1225 O   0  0  0  0  0  0  0  0  0  0  0  0
   -8.2331  -13.6817   -5.2848 C   0  0  0  0  0  0  0  0  0  0  0  0
   -9.3433  -13.4536   -4.4096 O   0  0  0  0  0  0  0  0  0  0  0  0
   -8.1901  -15.1596   -5.6931 C   0  0  0  0  0  0  0  0  0  0  0  0
   -8.0525  -16.0104   -4.5545 O   0  0  0  0  0  0  0  0  0  0  0  0
   -7.4683  -11.2665   -5.5284 H   0  0  0  0  0  0  0  0  0  0  0  0
  -10.1630  -13.4937   -4.9357 H   0  0  0  0  0  0  0  0  0  0  0  0
   -7.8920  -15.4565   -3.7678 H   0  0  0  0  0  0  0  0  0  0  0  0
   -5.6708  -17.3325   -7.1843 O   0  0  0  0  0  0  0  0  0  0  0  0
   -7.0135  -16.8416   -7.1582 C   0  0  0  0  0  0  0  0  0  0  0  0
   -5.7168  -18.2350   -7.5451 H   0  0  0  0  0  0  0  0  0  0  0  0
   -6.0152  -12.3461   -9.4891 C   0  0  0  0  0  0  0  0  0  0  0  0
   -5.4441  -10.9207   -9.6700 C   0  0  0  0  0  0  0  0  0  0  0  0
   -4.7825  -10.4666   -8.4821 O   0  0  0  0  0  0  0  0  0  0  0  0
   -4.4787  -10.8396  -10.8693 C   0  0  0  0  0  0  0  0  0  0  0  0
   -4.0924   -9.4959  -11.1152 O   0  0  0  0  0  0  0  0  0  0  0  0
   -5.0492  -11.3683  -12.0509 O   0  0  0  0  0  0  0  0  0  0  0  0
   -5.3455  -12.7602  -11.9131 C   0  0  0  0  0  0  0  0  0  0  0  0
   -6.4423  -12.9541  -10.8516 C   0  0  0  0  0  0  0  0  0  0  0  0
   -6.7578  -14.3510  -10.7375 O   0  0  0  0  0  0  0  0  0  0  0  0
   -3.9204  -10.9321   -8.4074 H   0  0  0  0  0  0  0  0  0  0  0  0
   -4.8761   -8.9401  -10.9755 H   0  0  0  0  0  0  0  0  0  0  0  0
   -6.3842  -14.6866   -9.9010 H   0  0  0  0  0  0  0  0  0  0  0  0
   -5.7559  -13.3098  -13.2883 C   0  0  0  0  0  0  0  0  0  0  0  0
   -6.8959  -12.6461  -13.8223 O   0  0  0  0  0  0  0  0  0  0  0  0
   -6.7109  -11.6842  -13.7648 H   0  0  0  0  0  0  0  0  0  0  0  0
 14 15  1  0
 14 16  1  0
  2  3  1  0
  2  9  1  0
  2 15  1  0
  3  4  1  0
  4  5  1  0
  4  1  1  0
  1 17  1  0
 17 18  1  0
 17 24  1  0
 18 19  1  0
 18 20  1  0
 19 26  1  0
 20 22  1  0
 20 21  1  0
 21 27  1  0
 22 23  1  0
 23 24  1  0
 23 29  1  0
 29 30  1  0
 30 31  1  0
 24 25  1  0
 25 28  1  0
  5  6  1  0
  5  7  1  0
  6 11  1  0
  7  8  1  0
  7  9  1  0
  8 12  1  0
  9 10  1  0
 10 13  1  0
M  END
> <minimizedAffinity>
-4.78445

> <CNNscore>
0.8222701550

> <CNNaffinity>
2.9870250225

> <CNN_VS>
2.4561414719

> <CNNaffinity_variance>
0.5112125278

$$$$



 31 32  0  0  0  0  0  0  0  0999 V2000
   -5.1637  -13.8847   -9.9735 O   0  0  0  0  0  0  0  0  0  0  0  0
   -2.6682  -11.6395  -11.3530 C   0  0  0  0  0  0  0  0  0  0  0  0
   -3.9428  -12.2457  -11.0843 O   0  0  0  0  0  0  0  0  0  0  0  0
   -3.8520  -13.3708  -10.2161 C   0  0  0  0  0  0  0  0  0  0  0  0
   -2.9897  -14.4843  -10.8619 C   0  0  0  0  0  0  0  0  0  0  0  0
   -2.8381  -15.6182   -9.9934 O   0  0  0  0  0  0  0  0  0  0  0  0
   -1.6078  -13.9047  -11.2152 C   0  0  0  0  0  0  0  0  0  0  0  0
   -0.7820  -14.8562  -11.8958 O   0  0  0  0  0  0  0  0  0  0  0  0
   -1.7479  -12.6369  -12.0672 C   0  0  0  0  0  0  0  0  0  0  0  0
   -0.4771  -12.0363  -12.3195 O   0  0  0  0  0  0  0  0  0  0  0  0
   -2.2791  -15.3626   -9.2400 H   0  0  0  0  0  0  0  0  0  0  0  0
   -1.2890  -15.2253  -12.6421 H   0  0  0  0  0  0  0  0  0  0  0  0
    0.1982  -12.4988  -11.7889 H   0  0  0  0  0  0  0  0  0  0  0  0
   -1.8949   -9.4171  -11.9428 O   0  0  0  0  0  0  0  0  0  0  0  0
   -2.8967  -10.3974  -12.2251 C   0  0  0  0  0  0  0  0  0  0  0  0
   -2.1126   -8.6396  -12.4858 H   0  0  0  0  0  0  0  0  0  0  0  0
   -5.5299  -14.0299   -8.5835 C   0  0  0  0  0  0  0  0  0  0  0  0
   -6.1022  -15.4326   -8.2747 C   0  0  0  0  0  0  0  0  0  0  0  0
   -5.0697  -16.4269   -8.2537 O   0  0  0  0  0  0  0  0  0  0  0  0
   -6.8751  -15.4538   -6.9408 C   0  0  0  0  0  0  0  0  0  0  0  0
   -7.5252  -16.7020   -6.7550 O   0  0  0  0  0  0  0  0  0  0  0  0
   -7.8439  -14.4255   -6.8685 O   0  0  0  0  0  0  0  0  0  0  0  0
   -7.2397  -13.1308   -6.9209 C   0  0  0  0  0  0  0  0  0  0  0  0
   -6.5782  -12.9225   -8.2943 C   0  0  0  0  0  0  0  0  0  0  0  0
   -5.9980  -11.6097   -8.3532 O   0  0  0  0  0  0  0  0  0  0  0  0
   -4.5531  -16.3233   -7.4243 H   0  0  0  0  0  0  0  0  0  0  0  0
   -7.8712  -16.9788   -7.6189 H   0  0  0  0  0  0  0  0  0  0  0  0
   -5.0279  -11.6957   -8.2946 H   0  0  0  0  0  0  0  0  0  0  0  0
   -8.3179  -12.0771   -6.6229 C   0  0  0  0  0  0  0  0  0  0  0  0
   -7.7659  -10.7925   -6.3578 O   0  0  0  0  0  0  0  0  0  0  0  0
   -7.1453  -10.5986   -7.0927 H   0  0  0  0  0  0  0  0  0  0  0  0
 14 15  1  0
 14 16  1  0
  2  3  1  0
  2  9  1  0
  2 15  1  0
  3  4  1  0
  4  5  1  0
  4  1  1  0
  1 17  1  0
 17 18  1  0
 17 24  1  0
 18 19  1  0
 18 20  1  0
 19 26  1  0
 20 22  1  0
 20 21  1  0
 21 27  1  0
 22 23  1  0
 23 24  1  0
 23 29  1  0
 29 30  1  0
 30 31  1  0
 24 25  1  0
 25 28  1  0
  5  6  1  0
  5  7  1  0
  6 11  1  0
  7  8  1  0
  7  9  1  0
  8 12  1  0
  9 10  1  0
 10 13  1  0
M  END
> <minimizedAffinity>
-4.72467

> <CNNscore>
0.8221608996

> <CNNaffinity>
2.8677663803

> <CNN_VS>
2.3577654362

> <CNNaffinity_variance>
0.4522453249

$$$$



 31 32  0  0  0  0  0  0  0  0999 V2000
   -8.3020  -13.2451   -6.5688 O   0  0  0  0  0  0  0  0  0  0  0  0
  -11.5104  -12.0788   -7.8009 C   0  0  0  0  0  0  0  0  0  0  0  0
  -10.3528  -12.2199   -6.9615 O   0  0  0  0  0  0  0  0  0  0  0  0
   -9.4356  -13.1992   -7.4386 C   0  0  0  0  0  0  0  0  0  0  0  0
  -10.1025  -14.5974   -7.4658 C   0  0  0  0  0  0  0  0  0  0  0  0
   -9.2197  -15.6038   -7.9859 O   0  0  0  0  0  0  0  0  0  0  0  0
  -11.3797  -14.5253   -8.3225 C   0  0  0  0  0  0  0  0  0  0  0  0
  -12.0984  -15.7638   -8.3243 O   0  0  0  0  0  0  0  0  0  0  0  0
  -12.2976  -13.3942   -7.8420 C   0  0  0  0  0  0  0  0  0  0  0  0
  -13.4392  -13.2551   -8.6886 O   0  0  0  0  0  0  0  0  0  0  0  0
   -9.0861  -15.4422   -8.9354 H   0  0  0  0  0  0  0  0  0  0  0  0
  -12.2246  -16.0476   -7.4003 H   0  0  0  0  0  0  0  0  0  0  0  0
  -13.3250  -13.8343   -9.4652 H   0  0  0  0  0  0  0  0  0  0  0  0
  -11.8229  -10.4709   -6.0115 O   0  0  0  0  0  0  0  0  0  0  0  0
  -12.3812  -10.9469   -7.2387 C   0  0  0  0  0  0  0  0  0  0  0  0
  -12.4342   -9.7911   -5.6785 H   0  0  0  0  0  0  0  0  0  0  0  0
   -7.0710  -12.7272   -7.1200 C   0  0  0  0  0  0  0  0  0  0  0  0
   -7.2660  -11.3452   -7.7853 C   0  0  0  0  0  0  0  0  0  0  0  0
   -7.4292  -10.3108   -6.8063 O   0  0  0  0  0  0  0  0  0  0  0  0
   -6.0967  -10.9939   -8.7267 C   0  0  0  0  0  0  0  0  0  0  0  0
   -6.3703   -9.8014   -9.4466 O   0  0  0  0  0  0  0  0  0  0  0  0
   -5.8277  -12.0285   -9.6533 O   0  0  0  0  0  0  0  0  0  0  0  0
   -5.4189  -13.2297   -8.9945 C   0  0  0  0  0  0  0  0  0  0  0  0
   -6.5818  -13.7796   -8.1505 C   0  0  0  0  0  0  0  0  0  0  0  0
   -6.1765  -15.0020   -7.5139 O   0  0  0  0  0  0  0  0  0  0  0  0
   -6.5544  -10.1251   -6.3993 H   0  0  0  0  0  0  0  0  0  0  0  0
   -7.3107   -9.8188   -9.6873 H   0  0  0  0  0  0  0  0  0  0  0  0
   -6.0374  -14.8265   -6.5643 H   0  0  0  0  0  0  0  0  0  0  0  0
   -4.9410  -14.2307  -10.0581 C   0  0  0  0  0  0  0  0  0  0  0  0
   -4.0603  -15.2132   -9.5250 O   0  0  0  0  0  0  0  0  0  0  0  0
   -4.5035  -15.5842   -8.7321 H   0  0  0  0  0  0  0  0  0  0  0  0
 14 15  1  0
 14 16  1  0
  2  3  1  0
  2  9  1  0
  2 15  1  0
  3  4  1  0
  4  5  1  0
  4  1  1  0
  1 17  1  0
 17 18  1  0
 17 24  1  0
 18 19  1  0
 18 20  1  0
 19 26  1  0
 20 22  1  0
 20 21  1  0
 21 27  1  0
 22 23  1  0
 23 24  1  0
 23 29  1  0
 29 30  1  0
 30 31  1  0
 24 25  1  0
 25 28  1  0
  5  6  1  0
  5  7  1  0
  6 11  1  0
  7  8  1  0
  7  9  1  0
  8 12  1  0
  9 10  1  0
 10 13  1  0
M  END
> <minimizedAffinity>
-4.70077

> <CNNscore>
0.7786962986

> <CNNaffinity>
3.1459131241

> <CNN_VS>
2.4497108459

> <CNNaffinity_variance>
0.4103362560

$$$$



 31 32  0  0  0  0  0  0  0  0999 V2000
   -8.5909  -13.7863   -6.4365 O   0  0  0  0  0  0  0  0  0  0  0  0
   -8.5100  -14.7918   -2.9502 C   0  0  0  0  0  0  0  0  0  0  0  0
   -8.2907  -14.8113   -4.3700 O   0  0  0  0  0  0  0  0  0  0  0  0
   -8.8907  -13.7077   -5.0410 C   0  0  0  0  0  0  0  0  0  0  0  0
  -10.4289  -13.7340   -4.8572 C   0  0  0  0  0  0  0  0  0  0  0  0
  -11.0641  -12.6082   -5.4831 O   0  0  0  0  0  0  0  0  0  0  0  0
  -10.7522  -13.7499   -3.3520 C   0  0  0  0  0  0  0  0  0  0  0  0
  -12.1581  -13.8607   -3.1037 O   0  0  0  0  0  0  0  0  0  0  0  0
  -10.0096  -14.8907   -2.6449 C   0  0  0  0  0  0  0  0  0  0  0  0
  -10.2251  -14.8561   -1.2337 O   0  0  0  0  0  0  0  0  0  0  0  0
  -10.8311  -11.8034   -4.9898 H   0  0  0  0  0  0  0  0  0  0  0  0
  -12.5030  -14.6135   -3.6181 H   0  0  0  0  0  0  0  0  0  0  0  0
  -10.7031  -14.0357   -1.0103 H   0  0  0  0  0  0  0  0  0  0  0  0
   -6.3700  -15.9016   -2.6786 O   0  0  0  0  0  0  0  0  0  0  0  0
   -7.7541  -15.9733   -2.3271 C   0  0  0  0  0  0  0  0  0  0  0  0
   -5.9501  -16.6926   -2.2982 H   0  0  0  0  0  0  0  0  0  0  0  0
   -7.3424  -13.1827   -6.8416 C   0  0  0  0  0  0  0  0  0  0  0  0
   -7.5384  -11.7517   -7.3933 C   0  0  0  0  0  0  0  0  0  0  0  0
   -7.8126  -10.8175   -6.3411 O   0  0  0  0  0  0  0  0  0  0  0  0
   -6.3160  -11.2798   -8.2057 C   0  0  0  0  0  0  0  0  0  0  0  0
   -6.5792  -10.0346   -8.8347 O   0  0  0  0  0  0  0  0  0  0  0  0
   -5.9403  -12.2157   -9.1977 O   0  0  0  0  0  0  0  0  0  0  0  0
   -5.5374  -13.4597   -8.6197 C   0  0  0  0  0  0  0  0  0  0  0  0
   -6.7388  -14.1201   -7.9213 C   0  0  0  0  0  0  0  0  0  0  0  0
   -6.3370  -15.3833   -7.3674 O   0  0  0  0  0  0  0  0  0  0  0  0
   -6.9781  -10.6438   -5.8523 H   0  0  0  0  0  0  0  0  0  0  0  0
   -7.4978  -10.0582   -9.1483 H   0  0  0  0  0  0  0  0  0  0  0  0
   -6.2758  -15.2921   -6.3980 H   0  0  0  0  0  0  0  0  0  0  0  0
   -4.9446  -14.3434   -9.7284 C   0  0  0  0  0  0  0  0  0  0  0  0
   -4.5860  -13.5977  -10.8862 O   0  0  0  0  0  0  0  0  0  0  0  0
   -4.0371  -12.8462  -10.5750 H   0  0  0  0  0  0  0  0  0  0  0  0
 14 15  1  0
 14 16  1  0
  2  3  1  0
  2  9  1  0
  2 15  1  0
  3  4  1  0
  4  5  1  0
  4  1  1  0
  1 17  1  0
 17 18  1  0
 17 24  1  0
 18 19  1  0
 18 20  1  0
 19 26  1  0
 20 22  1  0
 20 21  1  0
 21 27  1  0
 22 23  1  0
 23 24  1  0
 23 29  1  0
 29 30  1  0
 30 31  1  0
 24 25  1  0
 25 28  1  0
  5  6  1  0
  5  7  1  0
  6 11  1  0
  7  8  1  0
  7  9  1  0
  8 12  1  0
  9 10  1  0
 10 13  1  0
M  END
> <minimizedAffinity>
-5.28569

> <CNNscore>
0.7677397132

> <CNNaffinity>
3.1001074314

> <CNN_VS>
2.3800756931

> <CNNaffinity_variance>
0.4466600418

$$$$



 31 32  0  0  0  0  0  0  0  0999 V2000
   -6.3216  -12.9019   -7.5665 O   0  0  0  0  0  0  0  0  0  0  0  0
   -4.4383  -13.2273  -10.6519 C   0  0  0  0  0  0  0  0  0  0  0  0
   -4.8611  -13.4400   -9.2952 O   0  0  0  0  0  0  0  0  0  0  0  0
   -5.9427  -12.5971   -8.9108 C   0  0  0  0  0  0  0  0  0  0  0  0
   -5.5216  -11.1080   -8.9867 C   0  0  0  0  0  0  0  0  0  0  0  0
   -6.6036  -10.2258   -8.6495 O   0  0  0  0  0  0  0  0  0  0  0  0
   -5.0188  -10.8027  -10.4095 C   0  0  0  0  0  0  0  0  0  0  0  0
   -4.5308   -9.4621  -10.5329 O   0  0  0  0  0  0  0  0  0  0  0  0
   -3.9246  -11.7931  -10.8274 C   0  0  0  0  0  0  0  0  0  0  0  0
   -3.5191  -11.5805  -12.1801 O   0  0  0  0  0  0  0  0  0  0  0  0
   -7.2720  -10.2669   -9.3544 H   0  0  0  0  0  0  0  0  0  0  0  0
   -3.8917   -9.3002   -9.8149 H   0  0  0  0  0  0  0  0  0  0  0  0
   -4.1168  -10.9254  -12.5864 H   0  0  0  0  0  0  0  0  0  0  0  0
   -2.3993  -13.6586  -11.8934 O   0  0  0  0  0  0  0  0  0  0  0  0
   -3.3322  -14.2397  -10.9788 C   0  0  0  0  0  0  0  0  0  0  0  0
   -1.7500  -14.3532  -12.0999 H   0  0  0  0  0  0  0  0  0  0  0  0
   -7.5838  -13.5883   -7.4143 C   0  0  0  0  0  0  0  0  0  0  0  0
   -8.6808  -12.6687   -6.8299 C   0  0  0  0  0  0  0  0  0  0  0  0
   -9.1484  -11.7265   -7.8039 O   0  0  0  0  0  0  0  0  0  0  0  0
   -9.8690  -13.4785   -6.2736 C   0  0  0  0  0  0  0  0  0  0  0  0
  -10.7864  -12.6294   -5.6007 O   0  0  0  0  0  0  0  0  0  0  0  0
   -9.4525  -14.4917   -5.3786 O   0  0  0  0  0  0  0  0  0  0  0  0
   -8.6236  -15.4581   -6.0292 C   0  0  0  0  0  0  0  0  0  0  0  0
   -7.3096  -14.7956   -6.4784 C   0  0  0  0  0  0  0  0  0  0  0  0
   -6.4676  -15.7765   -7.1051 O   0  0  0  0  0  0  0  0  0  0  0  0
   -9.7201  -12.2003   -8.4474 H   0  0  0  0  0  0  0  0  0  0  0  0
  -10.2658  -11.9718   -5.1118 H   0  0  0  0  0  0  0  0  0  0  0  0
   -6.4648  -15.6145   -8.0672 H   0  0  0  0  0  0  0  0  0  0  0  0
   -8.3897  -16.6296   -5.0625 C   0  0  0  0  0  0  0  0  0  0  0  0
   -9.1924  -16.5381   -3.8910 O   0  0  0  0  0  0  0  0  0  0  0  0
  -10.1135  -16.3892   -4.1950 H   0  0  0  0  0  0  0  0  0  0  0  0
 14 15  1  0
 14 16  1  0
  2  3  1  0
  2  9  1  0
  2 15  1  0
  3  4  1  0
  4  5  1  0
  4  1  1  0
  1 17  1  0
 17 18  1  0
 17 24  1  0
 18 19  1  0
 18 20  1  0
 19 26  1  0
 20 22  1  0
 20 21  1  0
 21 27  1  0
 22 23  1  0
 23 24  1  0
 23 29  1  0
 29 30  1  0
 30 31  1  0
 24 25  1  0
 25 28  1  0
  5  6  1  0
  5  7  1  0
  6 11  1  0
  7  8  1  0
  7  9  1  0
  8 12  1  0
  9 10  1  0
 10 13  1  0
M  END
> <minimizedAffinity>
-4.82429

> <CNNscore>
0.7345175147

> <CNNaffinity>
3.0427169800

> <CNN_VS>
2.2349288464

> <CNNaffinity_variance>
0.3945591450

$$$$



 31 32  0  0  0  0  0  0  0  0999 V2000
   -4.2237  -11.2373  -10.0542 O   0  0  0  0  0  0  0  0  0  0  0  0
   -5.7644   -8.9912  -12.4528 C   0  0  0  0  0  0  0  0  0  0  0  0
   -5.6051  -10.0697  -11.5170 O   0  0  0  0  0  0  0  0  0  0  0  0
   -4.2813  -10.1680  -11.0013 C   0  0  0  0  0  0  0  0  0  0  0  0
   -3.2755  -10.4566  -12.1439 C   0  0  0  0  0  0  0  0  0  0  0  0
   -1.9224  -10.5167  -11.6661 O   0  0  0  0  0  0  0  0  0  0  0  0
   -3.4065   -9.3579  -13.2144 C   0  0  0  0  0  0  0  0  0  0  0  0
   -2.5648   -9.6049  -14.3463 O   0  0  0  0  0  0  0  0  0  0  0  0
   -4.8627   -9.2121  -13.6735 C   0  0  0  0  0  0  0  0  0  0  0  0
   -5.0124   -8.1312  -14.5946 O   0  0  0  0  0  0  0  0  0  0  0  0
   -1.6463   -9.6245  -11.3955 H   0  0  0  0  0  0  0  0  0  0  0  0
   -2.7230  -10.5162  -14.6542 H   0  0  0  0  0  0  0  0  0  0  0  0
   -4.1712   -7.6394  -14.6389 H   0  0  0  0  0  0  0  0  0  0  0  0
   -7.8807   -7.8257  -12.2344 O   0  0  0  0  0  0  0  0  0  0  0  0
   -7.2385   -8.9306  -12.8756 C   0  0  0  0  0  0  0  0  0  0  0  0
   -8.8161   -7.8614  -12.5002 H   0  0  0  0  0  0  0  0  0  0  0  0
   -5.5005  -11.7428   -9.6052 C   0  0  0  0  0  0  0  0  0  0  0  0
   -6.1044  -10.8790   -8.4740 C   0  0  0  0  0  0  0  0  0  0  0  0
   -6.6129   -9.6369   -8.9777 O   0  0  0  0  0  0  0  0  0  0  0  0
   -7.2163  -11.6290   -7.7135 C   0  0  0  0  0  0  0  0  0  0  0  0
   -7.6444  -10.8841   -6.5834 O   0  0  0  0  0  0  0  0  0  0  0  0
   -6.7966  -12.9078   -7.2782 O   0  0  0  0  0  0  0  0  0  0  0  0
   -6.4710  -13.7569   -8.3815 C   0  0  0  0  0  0  0  0  0  0  0  0
   -5.2454  -13.1959   -9.1234 C   0  0  0  0  0  0  0  0  0  0  0  0
   -4.9037  -14.0674  -10.2130 O   0  0  0  0  0  0  0  0  0  0  0  0
   -7.4536   -9.8140   -9.4545 H   0  0  0  0  0  0  0  0  0  0  0  0
   -6.8550  -10.4809   -6.1875 H   0  0  0  0  0  0  0  0  0  0  0  0
   -5.1636  -13.6365  -11.0488 H   0  0  0  0  0  0  0  0  0  0  0  0
   -6.2346  -15.1790   -7.8492 C   0  0  0  0  0  0  0  0  0  0  0  0
   -7.3275  -15.6597   -7.0749 O   0  0  0  0  0  0  0  0  0  0  0  0
   -8.1354  -15.5144   -7.6125 H   0  0  0  0  0  0  0  0  0  0  0  0
 14 15  1  0
 14 16  1  0
  2  3  1  0
  2  9  1  0
  2 15  1  0
  3  4  1  0
  4  5  1  0
  4  1  1  0
  1 17  1  0
 17 18  1  0
 17 24  1  0
 18 19  1  0
 18 20  1  0
 19 26  1  0
 20 22  1  0
 20 21  1  0
 21 27  1  0
 22 23  1  0
 23 24  1  0
 23 29  1  0
 29 30  1  0
 30 31  1  0
 24 25  1  0
 25 28  1  0
  5  6  1  0
  5  7  1  0
  6 11  1  0
  7  8  1  0
  7  9  1  0
  8 12  1  0
  9 10  1  0
 10 13  1  0
M  END
> <minimizedAffinity>
-6.67122

> <CNNscore>
0.7216469049

> <CNNaffinity>
3.5760438442

> <CNN_VS>
2.5806410313

> <CNNaffinity_variance>
0.3692381680

$$$$



 31 32  0  0  0  0  0  0  0  0999 V2000
   -5.8635  -10.5000   -9.4636 O   0  0  0  0  0  0  0  0  0  0  0  0
   -5.8233  -13.9493   -8.3354 C   0  0  0  0  0  0  0  0  0  0  0  0
   -5.8254  -12.8124   -9.2140 O   0  0  0  0  0  0  0  0  0  0  0  0
   -5.9063  -11.5721   -8.5190 C   0  0  0  0  0  0  0  0  0  0  0  0
   -7.2319  -11.4841   -7.7217 C   0  0  0  0  0  0  0  0  0  0  0  0
   -7.3270  -10.2638   -6.9704 O   0  0  0  0  0  0  0  0  0  0  0  0
   -7.3261  -12.6935   -6.7737 C   0  0  0  0  0  0  0  0  0  0  0  0
   -8.5686  -12.7257   -6.0627 O   0  0  0  0  0  0  0  0  0  0  0  0
   -7.1343  -14.0072   -7.5419 C   0  0  0  0  0  0  0  0  0  0  0  0
   -7.1229  -15.1296   -6.6590 O   0  0  0  0  0  0  0  0  0  0  0  0
   -6.6763  -10.2895   -6.2484 H   0  0  0  0  0  0  0  0  0  0  0  0
   -9.2943  -12.6365   -6.7074 H   0  0  0  0  0  0  0  0  0  0  0  0
   -7.1176  -14.8041   -5.7395 H   0  0  0  0  0  0  0  0  0  0  0  0
   -4.3249  -15.2641   -9.7177 O   0  0  0  0  0  0  0  0  0  0  0  0
   -5.6504  -15.2166   -9.1836 C   0  0  0  0  0  0  0  0  0  0  0  0
   -4.2847  -16.0578  -10.2792 H   0  0  0  0  0  0  0  0  0  0  0  0
   -5.1529  -10.7772  -10.6906 C   0  0  0  0  0  0  0  0  0  0  0  0
   -3.6193  -10.7342  -10.4987 C   0  0  0  0  0  0  0  0  0  0  0  0
   -3.1465  -11.8911   -9.7966 O   0  0  0  0  0  0  0  0  0  0  0  0
   -2.8784  -10.6004  -11.8441 C   0  0  0  0  0  0  0  0  0  0  0  0
   -1.4882  -10.4018  -11.6361 O   0  0  0  0  0  0  0  0  0  0  0  0
   -3.3754   -9.5294  -12.6233 O   0  0  0  0  0  0  0  0  0  0  0  0
   -4.7455   -9.7307  -12.9786 C   0  0  0  0  0  0  0  0  0  0  0  0
   -5.6186   -9.7055  -11.7120 C   0  0  0  0  0  0  0  0  0  0  0  0
   -6.9974   -9.8786  -12.0761 O   0  0  0  0  0  0  0  0  0  0  0  0
   -3.1687  -12.6590  -10.4092 H   0  0  0  0  0  0  0  0  0  0  0  0
   -1.3922   -9.8117  -10.8711 H   0  0  0  0  0  0  0  0  0  0  0  0
   -7.2756  -10.7782  -11.8211 H   0  0  0  0  0  0  0  0  0  0  0  0
   -5.1505   -8.6490  -13.9922 C   0  0  0  0  0  0  0  0  0  0  0  0
   -6.0212   -7.6739  -13.4299 O   0  0  0  0  0  0  0  0  0  0  0  0
   -5.5985   -7.3688  -12.5986 H   0  0  0  0  0  0  0  0  0  0  0  0
 14 15  1  0
 14 16  1  0
  2  3  1  0
  2  9  1  0
  2 15  1  0
  3  4  1  0
  4  5  1  0
  4  1  1  0
  1 17  1  0
 17 18  1  0
 17 24  1  0
 18 19  1  0
 18 20  1  0
 19 26  1  0
 20 22  1  0
 20 21  1  0
 21 27  1  0
 22 23  1  0
 23 24  1  0
 23 29  1  0
 29 30  1  0
 30 31  1  0
 24 25  1  0
 25 28  1  0
  5  6  1  0
  5  7  1  0
  6 11  1  0
  7  8  1  0
  7  9  1  0
  8 12  1  0
  9 10  1  0
 10 13  1  0
M  END
> <minimizedAffinity>
-5.88008

> <CNNscore>
0.6644982100

> <CNNaffinity>
2.8042309284

> <CNN_VS>
1.8634064198

> <CNNaffinity_variance>
0.7647294998

$$$$



 31 32  0  0  0  0  0  0  0  0999 V2000
   -4.5191  -12.7469  -11.2883 O   0  0  0  0  0  0  0  0  0  0  0  0
   -1.5831  -11.0594  -12.5939 C   0  0  0  0  0  0  0  0  0  0  0  0
   -2.9400  -11.2915  -12.1825 O   0  0  0  0  0  0  0  0  0  0  0  0
   -3.1595  -12.6170  -11.7105 C   0  0  0  0  0  0  0  0  0  0  0  0
   -2.8847  -13.6448  -12.8368 C   0  0  0  0  0  0  0  0  0  0  0  0
   -3.0518  -14.9971  -12.3826 O   0  0  0  0  0  0  0  0  0  0  0  0
   -1.4519  -13.4401  -13.3616 C   0  0  0  0  0  0  0  0  0  0  0  0
   -1.1541  -14.3012  -14.4662 O   0  0  0  0  0  0  0  0  0  0  0  0
   -1.2211  -11.9788  -13.7667 C   0  0  0  0  0  0  0  0  0  0  0  0
    0.1325  -11.7562  -14.1635 O   0  0  0  0  0  0  0  0  0  0  0  0
   -2.3365  -15.2082  -11.7588 H   0  0  0  0  0  0  0  0  0  0  0  0
   -1.8639  -14.2092  -15.1281 H   0  0  0  0  0  0  0  0  0  0  0  0
    0.6505  -12.5606  -13.9732 H   0  0  0  0  0  0  0  0  0  0  0  0
   -1.3261   -8.7700  -11.8340 O   0  0  0  0  0  0  0  0  0  0  0  0
   -1.4459   -9.5862  -13.0018 C   0  0  0  0  0  0  0  0  0  0  0  0
   -1.2880   -7.8494  -12.1467 H   0  0  0  0  0  0  0  0  0  0  0  0
   -4.7225  -12.8501   -9.8617 C   0  0  0  0  0  0  0  0  0  0  0  0
   -5.3918  -14.1857   -9.4632 C   0  0  0  0  0  0  0  0  0  0  0  0
   -4.4712  -15.2808   -9.5547 O   0  0  0  0  0  0  0  0  0  0  0  0
   -5.9909  -14.1238   -8.0440 C   0  0  0  0  0  0  0  0  0  0  0  0
   -6.7366  -15.2980   -7.7603 O   0  0  0  0  0  0  0  0  0  0  0  0
   -6.8334  -13.0011   -7.8685 O   0  0  0  0  0  0  0  0  0  0  0  0
   -6.1118  -11.7756   -8.0148 C   0  0  0  0  0  0  0  0  0  0  0  0
   -5.6084  -11.6400   -9.4623 C   0  0  0  0  0  0  0  0  0  0  0  0
   -4.9095  -10.3939   -9.6125 O   0  0  0  0  0  0  0  0  0  0  0  0
   -3.8478  -15.2289   -8.7970 H   0  0  0  0  0  0  0  0  0  0  0  0
   -7.2136  -15.5399   -8.5706 H   0  0  0  0  0  0  0  0  0  0  0  0
   -3.9535  -10.5792   -9.6727 H   0  0  0  0  0  0  0  0  0  0  0  0
   -7.0317  -10.6157   -7.6022 C   0  0  0  0  0  0  0  0  0  0  0  0
   -7.7994  -10.9153   -6.4420 O   0  0  0  0  0  0  0  0  0  0  0  0
   -7.1677  -11.2440   -5.7668 H   0  0  0  0  0  0  0  0  0  0  0  0
 14 15  1  0
 14 16  1  0
  2  3  1  0
  2  9  1  0
  2 15  1  0
  3  4  1  0
  4  5  1  0
  4  1  1  0
  1 17  1  0
 17 18  1  0
 17 24  1  0
 18 19  1  0
 18 20  1  0
 19 26  1  0
 20 22  1  0
 20 21  1  0
 21 27  1  0
 22 23  1  0
 23 24  1  0
 23 29  1  0
 29 30  1  0
 30 31  1  0
 24 25  1  0
 25 28  1  0
  5  6  1  0
  5  7  1  0
  6 11  1  0
  7  8  1  0
  7  9  1  0
  8 12  1  0
  9 10  1  0
 10 13  1  0
M  END
> <minimizedAffinity>
-5.06799

> <CNNscore>
0.6595858932

> <CNNaffinity>
3.0747349262

> <CNN_VS>
2.0280518532

> <CNNaffinity_variance>
0.4807546139

$$$$



 31 32  0  0  0  0  0  0  0  0999 V2000
   -4.6539  -10.2415  -10.0468 O   0  0  0  0  0  0  0  0  0  0  0  0
   -5.4023  -10.6929  -13.5693 C   0  0  0  0  0  0  0  0  0  0  0  0
   -4.6635  -10.6430  -12.3381 O   0  0  0  0  0  0  0  0  0  0  0  0
   -5.4552  -10.2250  -11.2306 C   0  0  0  0  0  0  0  0  0  0  0  0
   -5.9849   -8.7866  -11.4564 C   0  0  0  0  0  0  0  0  0  0  0  0
   -6.8267   -8.3486  -10.3783 O   0  0  0  0  0  0  0  0  0  0  0  0
   -6.7653   -8.7440  -12.7829 C   0  0  0  0  0  0  0  0  0  0  0  0
   -7.2144   -7.4222  -13.1020 O   0  0  0  0  0  0  0  0  0  0  0  0
   -5.9160   -9.2951  -13.9352 C   0  0  0  0  0  0  0  0  0  0  0  0
   -6.6623   -9.3507  -15.1515 O   0  0  0  0  0  0  0  0  0  0  0  0
   -7.6545   -8.8581  -10.4010 H   0  0  0  0  0  0  0  0  0  0  0  0
   -6.4540   -6.8154  -13.0391 H   0  0  0  0  0  0  0  0  0  0  0  0
   -7.5943   -9.1386  -14.9565 H   0  0  0  0  0  0  0  0  0  0  0  0
   -3.1386  -10.7826  -14.4368 O   0  0  0  0  0  0  0  0  0  0  0  0
   -4.4763  -11.2315  -14.6684 C   0  0  0  0  0  0  0  0  0  0  0  0
   -2.6067  -11.1127  -15.1817 H   0  0  0  0  0  0  0  0  0  0  0  0
   -4.8840  -11.3529   -9.1528 C   0  0  0  0  0  0  0  0  0  0  0  0
   -4.7763  -12.7151   -9.8762 C   0  0  0  0  0  0  0  0  0  0  0  0
   -3.4125  -13.0474  -10.1673 O   0  0  0  0  0  0  0  0  0  0  0  0
   -5.4276  -13.8491   -9.0597 C   0  0  0  0  0  0  0  0  0  0  0  0
   -5.4605  -15.0545   -9.8088 O   0  0  0  0  0  0  0  0  0  0  0  0
   -6.7466  -13.5300   -8.6603 O   0  0  0  0  0  0  0  0  0  0  0  0
   -6.7718  -12.3936   -7.7931 C   0  0  0  0  0  0  0  0  0  0  0  0
   -6.3035  -11.1452   -8.5608 C   0  0  0  0  0  0  0  0  0  0  0  0
   -6.3585  -10.0006   -7.6945 O   0  0  0  0  0  0  0  0  0  0  0  0
   -2.9725  -13.3204   -9.3323 H   0  0  0  0  0  0  0  0  0  0  0  0
   -5.6723  -14.8184  -10.7264 H   0  0  0  0  0  0  0  0  0  0  0  0
   -5.4475   -9.7546   -7.4464 H   0  0  0  0  0  0  0  0  0  0  0  0
   -8.1946  -12.2390   -7.2332 C   0  0  0  0  0  0  0  0  0  0  0  0
   -8.2797  -11.2309   -6.2323 O   0  0  0  0  0  0  0  0  0  0  0  0
   -7.8601  -10.4278   -6.6090 H   0  0  0  0  0  0  0  0  0  0  0  0
 14 15  1  0
 14 16  1  0
  2  3  1  0
  2  9  1  0
  2 15  1  0
  3  4  1  0
  4  5  1  0
  4  1  1  0
  1 17  1  0
 17 18  1  0
 17 24  1  0
 18 19  1  0
 18 20  1  0
 19 26  1  0
 20 22  1  0
 20 21  1  0
 21 27  1  0
 22 23  1  0
 23 24  1  0
 23 29  1  0
 29 30  1  0
 30 31  1  0
 24 25  1  0
 25 28  1  0
  5  6  1  0
  5  7  1  0
  6 11  1  0
  7  8  1  0
  7  9  1  0
  8 12  1  0
  9 10  1  0
 10 13  1  0
M  END
> <minimizedAffinity>
-6.45858

> <CNNscore>
0.6470714808

> <CNNaffinity>
3.3086092472

> <CNN_VS>
2.1409065723

> <CNNaffinity_variance>
0.5247976780

$$$$



 31 32  0  0  0  0  0  0  0  0999 V2000
   -5.7874  -11.8506  -11.0185 O   0  0  0  0  0  0  0  0  0  0  0  0
   -6.2070  -14.0276   -8.1451 C   0  0  0  0  0  0  0  0  0  0  0  0
   -6.1888  -13.5736   -9.5082 O   0  0  0  0  0  0  0  0  0  0  0  0
   -5.8167  -12.2047   -9.6339 C   0  0  0  0  0  0  0  0  0  0  0  0
   -6.8400  -11.2968   -8.9066 C   0  0  0  0  0  0  0  0  0  0  0  0
   -6.4710   -9.9104   -8.9736 O   0  0  0  0  0  0  0  0  0  0  0  0
   -6.9466  -11.7417   -7.4365 C   0  0  0  0  0  0  0  0  0  0  0  0
   -7.9402  -11.0005   -6.7196 O   0  0  0  0  0  0  0  0  0  0  0  0
   -7.2492  -13.2423   -7.3396 C   0  0  0  0  0  0  0  0  0  0  0  0
   -7.2544  -13.6857   -5.9821 O   0  0  0  0  0  0  0  0  0  0  0  0
   -5.6778   -9.7712   -8.4288 H   0  0  0  0  0  0  0  0  0  0  0  0
   -8.7703  -11.0253   -7.2300 H   0  0  0  0  0  0  0  0  0  0  0  0
   -6.9416  -12.9570   -5.4140 H   0  0  0  0  0  0  0  0  0  0  0  0
   -5.3304  -16.2879   -8.0570 O   0  0  0  0  0  0  0  0  0  0  0  0
   -6.5378  -15.5262   -8.1381 C   0  0  0  0  0  0  0  0  0  0  0  0
   -5.5939  -17.2235   -8.1015 H   0  0  0  0  0  0  0  0  0  0  0  0
   -5.1526  -10.5899  -11.3270 C   0  0  0  0  0  0  0  0  0  0  0  0
   -5.8819   -9.8318  -12.4601 C   0  0  0  0  0  0  0  0  0  0  0  0
   -7.1141   -9.2612  -12.0002 O   0  0  0  0  0  0  0  0  0  0  0  0
   -4.9942   -8.7316  -13.0754 C   0  0  0  0  0  0  0  0  0  0  0  0
   -5.6191   -8.1581  -14.2138 O   0  0  0  0  0  0  0  0  0  0  0  0
   -3.7236   -9.2221  -13.4575 O   0  0  0  0  0  0  0  0  0  0  0  0
   -2.9852   -9.7005  -12.3306 C   0  0  0  0  0  0  0  0  0  0  0  0
   -3.6925  -10.9279  -11.7304 C   0  0  0  0  0  0  0  0  0  0  0  0
   -2.9320  -11.4230  -10.6167 O   0  0  0  0  0  0  0  0  0  0  0  0
   -6.9073   -8.4770  -11.4455 H   0  0  0  0  0  0  0  0  0  0  0  0
   -6.0526   -8.8787  -14.6989 H   0  0  0  0  0  0  0  0  0  0  0  0
   -3.4012  -11.1924   -9.7930 H   0  0  0  0  0  0  0  0  0  0  0  0
   -1.5508  -10.0134  -12.7846 C   0  0  0  0  0  0  0  0  0  0  0  0
   -0.6014   -9.8596  -11.7357 O   0  0  0  0  0  0  0  0  0  0  0  0
   -0.9467  -10.3675  -10.9704 H   0  0  0  0  0  0  0  0  0  0  0  0
 14 15  1  0
 14 16  1  0
  2  3  1  0
  2  9  1  0
  2 15  1  0
  3  4  1  0
  4  5  1  0
  4  1  1  0
  1 17  1  0
 17 18  1  0
 17 24  1  0
 18 19  1  0
 18 20  1  0
 19 26  1  0
 20 22  1  0
 20 21  1  0
 21 27  1  0
 22 23  1  0
 23 24  1  0
 23 29  1  0
 29 30  1  0
 30 31  1  0
 24 25  1  0
 25 28  1  0
  5  6  1  0
  5  7  1  0
  6 11  1  0
  7  8  1  0
  7  9  1  0
  8 12  1  0
  9 10  1  0
 10 13  1  0
M  END
> <minimizedAffinity>
-6.21084

> <CNNscore>
0.5803999305

> <CNNaffinity>
3.1652643681

> <CNN_VS>
1.8371192217

> <CNNaffinity_variance>
0.5217433572

$$$$



 31 32  0  0  0  0  0  0  0  0999 V2000
   -6.9264  -12.7264   -7.0759 O   0  0  0  0  0  0  0  0  0  0  0  0
   -4.8764  -13.5625   -9.9517 C   0  0  0  0  0  0  0  0  0  0  0  0
   -5.4150  -13.5881   -8.6199 O   0  0  0  0  0  0  0  0  0  0  0  0
   -6.4219  -12.6037   -8.4078 C   0  0  0  0  0  0  0  0  0  0  0  0
   -5.8356  -11.1815   -8.5921 C   0  0  0  0  0  0  0  0  0  0  0  0
   -6.8354  -10.1631   -8.4306 O   0  0  0  0  0  0  0  0  0  0  0  0
   -5.2028  -11.0793   -9.9919 C   0  0  0  0  0  0  0  0  0  0  0  0
   -4.5630   -9.8158  -10.2034 O   0  0  0  0  0  0  0  0  0  0  0  0
   -4.1971  -12.2144  -10.2219 C   0  0  0  0  0  0  0  0  0  0  0  0
   -3.6759  -12.1866  -11.5512 O   0  0  0  0  0  0  0  0  0  0  0  0
   -7.4526  -10.2090   -9.1804 H   0  0  0  0  0  0  0  0  0  0  0  0
   -3.9625   -9.6459   -9.4546 H   0  0  0  0  0  0  0  0  0  0  0  0
   -4.1678  -11.5198  -12.0660 H   0  0  0  0  0  0  0  0  0  0  0  0
   -4.1013  -15.6843   -9.0673 O   0  0  0  0  0  0  0  0  0  0  0  0
   -3.8677  -14.7111  -10.0885 C   0  0  0  0  0  0  0  0  0  0  0  0
   -3.4110  -16.3618   -9.1723 H   0  0  0  0  0  0  0  0  0  0  0  0
   -8.0992  -13.5567   -6.9267 C   0  0  0  0  0  0  0  0  0  0  0  0
   -7.7793  -14.8971   -6.2257 C   0  0  0  0  0  0  0  0  0  0  0  0
   -7.5558  -14.7139   -4.8216 O   0  0  0  0  0  0  0  0  0  0  0  0
   -8.8953  -15.9379   -6.4457 C   0  0  0  0  0  0  0  0  0  0  0  0
   -8.5109  -17.2047   -5.9331 O   0  0  0  0  0  0  0  0  0  0  0  0
   -9.2253  -16.0860   -7.8133 O   0  0  0  0  0  0  0  0  0  0  0  0
   -9.7437  -14.8720   -8.3624 C   0  0  0  0  0  0  0  0  0  0  0  0
   -8.6479  -13.7921   -8.3592 C   0  0  0  0  0  0  0  0  0  0  0  0
   -9.1640  -12.5831   -8.9386 O   0  0  0  0  0  0  0  0  0  0  0  0
   -8.4218  -14.5548   -4.3856 H   0  0  0  0  0  0  0  0  0  0  0  0
   -7.5698  -17.3258   -6.1385 H   0  0  0  0  0  0  0  0  0  0  0  0
   -9.3099  -11.9341   -8.2249 H   0  0  0  0  0  0  0  0  0  0  0  0
  -10.2763  -15.1637   -9.7741 C   0  0  0  0  0  0  0  0  0  0  0  0
   -9.5439  -14.4802  -10.7848 O   0  0  0  0  0  0  0  0  0  0  0  0
   -8.5956  -14.6704  -10.6189 H   0  0  0  0  0  0  0  0  0  0  0  0
 14 15  1  0
 14 16  1  0
  2  3  1  0
  2  9  1  0
  2 15  1  0
  3  4  1  0
  4  5  1  0
  4  1  1  0
  1 17  1  0
 17 18  1  0
 17 24  1  0
 18 19  1  0
 18 20  1  0
 19 26  1  0
 20 22  1  0
 20 21  1  0
 21 27  1  0
 22 23  1  0
 23 24  1  0
 23 29  1  0
 29 30  1  0
 30 31  1  0
 24 25  1  0
 25 28  1  0
  5  6  1  0
  5  7  1  0
  6 11  1  0
  7  8  1  0
  7  9  1  0
  8 12  1  0
  9 10  1  0
 10 13  1  0
M  END
> <minimizedAffinity>
-4.82255

> <CNNscore>
0.5747413635

> <CNNaffinity>
3.3810081482

> <CNN_VS>
1.9432052374

> <CNNaffinity_variance>
0.8052105904

$$$$



 31 32  0  0  0  0  0  0  0  0999 V2000
   -6.2747  -12.9713   -7.5009 O   0  0  0  0  0  0  0  0  0  0  0  0
   -5.6532  -13.1192  -11.0736 C   0  0  0  0  0  0  0  0  0  0  0  0
   -5.6612  -13.4870   -9.6847 O   0  0  0  0  0  0  0  0  0  0  0  0
   -6.2761  -12.5079   -8.8532 C   0  0  0  0  0  0  0  0  0  0  0  0
   -5.4968  -11.1707   -8.9249 C   0  0  0  0  0  0  0  0  0  0  0  0
   -6.1160  -10.1449   -8.1331 O   0  0  0  0  0  0  0  0  0  0  0  0
   -5.4113  -10.7202  -10.3946 C   0  0  0  0  0  0  0  0  0  0  0  0
   -4.6288   -9.5310  -10.5494 O   0  0  0  0  0  0  0  0  0  0  0  0
   -4.8376  -11.8365  -11.2765 C   0  0  0  0  0  0  0  0  0  0  0  0
   -4.8439  -11.4655  -12.6555 O   0  0  0  0  0  0  0  0  0  0  0  0
   -6.9574   -9.8930   -8.5501 H   0  0  0  0  0  0  0  0  0  0  0  0
   -3.7753   -9.6633  -10.0975 H   0  0  0  0  0  0  0  0  0  0  0  0
   -5.3280  -10.6240  -12.7508 H   0  0  0  0  0  0  0  0  0  0  0  0
   -5.7923  -15.4734  -11.6421 O   0  0  0  0  0  0  0  0  0  0  0  0
   -5.0459  -14.2768  -11.8776 C   0  0  0  0  0  0  0  0  0  0  0  0
   -5.3404  -16.1792  -12.1366 H   0  0  0  0  0  0  0  0  0  0  0  0
   -7.5384  -13.4723   -7.0116 C   0  0  0  0  0  0  0  0  0  0  0  0
   -7.9734  -14.7660   -7.7380 C   0  0  0  0  0  0  0  0  0  0  0  0
   -7.1985  -15.8934   -7.3096 O   0  0  0  0  0  0  0  0  0  0  0  0
   -9.4741  -15.0571   -7.5378 C   0  0  0  0  0  0  0  0  0  0  0  0
   -9.8861  -16.1537   -8.3396 O   0  0  0  0  0  0  0  0  0  0  0  0
  -10.2816  -13.9392   -7.8532 O   0  0  0  0  0  0  0  0  0  0  0  0
  -10.0054  -12.8324   -6.9914 C   0  0  0  0  0  0  0  0  0  0  0  0
   -8.5698  -12.3338   -7.2319 C   0  0  0  0  0  0  0  0  0  0  0  0
   -8.3064  -11.2035   -6.3853 O   0  0  0  0  0  0  0  0  0  0  0  0
   -7.4976  -16.1547   -6.4108 H   0  0  0  0  0  0  0  0  0  0  0  0
   -9.4293  -16.0751   -9.1927 H   0  0  0  0  0  0  0  0  0  0  0  0
   -7.7096  -11.4857   -5.6670 H   0  0  0  0  0  0  0  0  0  0  0  0
  -11.0564  -11.7409   -7.2473 C   0  0  0  0  0  0  0  0  0  0  0  0
  -11.3297  -10.9647   -6.0862 O   0  0  0  0  0  0  0  0  0  0  0  0
  -10.4611  -10.6725   -5.7353 H   0  0  0  0  0  0  0  0  0  0  0  0
 14 15  1  0
 14 16  1  0
  2  3  1  0
  2  9  1  0
  2 15  1  0
  3  4  1  0
  4  5  1  0
  4  1  1  0
  1 17  1  0
 17 18  1  0
 17 24  1  0
 18 19  1  0
 18 20  1  0
 19 26  1  0
 20 22  1  0
 20 21  1  0
 21 27  1  0
 22 23  1  0
 23 24  1  0
 23 29  1  0
 29 30  1  0
 30 31  1  0
 24 25  1  0
 25 28  1  0
  5  6  1  0
  5  7  1  0
  6 11  1  0
  7  8  1  0
  7  9  1  0
  8 12  1  0
  9 10  1  0
 10 13  1  0
M  END
> <minimizedAffinity>
-5.06249

> <CNNscore>
0.5499811769

> <CNNaffinity>
3.1148831844

> <CNN_VS>
1.7131271362

> <CNNaffinity_variance>
0.3586524725

$$$$



 31 32  0  0  0  0  0  0  0  0999 V2000
   -4.3870  -11.6016   -9.8310 O   0  0  0  0  0  0  0  0  0  0  0  0
   -3.0497  -10.0893  -12.8470 C   0  0  0  0  0  0  0  0  0  0  0  0
   -3.2277  -10.4096  -11.4578 O   0  0  0  0  0  0  0  0  0  0  0  0
   -4.3075  -11.3092  -11.2280 C   0  0  0  0  0  0  0  0  0  0  0  0
   -5.6459  -10.6756  -11.6837 C   0  0  0  0  0  0  0  0  0  0  0  0
   -6.7527  -11.5742  -11.5091 O   0  0  0  0  0  0  0  0  0  0  0  0
   -5.5279  -10.2688  -13.1639 C   0  0  0  0  0  0  0  0  0  0  0  0
   -6.7018   -9.5964  -13.6335 O   0  0  0  0  0  0  0  0  0  0  0  0
   -4.2970   -9.3823  -13.3912 C   0  0  0  0  0  0  0  0  0  0  0  0
   -4.1227   -9.0786  -14.7756 O   0  0  0  0  0  0  0  0  0  0  0  0
   -6.6659  -12.3045  -12.1451 H   0  0  0  0  0  0  0  0  0  0  0  0
   -6.9124   -8.8752  -13.0123 H   0  0  0  0  0  0  0  0  0  0  0  0
   -4.7595   -9.6053  -15.2939 H   0  0  0  0  0  0  0  0  0  0  0  0
   -1.1123   -9.1399  -11.7379 O   0  0  0  0  0  0  0  0  0  0  0  0
   -1.8163   -9.1858  -12.9816 C   0  0  0  0  0  0  0  0  0  0  0  0
   -0.3712   -8.5224  -11.8660 H   0  0  0  0  0  0  0  0  0  0  0  0
   -5.6828  -12.0278   -9.3552 C   0  0  0  0  0  0  0  0  0  0  0  0
   -6.2364  -11.0931   -8.2550 C   0  0  0  0  0  0  0  0  0  0  0  0
   -6.6892   -9.8486   -8.8037 O   0  0  0  0  0  0  0  0  0  0  0  0
   -7.3768  -11.7592   -7.4595 C   0  0  0  0  0  0  0  0  0  0  0  0
   -7.7604  -10.9517   -6.3568 O   0  0  0  0  0  0  0  0  0  0  0  0
   -7.0150  -13.0389   -6.9772 O   0  0  0  0  0  0  0  0  0  0  0  0
   -6.7385  -13.9445   -8.0484 C   0  0  0  0  0  0  0  0  0  0  0  0
   -5.4934  -13.4717   -8.8187 C   0  0  0  0  0  0  0  0  0  0  0  0
   -5.2018  -14.4000   -9.8755 O   0  0  0  0  0  0  0  0  0  0  0  0
   -7.5409  -10.0036   -9.2685 H   0  0  0  0  0  0  0  0  0  0  0  0
   -6.9497  -10.5717   -5.9814 H   0  0  0  0  0  0  0  0  0  0  0  0
   -5.4473  -13.9898  -10.7259 H   0  0  0  0  0  0  0  0  0  0  0  0
   -6.5659  -15.3547   -7.4625 C   0  0  0  0  0  0  0  0  0  0  0  0
   -7.0871  -15.4640   -6.1428 O   0  0  0  0  0  0  0  0  0  0  0  0
   -7.9990  -15.1030   -6.1724 H   0  0  0  0  0  0  0  0  0  0  0  0
 14 15  1  0
 14 16  1  0
  2  3  1  0
  2  9  1  0
  2 15  1  0
  3  4  1  0
  4  5  1  0
  4  1  1  0
  1 17  1  0
 17 18  1  0
 17 24  1  0
 18 19  1  0
 18 20  1  0
 19 26  1  0
 20 22  1  0
 20 21  1  0
 21 27  1  0
 22 23  1  0
 23 24  1  0
 23 29  1  0
 29 30  1  0
 30 31  1  0
 24 25  1  0
 25 28  1  0
  5  6  1  0
  5  7  1  0
  6 11  1  0
  7  8  1  0
  7  9  1  0
  8 12  1  0
  9 10  1  0
 10 13  1  0
M  END
> <minimizedAffinity>
-6.79756

> <CNNscore>
0.5355973840

> <CNNaffinity>
3.2446517944

> <CNN_VS>
1.7378270626

> <CNNaffinity_variance>
0.4800553322

$$$$



 31 32  0  0  0  0  0  0  0  0999 V2000
   -6.3018  -12.0271   -8.3455 O   0  0  0  0  0  0  0  0  0  0  0  0
   -9.4782  -13.6276   -9.0673 C   0  0  0  0  0  0  0  0  0  0  0  0
   -8.2124  -12.9788   -9.2702 O   0  0  0  0  0  0  0  0  0  0  0  0
   -7.5646  -12.6290   -8.0512 C   0  0  0  0  0  0  0  0  0  0  0  0
   -8.4258  -11.6198   -7.2510 C   0  0  0  0  0  0  0  0  0  0  0  0
   -7.8238  -11.2794   -5.9922 O   0  0  0  0  0  0  0  0  0  0  0  0
   -9.8212  -12.2275   -7.0188 C   0  0  0  0  0  0  0  0  0  0  0  0
  -10.7036  -11.3143   -6.3569 O   0  0  0  0  0  0  0  0  0  0  0  0
  -10.4463  -12.6843   -8.3429 C   0  0  0  0  0  0  0  0  0  0  0  0
  -11.6983  -13.3372   -8.1296 O   0  0  0  0  0  0  0  0  0  0  0  0
   -7.8573  -12.0567   -5.4091 H   0  0  0  0  0  0  0  0  0  0  0  0
  -10.6863  -10.4666   -6.8379 H   0  0  0  0  0  0  0  0  0  0  0  0
  -11.8275  -13.4600   -7.1706 H   0  0  0  0  0  0  0  0  0  0  0  0
   -9.8557  -12.9615  -11.3692 O   0  0  0  0  0  0  0  0  0  0  0  0
  -10.0414  -14.0298  -10.4371 C   0  0  0  0  0  0  0  0  0  0  0  0
  -10.2681  -13.2504  -12.2018 H   0  0  0  0  0  0  0  0  0  0  0  0
   -5.7450  -12.3460   -9.6400 C   0  0  0  0  0  0  0  0  0  0  0  0
   -4.5793  -13.3568   -9.5402 C   0  0  0  0  0  0  0  0  0  0  0  0
   -5.0554  -14.6798   -9.2609 O   0  0  0  0  0  0  0  0  0  0  0  0
   -3.7224  -13.3696  -10.8219 C   0  0  0  0  0  0  0  0  0  0  0  0
   -2.5706  -14.1814  -10.6498 O   0  0  0  0  0  0  0  0  0  0  0  0
   -3.3068  -12.0712  -11.1994 O   0  0  0  0  0  0  0  0  0  0  0  0
   -4.4223  -11.2338  -11.5133 C   0  0  0  0  0  0  0  0  0  0  0  0
   -5.2676  -11.0007  -10.2490 C   0  0  0  0  0  0  0  0  0  0  0  0
   -6.3705  -10.1351  -10.5621 O   0  0  0  0  0  0  0  0  0  0  0  0
   -5.4606  -15.0450  -10.0782 H   0  0  0  0  0  0  0  0  0  0  0  0
   -2.2447  -14.0325   -9.7474 H   0  0  0  0  0  0  0  0  0  0  0  0
   -7.1878  -10.6676  -10.5807 H   0  0  0  0  0  0  0  0  0  0  0  0
   -3.8934   -9.9226  -12.1157 C   0  0  0  0  0  0  0  0  0  0  0  0
   -2.5253   -9.6908  -11.8001 O   0  0  0  0  0  0  0  0  0  0  0  0
   -2.0425  -10.5132  -12.0313 H   0  0  0  0  0  0  0  0  0  0  0  0
 14 15  1  0
 14 16  1  0
  2  3  1  0
  2  9  1  0
  2 15  1  0
  3  4  1  0
  4  5  1  0
  4  1  1  0
  1 17  1  0
 17 18  1  0
 17 24  1  0
 18 19  1  0
 18 20  1  0
 19 26  1  0
 20 22  1  0
 20 21  1  0
 21 27  1  0
 22 23  1  0
 23 24  1  0
 23 29  1  0
 29 30  1  0
 30 31  1  0
 24 25  1  0
 25 28  1  0
  5  6  1  0
  5  7  1  0
  6 11  1  0
  7  8  1  0
  7  9  1  0
  8 12  1  0
  9 10  1  0
 10 13  1  0
M  END
> <minimizedAffinity>
-4.97088

> <CNNscore>
0.5344893932

> <CNNaffinity>
2.5725355148

> <CNN_VS>
1.3749929667

> <CNNaffinity_variance>
0.8188464046

$$$$



 31 32  0  0  0  0  0  0  0  0999 V2000
   -4.9706   -9.8491   -9.9593 O   0  0  0  0  0  0  0  0  0  0  0  0
   -2.6742  -10.0451  -12.7629 C   0  0  0  0  0  0  0  0  0  0  0  0
   -3.1732   -9.8139  -11.4355 O   0  0  0  0  0  0  0  0  0  0  0  0
   -4.5695  -10.0658  -11.3142 C   0  0  0  0  0  0  0  0  0  0  0  0
   -5.3733   -9.1117  -12.2329 C   0  0  0  0  0  0  0  0  0  0  0  0
   -6.7850   -9.3687  -12.1708 O   0  0  0  0  0  0  0  0  0  0  0  0
   -4.8732   -9.2722  -13.6801 C   0  0  0  0  0  0  0  0  0  0  0  0
   -5.5135   -8.3572  -14.5764 O   0  0  0  0  0  0  0  0  0  0  0  0
   -3.3518   -9.0932  -13.7562 C   0  0  0  0  0  0  0  0  0  0  0  0
   -2.8646   -9.3356  -15.0765 O   0  0  0  0  0  0  0  0  0  0  0  0
   -6.9654  -10.2272  -12.5900 H   0  0  0  0  0  0  0  0  0  0  0  0
   -5.4433   -7.4599  -14.2020 H   0  0  0  0  0  0  0  0  0  0  0  0
   -3.5954   -9.6841  -15.6205 H   0  0  0  0  0  0  0  0  0  0  0  0
   -0.7510   -9.2905  -11.4913 O   0  0  0  0  0  0  0  0  0  0  0  0
   -1.1555   -9.8237  -12.7548 C   0  0  0  0  0  0  0  0  0  0  0  0
    0.2062   -9.1284  -11.5568 H   0  0  0  0  0  0  0  0  0  0  0  0
   -5.0200  -11.0288   -9.1267 C   0  0  0  0  0  0  0  0  0  0  0  0
   -4.7945  -12.3252   -9.9384 C   0  0  0  0  0  0  0  0  0  0  0  0
   -3.4195  -12.4751  -10.3151 O   0  0  0  0  0  0  0  0  0  0  0  0
   -5.2632  -13.5733   -9.1642 C   0  0  0  0  0  0  0  0  0  0  0  0
   -5.1969  -14.7298   -9.9849 O   0  0  0  0  0  0  0  0  0  0  0  0
   -6.5863  -13.4373   -8.6825 O   0  0  0  0  0  0  0  0  0  0  0  0
   -6.6958  -12.3630   -7.7456 C   0  0  0  0  0  0  0  0  0  0  0  0
   -6.4192  -11.0261   -8.4551 C   0  0  0  0  0  0  0  0  0  0  0  0
   -6.5591   -9.9471   -7.5171 O   0  0  0  0  0  0  0  0  0  0  0  0
   -2.9052  -12.7404   -9.5210 H   0  0  0  0  0  0  0  0  0  0  0  0
   -5.4851  -14.4691  -10.8746 H   0  0  0  0  0  0  0  0  0  0  0  0
   -5.6706   -9.6084   -7.2983 H   0  0  0  0  0  0  0  0  0  0  0  0
   -8.0938  -12.4114   -7.1092 C   0  0  0  0  0  0  0  0  0  0  0  0
   -8.2457  -11.4675   -6.0551 O   0  0  0  0  0  0  0  0  0  0  0  0
   -7.9483  -10.6025   -6.4104 H   0  0  0  0  0  0  0  0  0  0  0  0
 14 15  1  0
 14 16  1  0
  2  3  1  0
  2  9  1  0
  2 15  1  0
  3  4  1  0
  4  5  1  0
  4  1  1  0
  1 17  1  0
 17 18  1  0
 17 24  1  0
 18 19  1  0
 18 20  1  0
 19 26  1  0
 20 22  1  0
 20 21  1  0
 21 27  1  0
 22 23  1  0
 23 24  1  0
 23 29  1  0
 29 30  1  0
 30 31  1  0
 24 25  1  0
 25 28  1  0
  5  6  1  0
  5  7  1  0
  6 11  1  0
  7  8  1  0
  7  9  1  0
  8 12  1  0
  9 10  1  0
 10 13  1  0
M  END
> <minimizedAffinity>
-6.83852

> <CNNscore>
0.5186451077

> <CNNaffinity>
2.7262027264

> <CNN_VS>
1.4139317274

> <CNNaffinity_variance>
1.1316562891

$$$$



 31 32  0  0  0  0  0  0  0  0999 V2000
   -3.6524  -12.0241  -11.7986 O   0  0  0  0  0  0  0  0  0  0  0  0
   -5.3639  -13.5562   -8.9887 C   0  0  0  0  0  0  0  0  0  0  0  0
   -4.8611  -13.3510  -10.3189 O   0  0  0  0  0  0  0  0  0  0  0  0
   -4.1473  -12.1270  -10.4614 C   0  0  0  0  0  0  0  0  0  0  0  0
   -5.0785  -10.9215  -10.1781 C   0  0  0  0  0  0  0  0  0  0  0  0
   -4.3796   -9.6700  -10.2678 O   0  0  0  0  0  0  0  0  0  0  0  0
   -5.6909  -11.0820   -8.7747 C   0  0  0  0  0  0  0  0  0  0  0  0
   -6.6321  -10.0451   -8.4754 O   0  0  0  0  0  0  0  0  0  0  0  0
   -6.3641  -12.4521   -8.6249 C   0  0  0  0  0  0  0  0  0  0  0  0
   -6.8507  -12.6505   -7.2971 O   0  0  0  0  0  0  0  0  0  0  0  0
   -3.7581   -9.6048   -9.5228 H   0  0  0  0  0  0  0  0  0  0  0  0
   -7.2695   -9.9867   -9.2106 H   0  0  0  0  0  0  0  0  0  0  0  0
   -6.5391  -11.9154   -6.7367 H   0  0  0  0  0  0  0  0  0  0  0  0
   -6.1546  -15.3607   -7.5733 O   0  0  0  0  0  0  0  0  0  0  0  0
   -6.0381  -14.9338   -8.9329 C   0  0  0  0  0  0  0  0  0  0  0  0
   -6.5442  -16.2520   -7.5990 H   0  0  0  0  0  0  0  0  0  0  0  0
   -4.5604  -11.4370  -12.7567 C   0  0  0  0  0  0  0  0  0  0  0  0
   -5.2569  -12.5056  -13.6306 C   0  0  0  0  0  0  0  0  0  0  0  0
   -6.2646  -13.2099  -12.8933 O   0  0  0  0  0  0  0  0  0  0  0  0
   -5.8740  -11.8905  -14.9025 C   0  0  0  0  0  0  0  0  0  0  0  0
   -6.3655  -12.9050  -15.7654 O   0  0  0  0  0  0  0  0  0  0  0  0
   -4.9444  -11.1005  -15.6188 O   0  0  0  0  0  0  0  0  0  0  0  0
   -4.5035   -9.9804  -14.8474 C   0  0  0  0  0  0  0  0  0  0  0  0
   -3.7091  -10.4730  -13.6253 C   0  0  0  0  0  0  0  0  0  0  0  0
   -3.2429   -9.3439  -12.8693 O   0  0  0  0  0  0  0  0  0  0  0  0
   -7.0422  -12.6192  -12.7846 H   0  0  0  0  0  0  0  0  0  0  0  0
   -5.7318  -13.6400  -15.7371 H   0  0  0  0  0  0  0  0  0  0  0  0
   -3.7730   -9.2764  -12.0529 H   0  0  0  0  0  0  0  0  0  0  0  0
   -3.6729   -9.0597  -15.7552 C   0  0  0  0  0  0  0  0  0  0  0  0
   -3.6120   -7.7243  -15.2675 O   0  0  0  0  0  0  0  0  0  0  0  0
   -3.3411   -7.7832  -14.3262 H   0  0  0  0  0  0  0  0  0  0  0  0
 14 15  1  0
 14 16  1  0
  2  3  1  0
  2  9  1  0
  2 15  1  0
  3  4  1  0
  4  5  1  0
  4  1  1  0
  1 17  1  0
 17 18  1  0
 17 24  1  0
 18 19  1  0
 18 20  1  0
 19 26  1  0
 20 22  1  0
 20 21  1  0
 21 27  1  0
 22 23  1  0
 23 24  1  0
 23 29  1  0
 29 30  1  0
 30 31  1  0
 24 25  1  0
 25 28  1  0
  5  6  1  0
  5  7  1  0
  6 11  1  0
  7  8  1  0
  7  9  1  0
  8 12  1  0
  9 10  1  0
 10 13  1  0
M  END
> <minimizedAffinity>
-5.31357

> <CNNscore>
0.5031098127

> <CNNaffinity>
2.9302403927

> <CNN_VS>
1.4742326736

> <CNNaffinity_variance>
0.4855341017

$$$$



 31 32  0  0  0  0  0  0  0  0999 V2000
   -3.4821  -12.5918  -10.7199 O   0  0  0  0  0  0  0  0  0  0  0  0
   -6.4283  -12.4474   -8.6054 C   0  0  0  0  0  0  0  0  0  0  0  0
   -5.1722  -12.0878   -9.2031 O   0  0  0  0  0  0  0  0  0  0  0  0
   -4.7115  -13.0468  -10.1497 C   0  0  0  0  0  0  0  0  0  0  0  0
   -4.4684  -14.4132   -9.4610 C   0  0  0  0  0  0  0  0  0  0  0  0
   -4.0463  -15.4185  -10.3959 O   0  0  0  0  0  0  0  0  0  0  0  0
   -5.7656  -14.8580   -8.7612 C   0  0  0  0  0  0  0  0  0  0  0  0
   -5.5926  -16.0763   -8.0288 O   0  0  0  0  0  0  0  0  0  0  0  0
   -6.2865  -13.7601   -7.8253 C   0  0  0  0  0  0  0  0  0  0  0  0
   -7.5400  -14.1224   -7.2449 O   0  0  0  0  0  0  0  0  0  0  0  0
   -4.7922  -15.6346  -10.9809 H   0  0  0  0  0  0  0  0  0  0  0  0
   -4.8126  -15.9803   -7.4520 H   0  0  0  0  0  0  0  0  0  0  0  0
   -7.8544  -14.9436   -7.6672 H   0  0  0  0  0  0  0  0  0  0  0  0
   -6.6927  -10.0519   -8.3292 O   0  0  0  0  0  0  0  0  0  0  0  0
   -6.8636  -11.3099   -7.6716 C   0  0  0  0  0  0  0  0  0  0  0  0
   -6.9388   -9.3690   -7.6812 H   0  0  0  0  0  0  0  0  0  0  0  0
   -3.5410  -12.2198  -12.1147 C   0  0  0  0  0  0  0  0  0  0  0  0
   -2.7796  -13.2180  -13.0171 C   0  0  0  0  0  0  0  0  0  0  0  0
   -3.5038  -14.4461  -13.1673 O   0  0  0  0  0  0  0  0  0  0  0  0
   -2.4756  -12.6177  -14.4043 C   0  0  0  0  0  0  0  0  0  0  0  0
   -1.6408  -13.4850  -15.1566 O   0  0  0  0  0  0  0  0  0  0  0  0
   -1.8471  -11.3537  -14.3130 O   0  0  0  0  0  0  0  0  0  0  0  0
   -2.6919  -10.3924  -13.6754 C   0  0  0  0  0  0  0  0  0  0  0  0
   -2.9251  -10.7984  -12.2098 C   0  0  0  0  0  0  0  0  0  0  0  0
   -3.7500   -9.8148  -11.5649 O   0  0  0  0  0  0  0  0  0  0  0  0
   -4.2608  -14.2902  -13.7739 H   0  0  0  0  0  0  0  0  0  0  0  0
   -0.9895  -13.8625  -14.5435 H   0  0  0  0  0  0  0  0  0  0  0  0
   -4.6417  -10.1906  -11.4402 H   0  0  0  0  0  0  0  0  0  0  0  0
   -2.0384   -9.0075  -13.8040 C   0  0  0  0  0  0  0  0  0  0  0  0
   -1.5295   -8.5279  -12.5646 O   0  0  0  0  0  0  0  0  0  0  0  0
   -0.9763   -9.2481  -12.1929 H   0  0  0  0  0  0  0  0  0  0  0  0
 14 15  1  0
 14 16  1  0
  2  3  1  0
  2  9  1  0
  2 15  1  0
  3  4  1  0
  4  5  1  0
  4  1  1  0
  1 17  1  0
 17 18  1  0
 17 24  1  0
 18 19  1  0
 18 20  1  0
 19 26  1  0
 20 22  1  0
 20 21  1  0
 21 27  1  0
 22 23  1  0
 23 24  1  0
 23 29  1  0
 29 30  1  0
 30 31  1  0
 24 25  1  0
 25 28  1  0
  5  6  1  0
  5  7  1  0
  6 11  1  0
  7  8  1  0
  7  9  1  0
  8 12  1  0
  9 10  1  0
 10 13  1  0
M  END
> <minimizedAffinity>
-4.92918

> <CNNscore>
0.4683735669

> <CNNaffinity>
2.9053509235

> <CNN_VS>
1.3607895374

> <CNNaffinity_variance>
0.5424134731

$$$$
