@<TRIPOS>MOLECULE
*****
 43 45 0 0 0
SMALL
GASTEIGER

@<TRIPOS>ATOM
      1 P          22.7710   71.5396   -2.5567 P.3     1  UNL1        0.2189
      2 O          23.1384   73.0429   -3.0283 O.co2   1  UNL1       -0.4371
      3 O          23.5202   70.4513   -3.2679 O.2     1  UNL1       -0.5170
      4 O          21.1587   71.4777   -2.6778 O.3     1  UNL1       -0.3112
      5 C          20.5315   72.1951   -3.7265 C.3     1  UNL1        0.1811
      6 O          18.3950   72.3603   -4.8137 O.3     1  UNL1       -0.3308
      7 O          17.2708   70.9767   -2.4028 O.3     1  UNL1       -0.3794
      8 O          17.4333   68.9555   -4.2262 O.3     1  UNL1       -0.3779
      9 C          18.5265   70.7818   -3.0511 C.3     1  UNL1        0.1713
     10 C          18.3348   70.0359   -4.3552 C.3     1  UNL1        0.1895
     11 C          19.0225   72.1400   -3.5315 C.3     1  UNL1        0.1764
     12 C          17.8096   71.1297   -5.2695 C.3     1  UNL1        0.2383
     13 H          16.9342   70.1230   -2.0870 H       1  UNL1        0.2105
     14 H          17.8126   68.2865   -3.6353 H       1  UNL1        0.2106
     15 O          15.9909   70.4467   -7.3197 O.2     1  UNL1       -0.2464
     16 O          19.3277   70.3455  -10.4973 O.2     1  UNL1       -0.2670
     17 N          18.1758   70.9192   -6.6417 N.ar    1  UNL1       -0.2551
     18 N          17.6538   70.3970   -8.9003 N.ar    1  UNL1       -0.2743
     19 C          17.1858   70.5786   -7.5926 C.ar    1  UNL1        0.3323
     20 C          19.5038   71.0513   -7.0326 C.ar    1  UNL1        0.0869
     21 C          19.9340   70.8735   -8.2834 C.ar    1  UNL1        0.0795
     22 C          18.9634   70.5157   -9.3379 C.ar    1  UNL1        0.2626
     23 H          16.9820   70.1588   -9.5797 H       1  UNL1        0.1734
     24 O          23.0136   71.5903   -0.9593 O.3     1  UNL1       -0.2703
     25 P          22.4640   70.6417    0.2285 P.3     1  UNL1        0.2208
     26 O          23.6415   69.5461    0.4033 O.co2   1  UNL1       -0.4371
     27 O          21.1063   70.0555   -0.0304 O.2     1  UNL1       -0.5170
     28 O          22.5562   71.5546    1.5562 O.3     1  UNL1       -0.2858
     29 O          21.4935   72.3774    3.5082 O.3     1  UNL1       -0.3258
     30 O          21.2664   75.7637    1.1562 O.3     1  UNL1       -0.3794
     31 O          23.1048   75.6897    3.3614 O.3     1  UNL1       -0.3794
     32 O          20.8825   73.1521   -0.0319 O.3     1  UNL1       -0.3775
     33 C          21.8600   74.5631    1.6578 C.3     1  UNL1        0.1715
     34 C          22.0734   74.7266    3.1639 C.3     1  UNL1        0.1694
     35 C          20.9274   73.3877    1.3713 C.3     1  UNL1        0.1967
     36 C          22.4564   73.3919    3.8173 C.3     1  UNL1        0.1761
     37 C          21.3709   72.1223    2.1076 C.3     1  UNL1        0.2704
     38 H          21.8539   76.5139    1.3344 H       1  UNL1        0.2105
     39 H          22.8508   76.5276    2.9436 H       1  UNL1        0.2105
     40 H          20.6002   73.9604   -0.4865 H       1  UNL1        0.2106
     41 O          21.2623   73.1206    5.8690 O.3     1  UNL1       -0.3794
     42 C          22.5200   73.4976    5.3394 C.3     1  UNL1        0.1693
     43 H          21.2881   73.1828    6.8371 H       1  UNL1        0.2105
@<TRIPOS>UNITY_ATOM_ATTR
2 1
charge -1
26 1
charge -1
@<TRIPOS>BOND
     1    25    28    1
     2    25    24    1
     3    25    26    1
     4    25    27    2
     5     1     4    1
     6     1    24    1
     7     1     2    1
     8     1     3    2
     9     6    11    1
    10     6    12    1
    11    29    36    1
    12    29    37    1
    13     7     9    1
    14     7    13    1
    15     8    10    1
    16     8    14    1
    17    28    37    1
    18     4     5    1
    19    30    33    1
    20    30    38    1
    21    31    34    1
    22    31    39    1
    23    32    35    1
    24    32    40    1
    25    41    42    1
    26    41    43    1
    27    15    19    2
    28    16    22    2
    29    17    12    1
    30    17    19   ar
    31    17    20   ar
    32    18    19   ar
    33    18    22   ar
    34    18    23    1
    35     9    10    1
    36     9    11    1
    37    10    12    1
    38    11     5    1
    39    33    34    1
    40    33    35    1
    41    34    36    1
    42    35    37    1
    43    36    42    1
    44    20    21   ar
    45    21    22   ar
@<TRIPOS>MOLECULE
*****
 43 45 0 0 0
SMALL
GASTEIGER

@<TRIPOS>ATOM
      1 P          22.8549   71.8344   -2.3992 P.3     1  UNL1        0.2189
      2 O          23.6152   73.2587   -2.5027 O.co2   1  UNL1       -0.4371
      3 O          23.4235   70.7481   -3.2640 O.2     1  UNL1       -0.5170
      4 O          21.3019   72.2029   -2.6642 O.3     1  UNL1       -0.3112
      5 C          20.5729   71.4270   -3.5993 C.3     1  UNL1        0.1811
      6 O          18.6239   72.2224   -4.7579 O.3     1  UNL1       -0.3308
      7 O          17.0327   71.0277   -2.5148 O.3     1  UNL1       -0.3794
      8 O          16.7752   69.1612   -4.4861 O.3     1  UNL1       -0.3779
      9 C          18.2318   70.5516   -3.1237 C.3     1  UNL1        0.1713
     10 C          17.9330   69.9713   -4.4903 C.3     1  UNL1        0.1895
     11 C          19.0925   71.7595   -3.4724 C.3     1  UNL1        0.1764
     12 C          17.7676   71.2232   -5.3350 C.3     1  UNL1        0.2383
     13 H          16.4669   70.2741   -2.2828 H       1  UNL1        0.2105
     14 H          16.9304   68.3779   -3.9355 H       1  UNL1        0.2106
     15 O          16.0080   70.3639   -7.3705 O.2     1  UNL1       -0.2464
     16 O          19.3451   70.4577  -10.5479 O.2     1  UNL1       -0.2670
     17 N          18.1498   71.0152   -6.7032 N.ar    1  UNL1       -0.2551
     18 N          17.6710   70.4115   -8.9510 N.ar    1  UNL1       -0.2743
     19 C          17.1895   70.5817   -7.6467 C.ar    1  UNL1        0.3323
     20 C          19.4641   71.2410   -7.0975 C.ar    1  UNL1        0.0869
     21 C          19.9076   71.0729   -8.3450 C.ar    1  UNL1        0.0795
     22 C          18.9680   70.6217   -9.3917 C.ar    1  UNL1        0.2626
     23 H          17.0199   70.1096   -9.6253 H       1  UNL1        0.1734
     24 O          22.8880   71.5190   -0.8141 O.3     1  UNL1       -0.2703
     25 P          22.0391   70.4718    0.0779 P.3     1  UNL1        0.2208
     26 O          23.1799   69.5211    0.7200 O.co2   1  UNL1       -0.4371
     27 O          20.9757   69.7351   -0.6840 O.2     1  UNL1       -0.5170
     28 O          21.4894   71.3444    1.3194 O.3     1  UNL1       -0.2858
     29 O          21.9536   73.6134    0.8167 O.3     1  UNL1       -0.3258
     30 O          20.2842   74.0956    4.5626 O.3     1  UNL1       -0.3794
     31 O          18.8011   74.8928    2.2360 O.3     1  UNL1       -0.3794
     32 O          22.0130   71.8352    4.0323 O.3     1  UNL1       -0.3775
     33 C          20.4421   73.4960    3.2738 C.3     1  UNL1        0.1715
     34 C          20.1882   74.5677    2.2119 C.3     1  UNL1        0.1694
     35 C          21.8606   72.9428    3.1511 C.3     1  UNL1        0.1967
     36 C          20.5972   74.0738    0.8176 C.3     1  UNL1        0.1761
     37 C          22.1819   72.5257    1.7148 C.3     1  UNL1        0.2704
     38 H          19.3854   74.4485    4.6472 H       1  UNL1        0.2105
     39 H          18.5558   75.2027    3.1220 H       1  UNL1        0.2105
     40 H          21.8072   72.1122    4.9383 H       1  UNL1        0.2106
     41 O          21.8105   75.6101   -0.5523 O.3     1  UNL1       -0.3794
     42 C          20.5006   75.1791   -0.2317 C.3     1  UNL1        0.1693
     43 H          21.7646   76.3133   -1.2194 H       1  UNL1        0.2105
@<TRIPOS>UNITY_ATOM_ATTR
2 1
charge -1
26 1
charge -1
@<TRIPOS>BOND
     1    25    28    1
     2    25    24    1
     3    25    26    1
     4    25    27    2
     5     1     4    1
     6     1    24    1
     7     1     2    1
     8     1     3    2
     9     6    11    1
    10     6    12    1
    11    29    36    1
    12    29    37    1
    13     7     9    1
    14     7    13    1
    15     8    10    1
    16     8    14    1
    17    28    37    1
    18     4     5    1
    19    30    33    1
    20    30    38    1
    21    31    34    1
    22    31    39    1
    23    32    35    1
    24    32    40    1
    25    41    42    1
    26    41    43    1
    27    15    19    2
    28    16    22    2
    29    17    12    1
    30    17    19   ar
    31    17    20   ar
    32    18    19   ar
    33    18    22   ar
    34    18    23    1
    35     9    10    1
    36     9    11    1
    37    10    12    1
    38    11     5    1
    39    33    34    1
    40    33    35    1
    41    34    36    1
    42    35    37    1
    43    36    42    1
    44    20    21   ar
    45    21    22   ar
@<TRIPOS>MOLECULE
*****
 43 45 0 0 0
SMALL
GASTEIGER

@<TRIPOS>ATOM
      1 P          21.5212   73.5581   -4.6455 P.3     1  UNL1        0.2189
      2 O          21.4023   75.1071   -5.0971 O.co2   1  UNL1       -0.4371
      3 O          22.6014   72.7780   -5.3356 O.2     1  UNL1       -0.5170
      4 O          20.0184   72.9854   -4.8226 O.3     1  UNL1       -0.3112
      5 C          19.0373   73.3550   -3.8693 C.3     1  UNL1        0.1811
      6 O          17.5183   71.7171   -4.7546 O.3     1  UNL1       -0.3308
      7 O          18.1308   70.0990   -2.3056 O.3     1  UNL1       -0.3794
      8 O          19.6737   68.9028   -4.2096 O.3     1  UNL1       -0.3779
      9 C          18.9931   70.9399   -3.0703 C.3     1  UNL1        0.1713
     10 C          19.3567   70.2694   -4.3786 C.3     1  UNL1        0.1895
     11 C          18.1808   72.1394   -3.5425 C.3     1  UNL1        0.1764
     12 C          18.0970   70.4800   -5.2014 C.3     1  UNL1        0.2383
     13 H          18.6274   69.3260   -1.9928 H       1  UNL1        0.2105
     14 H          20.4821   68.8213   -3.6801 H       1  UNL1        0.2106
     15 O          16.1484   70.2087   -7.2281 O.2     1  UNL1       -0.2464
     16 O          19.2622   70.8591  -10.5631 O.2     1  UNL1       -0.2670
     17 N          18.3707   70.5743   -6.6077 N.ar    1  UNL1       -0.2551
     18 N          17.7004   70.5330   -8.8870 N.ar    1  UNL1       -0.2743
     19 C          17.3209   70.4220   -7.5432 C.ar    1  UNL1        0.3323
     20 C          19.6680   70.8157   -7.0465 C.ar    1  UNL1        0.0869
     21 C          20.0135   70.9175   -8.3316 C.ar    1  UNL1        0.0795
     22 C          18.9763   70.7709   -9.3730 C.ar    1  UNL1        0.2626
     23 H          16.9858   70.4300   -9.5567 H       1  UNL1        0.1734
     24 O          21.6849   73.6589   -3.0405 O.3     1  UNL1       -0.2703
     25 P          22.7026   72.9153   -2.0285 P.3     1  UNL1        0.2208
     26 O          24.0401   73.8215   -2.1151 O.co2   1  UNL1       -0.4371
     27 O          22.9192   71.4610   -2.3319 O.2     1  UNL1       -0.5170
     28 O          22.1050   73.2101   -0.5585 O.3     1  UNL1       -0.2858
     29 O          23.3711   74.1374    1.2174 O.3     1  UNL1       -0.3258
     30 O          20.5844   72.0340    3.4221 O.3     1  UNL1       -0.3794
     31 O          20.4396   74.9004    3.3180 O.3     1  UNL1       -0.3794
     32 O          21.6385   70.9057    0.9736 O.3     1  UNL1       -0.3775
     33 C          21.0532   72.8153    2.3197 C.3     1  UNL1        0.1715
     34 C          21.5630   74.1521    2.8618 C.3     1  UNL1        0.1694
     35 C          22.1761   72.0582    1.6131 C.3     1  UNL1        0.1967
     36 C          22.3232   74.9341    1.7821 C.3     1  UNL1        0.1761
     37 C          22.8988   72.9413    0.5943 C.3     1  UNL1        0.2704
     38 H          19.8709   72.5089    3.8748 H       1  UNL1        0.2105
     39 H          19.9681   74.3953    3.9990 H       1  UNL1        0.2105
     40 H          21.1839   70.3547    1.6291 H       1  UNL1        0.2106
     41 O          22.9659   76.1174    3.7557 O.3     1  UNL1       -0.3794
     42 C          22.9749   76.1964    2.3422 C.3     1  UNL1        0.1693
     43 H          23.3780   76.9141    4.1261 H       1  UNL1        0.2105
@<TRIPOS>UNITY_ATOM_ATTR
2 1
charge -1
26 1
charge -1
@<TRIPOS>BOND
     1    25    28    1
     2    25    24    1
     3    25    26    1
     4    25    27    2
     5     1     4    1
     6     1    24    1
     7     1     2    1
     8     1     3    2
     9     6    11    1
    10     6    12    1
    11    29    36    1
    12    29    37    1
    13     7     9    1
    14     7    13    1
    15     8    10    1
    16     8    14    1
    17    28    37    1
    18     4     5    1
    19    30    33    1
    20    30    38    1
    21    31    34    1
    22    31    39    1
    23    32    35    1
    24    32    40    1
    25    41    42    1
    26    41    43    1
    27    15    19    2
    28    16    22    2
    29    17    12    1
    30    17    19   ar
    31    17    20   ar
    32    18    19   ar
    33    18    22   ar
    34    18    23    1
    35     9    10    1
    36     9    11    1
    37    10    12    1
    38    11     5    1
    39    33    34    1
    40    33    35    1
    41    34    36    1
    42    35    37    1
    43    36    42    1
    44    20    21   ar
    45    21    22   ar
@<TRIPOS>MOLECULE
*****
 43 45 0 0 0
SMALL
GASTEIGER

@<TRIPOS>ATOM
      1 P          22.4051   71.5094   -2.9654 P.3     1  UNL1        0.2189
      2 O          23.7414   70.6662   -3.3128 O.co2   1  UNL1       -0.4371
      3 O          21.1209   70.8735   -3.4104 O.2     1  UNL1       -0.5170
      4 O          22.7065   72.9805   -3.5679 O.3     1  UNL1       -0.3112
      5 C          21.8118   73.5139   -4.5285 C.3     1  UNL1        0.1811
      6 O          21.8097   72.2227   -6.5549 O.3     1  UNL1       -0.3308
      7 O          23.1622   74.5737   -7.8333 O.3     1  UNL1       -0.3794
      8 O          20.5769   74.8570   -8.6533 O.3     1  UNL1       -0.3779
      9 C          22.1518   74.5519   -6.8264 C.3     1  UNL1        0.1713
     10 C          20.8131   74.1857   -7.4326 C.3     1  UNL1        0.1895
     11 C          22.4240   73.3622   -5.9142 C.3     1  UNL1        0.1764
     12 C          20.9475   72.6826   -7.6084 C.3     1  UNL1        0.2383
     13 H          23.0096   75.3254   -8.4280 H       1  UNL1        0.2105
     14 H          20.4989   75.8097   -8.4887 H       1  UNL1        0.2106
     15 O          19.1521   72.3255   -9.7595 O.2     1  UNL1       -0.2464
     16 O          16.1357   70.0665   -7.1062 O.2     1  UNL1       -0.2670
     17 N          19.6859   72.0046   -7.5080 N.ar    1  UNL1       -0.2551
     18 N          17.6517   71.2008   -8.4366 N.ar    1  UNL1       -0.2743
     19 C          18.8581   71.8804   -8.6481 C.ar    1  UNL1        0.3323
     20 C          19.2811   71.4710   -6.2893 C.ar    1  UNL1        0.0869
     21 C          18.1269   70.8270   -6.1039 C.ar    1  UNL1        0.0795
     22 C          17.2042   70.6539   -7.2444 C.ar    1  UNL1        0.2626
     23 H          17.0587   71.1025   -9.2166 H       1  UNL1        0.1734
     24 O          22.5246   71.7388   -1.3698 O.3     1  UNL1       -0.2703
     25 P          21.3962   71.7574   -0.2125 P.3     1  UNL1        0.2208
     26 O          21.2280   70.1937    0.1670 O.co2   1  UNL1       -0.4371
     27 O          20.1189   72.4391   -0.6095 O.2     1  UNL1       -0.5170
     28 O          22.1333   72.4103    1.0663 O.3     1  UNL1       -0.2858
     29 O          21.6761   73.6164    3.0545 O.3     1  UNL1       -0.3258
     30 O          24.3042   76.2554    1.2714 O.3     1  UNL1       -0.3794
     31 O          25.1570   74.7254    3.5473 O.3     1  UNL1       -0.3794
     32 O          22.3766   74.8235   -0.3452 O.3     1  UNL1       -0.3775
     33 C          23.7774   74.9694    1.6087 C.3     1  UNL1        0.1715
     34 C          23.7978   74.8273    3.1320 C.3     1  UNL1        0.1694
     35 C          22.3493   74.8600    1.0776 C.3     1  UNL1        0.1967
     36 C          23.0069   73.5922    3.5838 C.3     1  UNL1        0.1761
     37 C          21.6359   73.6229    1.6262 C.3     1  UNL1        0.2704
     38 H          25.2110   76.3312    1.6053 H       1  UNL1        0.2105
     39 H          25.6453   75.5112    3.2554 H       1  UNL1        0.2105
     40 H          22.8305   75.6120   -0.6801 H       1  UNL1        0.2106
     41 O          21.6889   72.8246    5.4229 O.3     1  UNL1       -0.3794
     42 C          22.8811   73.5182    5.1039 C.3     1  UNL1        0.1693
     43 H          21.5958   72.7695    6.3873 H       1  UNL1        0.2105
@<TRIPOS>UNITY_ATOM_ATTR
2 1
charge -1
26 1
charge -1
@<TRIPOS>BOND
     1    25    28    1
     2    25    24    1
     3    25    26    1
     4    25    27    2
     5     1     4    1
     6     1    24    1
     7     1     2    1
     8     1     3    2
     9     6    11    1
    10     6    12    1
    11    29    36    1
    12    29    37    1
    13     7     9    1
    14     7    13    1
    15     8    10    1
    16     8    14    1
    17    28    37    1
    18     4     5    1
    19    30    33    1
    20    30    38    1
    21    31    34    1
    22    31    39    1
    23    32    35    1
    24    32    40    1
    25    41    42    1
    26    41    43    1
    27    15    19    2
    28    16    22    2
    29    17    12    1
    30    17    19   ar
    31    17    20   ar
    32    18    19   ar
    33    18    22   ar
    34    18    23    1
    35     9    10    1
    36     9    11    1
    37    10    12    1
    38    11     5    1
    39    33    34    1
    40    33    35    1
    41    34    36    1
    42    35    37    1
    43    36    42    1
    44    20    21   ar
    45    21    22   ar
@<TRIPOS>MOLECULE
*****
 43 45 0 0 0
SMALL
GASTEIGER

@<TRIPOS>ATOM
      1 P          23.0562   72.1139   -3.4027 P.3     1  UNL1        0.2189
      2 O          23.5955   72.8076   -4.7611 O.co2   1  UNL1       -0.4371
      3 O          23.5441   70.7143   -3.1690 O.2     1  UNL1       -0.5170
      4 O          21.4504   72.2935   -3.4859 O.3     1  UNL1       -0.3112
      5 C          20.6419   71.1311   -3.5394 C.3     1  UNL1        0.1811
      6 O          18.7396   72.0583   -4.6775 O.3     1  UNL1       -0.3308
      7 O          17.0833   70.8879   -2.4689 O.3     1  UNL1       -0.3794
      8 O          16.7331   69.0914   -4.4904 O.3     1  UNL1       -0.3779
      9 C          18.2573   70.3666   -3.0896 C.3     1  UNL1        0.1713
     10 C          17.9316   69.8398   -4.4716 C.3     1  UNL1        0.1895
     11 C          19.1806   71.5368   -3.4047 C.3     1  UNL1        0.1764
     12 C          17.8335   71.1211   -5.2821 C.3     1  UNL1        0.2383
     13 H          16.4784   70.1588   -2.2579 H       1  UNL1        0.2105
     14 H          16.8460   68.2865   -3.9611 H       1  UNL1        0.2106
     15 O          16.0349   70.4164   -7.3428 O.2     1  UNL1       -0.2464
     16 O          19.3805   70.4155  -10.5127 O.2     1  UNL1       -0.2670
     17 N          18.2074   70.9305   -6.6552 N.ar    1  UNL1       -0.2551
     18 N          17.7022   70.4167   -8.9195 N.ar    1  UNL1       -0.2743
     19 C          17.2273   70.5767   -7.6115 C.ar    1  UNL1        0.3323
     20 C          19.5332   71.0949   -7.0416 C.ar    1  UNL1        0.0869
     21 C          19.9700   70.9374   -8.2928 C.ar    1  UNL1        0.0795
     22 C          19.0099   70.5677   -9.3528 C.ar    1  UNL1        0.2626
     23 H          17.0373   70.1698   -9.6027 H       1  UNL1        0.1734
     24 O          23.4816   73.1744   -2.2593 O.3     1  UNL1       -0.2703
     25 P          22.8516   74.6062   -1.8521 P.3     1  UNL1        0.2208
     26 O          21.5560   74.7283   -2.8134 O.co2   1  UNL1       -0.4371
     27 O          23.8128   75.7544   -1.9596 O.2     1  UNL1       -0.5170
     28 O          22.2430   74.3795   -0.3746 O.3     1  UNL1       -0.2858
     29 O          21.5517   72.1214   -0.1745 O.3     1  UNL1       -0.3258
     30 O          20.1831   73.5540    3.4484 O.3     1  UNL1       -0.3794
     31 O          22.4796   71.8308    3.3812 O.3     1  UNL1       -0.3794
     32 O          19.9864   75.2020    1.0768 O.3     1  UNL1       -0.3775
     33 C          21.0789   73.4645    2.3372 C.3     1  UNL1        0.1715
     34 C          21.6146   72.0331    2.2672 C.3     1  UNL1        0.1694
     35 C          20.3239   73.8192    1.0576 C.3     1  UNL1        0.1967
     36 C          22.3689   71.7875    0.9535 C.3     1  UNL1        0.1761
     37 C          21.1438   73.4909   -0.1915 C.3     1  UNL1        0.2704
     38 H          20.6564   73.3304    4.2642 H       1  UNL1        0.2105
     39 H          21.9912   71.9894    4.2043 H       1  UNL1        0.2105
     40 H          19.4673   75.3970    1.8720 H       1  UNL1        0.2106
     41 O          21.6015   69.5431    0.6662 O.3     1  UNL1       -0.3794
     42 C          22.7754   70.3243    0.7922 C.3     1  UNL1        0.1693
     43 H          21.8448   68.6094    0.5625 H       1  UNL1        0.2105
@<TRIPOS>UNITY_ATOM_ATTR
2 1
charge -1
26 1
charge -1
@<TRIPOS>BOND
     1    25    28    1
     2    25    24    1
     3    25    26    1
     4    25    27    2
     5     1     4    1
     6     1    24    1
     7     1     2    1
     8     1     3    2
     9     6    11    1
    10     6    12    1
    11    29    36    1
    12    29    37    1
    13     7     9    1
    14     7    13    1
    15     8    10    1
    16     8    14    1
    17    28    37    1
    18     4     5    1
    19    30    33    1
    20    30    38    1
    21    31    34    1
    22    31    39    1
    23    32    35    1
    24    32    40    1
    25    41    42    1
    26    41    43    1
    27    15    19    2
    28    16    22    2
    29    17    12    1
    30    17    19   ar
    31    17    20   ar
    32    18    19   ar
    33    18    22   ar
    34    18    23    1
    35     9    10    1
    36     9    11    1
    37    10    12    1
    38    11     5    1
    39    33    34    1
    40    33    35    1
    41    34    36    1
    42    35    37    1
    43    36    42    1
    44    20    21   ar
    45    21    22   ar
@<TRIPOS>MOLECULE
*****
 43 45 0 0 0
SMALL
GASTEIGER

@<TRIPOS>ATOM
      1 P          21.5108   70.4421   -1.0299 P.3     1  UNL1        0.2189
      2 O          22.9220   71.1175   -1.4419 O.co2   1  UNL1       -0.4371
      3 O          21.5304   69.6666    0.2545 O.2     1  UNL1       -0.5170
      4 O          21.0799   69.6082   -2.3477 O.3     1  UNL1       -0.3112
      5 C          20.7490   70.3260   -3.5238 C.3     1  UNL1        0.1811
      6 O          19.0491   71.6697   -4.5623 O.3     1  UNL1       -0.3308
      7 O          17.2010   70.6408   -2.4370 O.3     1  UNL1       -0.3794
      8 O          16.5401   69.1071   -4.5928 O.3     1  UNL1       -0.3779
      9 C          18.2640   69.9690   -3.1107 C.3     1  UNL1        0.1713
     10 C          17.8538   69.6236   -4.5271 C.3     1  UNL1        0.1895
     11 C          19.3843   70.9757   -3.3407 C.3     1  UNL1        0.1764
     12 C          17.9912   70.9631   -5.2305 C.3     1  UNL1        0.2383
     13 H          16.4738   70.0178   -2.2789 H       1  UNL1        0.2105
     14 H          16.5042   68.2547   -4.1314 H       1  UNL1        0.2106
     15 O          16.1138   70.5170   -7.2931 O.2     1  UNL1       -0.2464
     16 O          19.4043   70.4311  -10.5191 O.2     1  UNL1       -0.2670
     17 N          18.3296   70.8207   -6.6185 N.ar    1  UNL1       -0.2551
     18 N          17.7537   70.4748   -8.8978 N.ar    1  UNL1       -0.2743
     19 C          17.3113   70.5983   -7.5745 C.ar    1  UNL1        0.3323
     20 C          19.6587   70.9022   -7.0196 C.ar    1  UNL1        0.0869
     21 C          20.0642   70.7809   -8.2853 C.ar    1  UNL1        0.0795
     22 C          19.0631   70.5470   -9.3460 C.ar    1  UNL1        0.2626
     23 H          17.0619   70.3190   -9.5811 H       1  UNL1        0.1734
     24 O          20.4903   71.6957   -1.0433 O.3     1  UNL1       -0.2703
     25 P          20.7070   73.2454   -0.6378 P.3     1  UNL1        0.2208
     26 O          19.2040   73.8440   -0.6432 O.co2   1  UNL1       -0.4371
     27 O          21.6708   73.9835   -1.5211 O.2     1  UNL1       -0.5170
     28 O          21.1243   73.2053    0.9208 O.3     1  UNL1       -0.2858
     29 O          20.2931   74.6149    2.6351 O.3     1  UNL1       -0.3258
     30 O          24.0847   73.9332    4.1217 O.3     1  UNL1       -0.3794
     31 O          21.8229   72.6910    5.3823 O.3     1  UNL1       -0.3794
     32 O          23.6911   74.2827    1.2753 O.3     1  UNL1       -0.3775
     33 C          22.8747   73.6000    3.4360 C.3     1  UNL1        0.1715
     34 C          21.7120   73.7369    4.4210 C.3     1  UNL1        0.1694
     35 C          22.6928   74.5505    2.2541 C.3     1  UNL1        0.1967
     36 C          20.3609   73.6568    3.6977 C.3     1  UNL1        0.1761
     37 C          21.2985   74.4248    1.6376 C.3     1  UNL1        0.2704
     38 H          24.2064   73.3330    4.8731 H       1  UNL1        0.2105
     39 H          22.6805   72.7527    5.8315 H       1  UNL1        0.2105
     40 H          24.5691   74.3659    1.6779 H       1  UNL1        0.2106
     41 O          19.3400   73.1536    5.7985 O.3     1  UNL1       -0.3794
     42 C          19.1917   73.9479    4.6360 C.3     1  UNL1        0.1693
     43 H          18.6030   73.3286    6.4051 H       1  UNL1        0.2105
@<TRIPOS>UNITY_ATOM_ATTR
2 1
charge -1
26 1
charge -1
@<TRIPOS>BOND
     1    25    28    1
     2    25    24    1
     3    25    26    1
     4    25    27    2
     5     1     4    1
     6     1    24    1
     7     1     2    1
     8     1     3    2
     9     6    11    1
    10     6    12    1
    11    29    36    1
    12    29    37    1
    13     7     9    1
    14     7    13    1
    15     8    10    1
    16     8    14    1
    17    28    37    1
    18     4     5    1
    19    30    33    1
    20    30    38    1
    21    31    34    1
    22    31    39    1
    23    32    35    1
    24    32    40    1
    25    41    42    1
    26    41    43    1
    27    15    19    2
    28    16    22    2
    29    17    12    1
    30    17    19   ar
    31    17    20   ar
    32    18    19   ar
    33    18    22   ar
    34    18    23    1
    35     9    10    1
    36     9    11    1
    37    10    12    1
    38    11     5    1
    39    33    34    1
    40    33    35    1
    41    34    36    1
    42    35    37    1
    43    36    42    1
    44    20    21   ar
    45    21    22   ar
@<TRIPOS>MOLECULE
*****
 43 45 0 0 0
SMALL
GASTEIGER

@<TRIPOS>ATOM
      1 P          21.7270   73.9027   -5.5117 P.3     1  UNL1        0.2189
      2 O          21.7275   75.0932   -4.4162 O.co2   1  UNL1       -0.4371
      3 O          22.6893   74.0869   -6.6482 O.2     1  UNL1       -0.5170
      4 O          20.1698   73.7569   -5.9262 O.3     1  UNL1       -0.3112
      5 C          19.7404   74.3239   -7.1517 C.3     1  UNL1        0.1811
      6 O          19.9439   71.9654   -7.5639 O.3     1  UNL1       -0.3308
      7 O          18.4736   72.4764  -10.1267 O.3     1  UNL1       -0.3794
      8 O          16.5196   71.4736   -8.5103 O.3     1  UNL1       -0.3779
      9 C          18.3028   73.0910   -8.8506 C.3     1  UNL1        0.1713
     10 C          17.6044   72.1419   -7.8992 C.3     1  UNL1        0.1895
     11 C          19.6776   73.2300   -8.2090 C.3     1  UNL1        0.1764
     12 C          18.7302   71.1977   -7.5132 C.3     1  UNL1        0.2383
     13 H          17.6088   72.3773  -10.5561 H       1  UNL1        0.2105
     14 H          15.8298   72.1166   -8.7371 H       1  UNL1        0.2106
     15 O          16.2438   70.5243   -6.3547 O.2     1  UNL1       -0.2464
     16 O          18.2346   69.1684   -2.4254 O.2     1  UNL1       -0.2670
     17 N          18.5696   70.6663   -6.1891 N.ar    1  UNL1       -0.2551
     18 N          17.2371   69.8496   -4.3992 N.ar    1  UNL1       -0.2743
     19 C          17.2770   70.3624   -5.7021 C.ar    1  UNL1        0.3323
     20 C          19.6862   70.4514   -5.3885 C.ar    1  UNL1        0.0869
     21 C          19.6310   69.9630   -4.1477 C.ar    1  UNL1        0.0795
     22 C          18.3185   69.6193   -3.5636 C.ar    1  UNL1        0.2626
     23 H          16.3471   69.6309   -4.0387 H       1  UNL1        0.1734
     24 O          21.9894   72.5836   -4.6151 O.3     1  UNL1       -0.2703
     25 P          23.1049   72.2709   -3.4878 P.3     1  UNL1        0.2208
     26 O          24.3341   73.2369   -3.9042 O.co2   1  UNL1       -0.4371
     27 O          23.4704   70.8196   -3.3697 O.2     1  UNL1       -0.5170
     28 O          22.5133   72.9239   -2.1355 O.3     1  UNL1       -0.2858
     29 O          21.6010   71.3211   -0.6470 O.3     1  UNL1       -0.3258
     30 O          20.1750   74.7628    1.1342 O.3     1  UNL1       -0.3794
     31 O          22.2981   73.2914    2.3896 O.3     1  UNL1       -0.3794
     32 O          20.2677   74.5625   -1.7521 O.3     1  UNL1       -0.3775
     33 C          21.1188   73.9606    0.4192 C.3     1  UNL1        0.1715
     34 C          21.5194   72.7830    1.3100 C.3     1  UNL1        0.1694
     35 C          20.4731   73.4624   -0.8724 C.3     1  UNL1        0.1967
     36 C          22.3189   71.7379    0.5203 C.3     1  UNL1        0.1761
     37 C          21.3264   72.3909   -1.5537 C.3     1  UNL1        0.2704
     38 H          20.5789   75.0827    1.9552 H       1  UNL1        0.2105
     39 H          21.7819   73.9506    2.8797 H       1  UNL1        0.2105
     40 H          19.7260   75.2337   -1.3094 H       1  UNL1        0.2106
     41 O          22.8390   69.4066    0.4611 O.3     1  UNL1       -0.3794
     42 C          22.5932   70.4834    1.3468 C.3     1  UNL1        0.1693
     43 H          23.0155   68.6014    0.9732 H       1  UNL1        0.2105
@<TRIPOS>UNITY_ATOM_ATTR
2 1
charge -1
26 1
charge -1
@<TRIPOS>BOND
     1    25    28    1
     2    25    24    1
     3    25    26    1
     4    25    27    2
     5     1     4    1
     6     1    24    1
     7     1     2    1
     8     1     3    2
     9     6    11    1
    10     6    12    1
    11    29    36    1
    12    29    37    1
    13     7     9    1
    14     7    13    1
    15     8    10    1
    16     8    14    1
    17    28    37    1
    18     4     5    1
    19    30    33    1
    20    30    38    1
    21    31    34    1
    22    31    39    1
    23    32    35    1
    24    32    40    1
    25    41    42    1
    26    41    43    1
    27    15    19    2
    28    16    22    2
    29    17    12    1
    30    17    19   ar
    31    17    20   ar
    32    18    19   ar
    33    18    22   ar
    34    18    23    1
    35     9    10    1
    36     9    11    1
    37    10    12    1
    38    11     5    1
    39    33    34    1
    40    33    35    1
    41    34    36    1
    42    35    37    1
    43    36    42    1
    44    20    21   ar
    45    21    22   ar
@<TRIPOS>MOLECULE
*****
 43 45 0 0 0
SMALL
GASTEIGER

@<TRIPOS>ATOM
      1 P          22.4880   74.4963   -6.0095 P.3     1  UNL1        0.2189
      2 O          21.2796   75.0656   -5.0968 O.co2   1  UNL1       -0.4371
      3 O          23.5223   75.5119   -6.3971 O.2     1  UNL1       -0.5170
      4 O          21.7339   73.7581   -7.2360 O.3     1  UNL1       -0.3112
      5 C          20.3171   73.7537   -7.2542 C.3     1  UNL1        0.1811
      6 O          19.8659   71.4454   -7.7458 O.3     1  UNL1       -0.3308
      7 O          18.2312   72.4498  -10.0501 O.3     1  UNL1       -0.3794
      8 O          16.3307   71.8603   -8.1853 O.3     1  UNL1       -0.3779
      9 C          18.3969   73.0111   -8.7491 C.3     1  UNL1        0.1713
     10 C          17.6216   72.2066   -7.7266 C.3     1  UNL1        0.1895
     11 C          19.8379   72.7726   -8.3152 C.3     1  UNL1        0.1764
     12 C          18.5179   70.9953   -7.5334 C.3     1  UNL1        0.2383
     13 H          17.3184   72.5901  -10.3487 H       1  UNL1        0.2105
     14 H          15.7990   72.6644   -8.2926 H       1  UNL1        0.2106
     15 O          16.3005   69.5211   -6.5911 O.2     1  UNL1       -0.2464
     16 O          18.2271   68.9223   -2.4473 O.2     1  UNL1       -0.2670
     17 N          18.4137   70.4420   -6.2126 N.ar    1  UNL1       -0.2551
     18 N          17.2617   69.2240   -4.5286 N.ar    1  UNL1       -0.2743
     19 C          17.2570   69.7189   -5.8390 C.ar    1  UNL1        0.3323
     20 C          19.4512   70.6184   -5.3036 C.ar    1  UNL1        0.0869
     21 C          19.4397   70.1411   -4.0572 C.ar    1  UNL1        0.0795
     22 C          18.2679   69.3741   -3.5876 C.ar    1  UNL1        0.2626
     23 H          16.4659   68.7173   -4.2460 H       1  UNL1        0.1734
     24 O          23.0535   73.2606   -5.1341 O.3     1  UNL1       -0.2703
     25 P          22.7471   72.8097   -3.6124 P.3     1  UNL1        0.2208
     26 O          23.4013   71.3326   -3.5242 O.co2   1  UNL1       -0.4371
     27 O          21.2954   72.8676   -3.2339 O.2     1  UNL1       -0.5170
     28 O          23.7112   73.7372   -2.7095 O.3     1  UNL1       -0.2858
     29 O          22.0675   74.9510   -1.5090 O.3     1  UNL1       -0.3258
     30 O          25.4220   76.1270    0.5923 O.3     1  UNL1       -0.3794
     31 O          23.5614   74.3015    1.7979 O.3     1  UNL1       -0.3794
     32 O          25.5568   75.8074   -2.2816 O.3     1  UNL1       -0.3775
     33 C          24.6004   75.2218   -0.1500 C.3     1  UNL1        0.1715
     34 C          23.2849   75.0361    0.6087 C.3     1  UNL1        0.1694
     35 C          24.3429   75.8051   -1.5381 C.3     1  UNL1        0.1967
     36 C          22.2507   74.2946   -0.2491 C.3     1  UNL1        0.1761
     37 C          23.2632   75.0228   -2.2881 C.3     1  UNL1        0.2704
     38 H          25.5897   75.7623    1.4745 H       1  UNL1        0.2105
     39 H          24.2161   74.7803    2.3302 H       1  UNL1        0.2105
     40 H          26.2321   76.3059   -1.7965 H       1  UNL1        0.2106
     41 O          19.9871   73.5509   -0.4284 O.3     1  UNL1       -0.3794
     42 C          20.8825   74.2371    0.4269 C.3     1  UNL1        0.1693
     43 H          19.1122   73.5063   -0.0110 H       1  UNL1        0.2105
@<TRIPOS>UNITY_ATOM_ATTR
2 1
charge -1
26 1
charge -1
@<TRIPOS>BOND
     1    25    28    1
     2    25    24    1
     3    25    26    1
     4    25    27    2
     5     1     4    1
     6     1    24    1
     7     1     2    1
     8     1     3    2
     9     6    11    1
    10     6    12    1
    11    29    36    1
    12    29    37    1
    13     7     9    1
    14     7    13    1
    15     8    10    1
    16     8    14    1
    17    28    37    1
    18     4     5    1
    19    30    33    1
    20    30    38    1
    21    31    34    1
    22    31    39    1
    23    32    35    1
    24    32    40    1
    25    41    42    1
    26    41    43    1
    27    15    19    2
    28    16    22    2
    29    17    12    1
    30    17    19   ar
    31    17    20   ar
    32    18    19   ar
    33    18    22   ar
    34    18    23    1
    35     9    10    1
    36     9    11    1
    37    10    12    1
    38    11     5    1
    39    33    34    1
    40    33    35    1
    41    34    36    1
    42    35    37    1
    43    36    42    1
    44    20    21   ar
    45    21    22   ar
@<TRIPOS>MOLECULE
*****
 43 45 0 0 0
SMALL
GASTEIGER

@<TRIPOS>ATOM
      1 P          22.3031   73.3406   -5.3236 P.3     1  UNL1        0.2189
      2 O          22.6919   74.7924   -5.9223 O.co2   1  UNL1       -0.4371
      3 O          23.4409   72.5863   -4.7009 O.2     1  UNL1       -0.5170
      4 O          21.5589   72.5995   -6.5544 O.3     1  UNL1       -0.3112
      5 C          20.8565   73.3922   -7.4958 C.3     1  UNL1        0.1811
      6 O          19.9876   71.1863   -7.8867 O.3     1  UNL1       -0.3308
      7 O          18.4854   72.3886  -10.1864 O.3     1  UNL1       -0.3794
      8 O          16.5701   72.2106   -8.2534 O.3     1  UNL1       -0.3779
      9 C          18.7890   72.9546   -8.9125 C.3     1  UNL1        0.1713
     10 C          17.9158   72.3361   -7.8408 C.3     1  UNL1        0.1895
     11 C          20.1776   72.4773   -8.5059 C.3     1  UNL1        0.1764
     12 C          18.5885   70.9914   -7.6234 C.3     1  UNL1        0.2383
     13 H          17.6031   72.6795  -10.4673 H       1  UNL1        0.2105
     14 H          16.1865   73.0927   -8.3783 H       1  UNL1        0.2106
     15 O          16.2601   69.7250   -6.6473 O.2     1  UNL1       -0.2464
     16 O          18.0900   69.1877   -2.4516 O.2     1  UNL1       -0.2670
     17 N          18.4294   70.5102   -6.2801 N.ar    1  UNL1       -0.2551
     18 N          17.1732   69.4583   -4.5590 N.ar    1  UNL1       -0.2743
     19 C          17.2194   69.8897   -5.8908 C.ar    1  UNL1        0.3323
     20 C          19.4661   70.6552   -5.3647 C.ar    1  UNL1        0.0869
     21 C          19.4057   70.2396   -4.0978 C.ar    1  UNL1        0.0795
     22 C          18.1765   69.5809   -3.6108 C.ar    1  UNL1        0.2626
     23 H          16.3399   69.0235   -4.2652 H       1  UNL1        0.1734
     24 O          21.0868   73.6778   -4.3137 O.3     1  UNL1       -0.2703
     25 P          21.0910   74.1801   -2.7773 P.3     1  UNL1        0.2208
     26 O          19.5598   74.6423   -2.5338 O.co2   1  UNL1       -0.4371
     27 O          22.1124   75.2392   -2.4789 O.2     1  UNL1       -0.5170
     28 O          21.2528   72.8307   -1.9067 O.3     1  UNL1       -0.2858
     29 O          22.9319   73.3019   -0.3019 O.3     1  UNL1       -0.3258
     30 O          22.1142   69.3877    0.7284 O.3     1  UNL1       -0.3794
     31 O          21.2398   71.5179    2.4446 O.3     1  UNL1       -0.3794
     32 O          22.1392   70.1724   -2.0579 O.3     1  UNL1       -0.3775
     33 C          21.8045   70.7055    0.2670 C.3     1  UNL1        0.1715
     34 C          22.1634   71.6981    1.3746 C.3     1  UNL1        0.1694
     35 C          22.6125   70.9947   -0.9966 C.3     1  UNL1        0.1967
     36 C          22.1113   73.1434    0.8615 C.3     1  UNL1        0.1761
     37 C          22.5324   72.4701   -1.3929 C.3     1  UNL1        0.2704
     38 H          21.6041   69.1975    1.5303 H       1  UNL1        0.2105
     39 H          21.2823   70.6011    2.7591 H       1  UNL1        0.2105
     40 H          22.1953   69.2410   -1.7948 H       1  UNL1        0.2106
     41 O          21.7053   74.1590    2.9858 O.3     1  UNL1       -0.3794
     42 C          22.6174   74.1387    1.9032 C.3     1  UNL1        0.1693
     43 H          22.0148   74.7880    3.6568 H       1  UNL1        0.2105
@<TRIPOS>UNITY_ATOM_ATTR
2 1
charge -1
26 1
charge -1
@<TRIPOS>BOND
     1    25    28    1
     2    25    24    1
     3    25    26    1
     4    25    27    2
     5     1     4    1
     6     1    24    1
     7     1     2    1
     8     1     3    2
     9     6    11    1
    10     6    12    1
    11    29    36    1
    12    29    37    1
    13     7     9    1
    14     7    13    1
    15     8    10    1
    16     8    14    1
    17    28    37    1
    18     4     5    1
    19    30    33    1
    20    30    38    1
    21    31    34    1
    22    31    39    1
    23    32    35    1
    24    32    40    1
    25    41    42    1
    26    41    43    1
    27    15    19    2
    28    16    22    2
    29    17    12    1
    30    17    19   ar
    31    17    20   ar
    32    18    19   ar
    33    18    22   ar
    34    18    23    1
    35     9    10    1
    36     9    11    1
    37    10    12    1
    38    11     5    1
    39    33    34    1
    40    33    35    1
    41    34    36    1
    42    35    37    1
    43    36    42    1
    44    20    21   ar
    45    21    22   ar
@<TRIPOS>MOLECULE
*****
 43 45 0 0 0
SMALL
GASTEIGER

@<TRIPOS>ATOM
      1 P          21.5988   70.6107   -2.9461 P.3     1  UNL1        0.2189
      2 O          23.1280   70.7451   -3.4571 O.co2   1  UNL1       -0.4371
      3 O          21.0274   69.2250   -3.0139 O.2     1  UNL1       -0.5170
      4 O          20.8062   71.7398   -3.7917 O.3     1  UNL1       -0.3112
      5 C          19.9668   71.3233   -4.8546 C.3     1  UNL1        0.1811
      6 O          17.7376   72.2174   -4.9274 O.3     1  UNL1       -0.3308
      7 O          16.8461   69.5854   -3.8013 O.3     1  UNL1       -0.3794
      8 O          16.2474   69.3322   -6.4497 O.3     1  UNL1       -0.3779
      9 C          17.8887   69.8603   -4.7355 C.3     1  UNL1        0.1713
     10 C          17.3043   70.1988   -6.0910 C.3     1  UNL1        0.1895
     11 C          18.5436   71.1760   -4.3339 C.3     1  UNL1        0.1764
     12 C          16.8418   71.6313   -5.8860 C.3     1  UNL1        0.2383
     13 H          16.4131   68.7494   -4.0370 H       1  UNL1        0.2105
     14 H          16.5922   68.4335   -6.5688 H       1  UNL1        0.2106
     15 O          18.8021   71.3271   -7.8966 O.2     1  UNL1       -0.2464
     16 O          16.9174   74.6373  -10.4911 O.2     1  UNL1       -0.2670
     17 N          16.8871   72.4003   -7.0976 N.ar    1  UNL1       -0.2551
     18 N          17.8620   72.9754   -9.1869 N.ar    1  UNL1       -0.2743
     19 C          17.9143   72.1699   -8.0422 C.ar    1  UNL1        0.3323
     20 C          15.9202   73.3700   -7.3395 C.ar    1  UNL1        0.0869
     21 C          15.8852   74.1308   -8.4355 C.ar    1  UNL1        0.0795
     22 C          16.9223   73.9533   -9.4723 C.ar    1  UNL1        0.2626
     23 H          18.5677   72.8329   -9.8588 H       1  UNL1        0.1734
     24 O          21.6555   71.2431   -1.4596 O.3     1  UNL1       -0.2703
     25 P          22.2185   70.6393   -0.0698 P.3     1  UNL1        0.2208
     26 O          23.7426   70.2347   -0.4315 O.co2   1  UNL1       -0.4371
     27 O          21.3959   69.5155    0.4909 O.2     1  UNL1       -0.5170
     28 O          22.3566   71.9182    0.9050 O.3     1  UNL1       -0.2858
     29 O          21.2242   72.4395    2.9206 O.3     1  UNL1       -0.3258
     30 O          21.5064   76.2360    1.3213 O.3     1  UNL1       -0.3794
     31 O          23.1480   75.5172    3.5656 O.3     1  UNL1       -0.3794
     32 O          20.9733   73.9767   -0.4080 O.3     1  UNL1       -0.3775
     33 C          21.9420   74.9014    1.5940 C.3     1  UNL1        0.1715
     34 C          22.0491   74.7323    3.1108 C.3     1  UNL1        0.1694
     35 C          20.9282   73.9171    1.0136 C.3     1  UNL1        0.1967
     36 C          22.2510   73.2593    3.4911 C.3     1  UNL1        0.1761
     37 C          21.1901   72.4882    1.4929 C.3     1  UNL1        0.2704
     38 H          22.1460   76.8660    1.6868 H       1  UNL1        0.2105
     39 H          23.0083   76.4449    3.3187 H       1  UNL1        0.2105
     40 H          20.8057   74.8862   -0.6989 H       1  UNL1        0.2106
     41 O          23.3228   73.6901    5.5826 O.3     1  UNL1       -0.3794
     42 C          22.2028   73.0471    5.0027 C.3     1  UNL1        0.1693
     43 H          23.3051   73.5638    6.5446 H       1  UNL1        0.2105
@<TRIPOS>UNITY_ATOM_ATTR
2 1
charge -1
26 1
charge -1
@<TRIPOS>BOND
     1    25    28    1
     2    25    24    1
     3    25    26    1
     4    25    27    2
     5     1     4    1
     6     1    24    1
     7     1     2    1
     8     1     3    2
     9     6    11    1
    10     6    12    1
    11    29    36    1
    12    29    37    1
    13     7     9    1
    14     7    13    1
    15     8    10    1
    16     8    14    1
    17    28    37    1
    18     4     5    1
    19    30    33    1
    20    30    38    1
    21    31    34    1
    22    31    39    1
    23    32    35    1
    24    32    40    1
    25    41    42    1
    26    41    43    1
    27    15    19    2
    28    16    22    2
    29    17    12    1
    30    17    19   ar
    31    17    20   ar
    32    18    19   ar
    33    18    22   ar
    34    18    23    1
    35     9    10    1
    36     9    11    1
    37    10    12    1
    38    11     5    1
    39    33    34    1
    40    33    35    1
    41    34    36    1
    42    35    37    1
    43    36    42    1
    44    20    21   ar
    45    21    22   ar
@<TRIPOS>MOLECULE
*****
 43 45 0 0 0
SMALL
GASTEIGER

@<TRIPOS>ATOM
      1 P          21.5272   72.9363   -6.1161 P.3     1  UNL1        0.2189
      2 O          21.2658   74.4456   -5.5955 O.co2   1  UNL1       -0.4371
      3 O          22.7115   72.7750   -7.0233 O.2     1  UNL1       -0.5170
      4 O          20.1016   72.4865   -6.7350 O.3     1  UNL1       -0.3112
      5 C          19.7357   71.1193   -6.6661 C.3     1  UNL1        0.1811
      6 O          17.5401   70.8660   -7.6088 O.3     1  UNL1       -0.3308
      7 O          18.8786   71.0042  -10.2884 O.3     1  UNL1       -0.3794
      8 O          17.8704   73.5212   -9.9970 O.3     1  UNL1       -0.3779
      9 C          19.1968   71.6995   -9.0840 C.3     1  UNL1        0.1713
     10 C          18.1835   72.7951   -8.8259 C.3     1  UNL1        0.1895
     11 C          18.9470   70.7536   -7.9160 C.3     1  UNL1        0.1764
     12 C          16.9986   72.0087   -8.2913 C.3     1  UNL1        0.2383
     13 H          19.0306   71.5882  -11.0485 H       1  UNL1        0.2105
     14 H          18.6559   74.0043  -10.2977 H       1  UNL1        0.2106
     15 O          15.0057   73.8613   -9.0491 O.2     1  UNL1       -0.2464
     16 O          14.0250   74.8788   -4.6623 O.2     1  UNL1       -0.2670
     17 N          16.2068   72.7714   -7.3679 N.ar    1  UNL1       -0.2551
     18 N          14.5189   74.3663   -6.8642 N.ar    1  UNL1       -0.2743
     19 C          15.2329   73.6757   -7.8518 C.ar    1  UNL1        0.3323
     20 C          16.3995   72.6187   -5.9991 C.ar    1  UNL1        0.0869
     21 C          15.7112   73.2857   -5.0704 C.ar    1  UNL1        0.0795
     22 C          14.6747   74.2501   -5.4920 C.ar    1  UNL1        0.2626
     23 H          13.8354   75.0020   -7.1778 H       1  UNL1        0.1734
     24 O          21.6112   72.0877   -4.7429 O.3     1  UNL1       -0.2703
     25 P          22.6196   72.2014   -3.4847 P.3     1  UNL1        0.2208
     26 O          23.8954   72.9823   -4.1011 O.co2   1  UNL1       -0.4371
     27 O          22.9505   70.8863   -2.8405 O.2     1  UNL1       -0.5170
     28 O          21.9233   73.2727   -2.4986 O.3     1  UNL1       -0.2858
     29 O          19.7680   72.3867   -2.0671 O.3     1  UNL1       -0.3258
     30 O          22.0615   69.3842   -0.4009 O.3     1  UNL1       -0.3794
     31 O          20.6956   68.9135   -2.8830 O.3     1  UNL1       -0.3794
     32 O          22.8674   72.1489   -0.1068 O.3     1  UNL1       -0.3775
     33 C          21.7467   70.4125   -1.3438 C.3     1  UNL1        0.1715
     34 C          20.4396   70.0368   -2.0445 C.3     1  UNL1        0.1694
     35 C          21.5974   71.7401   -0.6032 C.3     1  UNL1        0.1967
     36 C          19.8982   71.2097   -2.8730 C.3     1  UNL1        0.1761
     37 C          21.0057   72.8258   -1.5039 C.3     1  UNL1        0.2704
     38 H          22.1581   68.5386   -0.8647 H       1  UNL1        0.2105
     39 H          21.0374   68.1802   -2.3477 H       1  UNL1        0.2105
     40 H          23.2313   71.4533    0.4621 H       1  UNL1        0.2106
     41 O          17.9523   69.8301   -2.7341 O.3     1  UNL1       -0.3794
     42 C          18.5173   70.9111   -3.4527 C.3     1  UNL1        0.1693
     43 H          17.0730   69.6291   -3.0919 H       1  UNL1        0.2105
@<TRIPOS>UNITY_ATOM_ATTR
2 1
charge -1
26 1
charge -1
@<TRIPOS>BOND
     1    25    28    1
     2    25    24    1
     3    25    26    1
     4    25    27    2
     5     1     4    1
     6     1    24    1
     7     1     2    1
     8     1     3    2
     9     6    11    1
    10     6    12    1
    11    29    36    1
    12    29    37    1
    13     7     9    1
    14     7    13    1
    15     8    10    1
    16     8    14    1
    17    28    37    1
    18     4     5    1
    19    30    33    1
    20    30    38    1
    21    31    34    1
    22    31    39    1
    23    32    35    1
    24    32    40    1
    25    41    42    1
    26    41    43    1
    27    15    19    2
    28    16    22    2
    29    17    12    1
    30    17    19   ar
    31    17    20   ar
    32    18    19   ar
    33    18    22   ar
    34    18    23    1
    35     9    10    1
    36     9    11    1
    37    10    12    1
    38    11     5    1
    39    33    34    1
    40    33    35    1
    41    34    36    1
    42    35    37    1
    43    36    42    1
    44    20    21   ar
    45    21    22   ar
@<TRIPOS>MOLECULE
*****
 43 45 0 0 0
SMALL
GASTEIGER

@<TRIPOS>ATOM
      1 P          22.4412   72.8403   -4.7135 P.3     1  UNL1        0.2189
      2 O          21.5237   74.1560   -4.5022 O.co2   1  UNL1       -0.4371
      3 O          23.8406   72.9519   -4.1838 O.2     1  UNL1       -0.5170
      4 O          22.3117   72.5264   -6.2954 O.3     1  UNL1       -0.3112
      5 C          21.3602   73.2531   -7.0533 C.3     1  UNL1        0.1811
      6 O          19.8518   71.3892   -7.2092 O.3     1  UNL1       -0.3308
      7 O          19.4884   72.1640  -10.0829 O.3     1  UNL1       -0.3794
      8 O          17.2484   73.1802   -8.9055 O.3     1  UNL1       -0.3779
      9 C          19.6726   72.9978   -8.9401 C.3     1  UNL1        0.1713
     10 C          18.4071   73.0382   -8.1092 C.3     1  UNL1        0.1895
     11 C          20.6474   72.2982   -8.0010 C.3     1  UNL1        0.1764
     12 C          18.4608   71.7021   -7.3880 C.3     1  UNL1        0.2383
     13 H          18.8698   72.5901  -10.6975 H       1  UNL1        0.2105
     14 H          17.2607   74.0456   -9.3432 H       1  UNL1        0.2106
     15 O          15.7508   72.3814   -6.9725 O.2     1  UNL1       -0.2464
     16 O          16.1262   71.8463   -2.4103 O.2     1  UNL1       -0.2670
     17 N          17.8240   71.7479   -6.1020 N.ar    1  UNL1       -0.2551
     18 N          15.9399   72.1143   -4.7012 N.ar    1  UNL1       -0.2743
     19 C          16.4583   72.1018   -6.0024 C.ar    1  UNL1        0.3323
     20 C          18.5521   71.4436   -4.9570 C.ar    1  UNL1        0.0869
     21 C          18.0433   71.4614   -3.7233 C.ar    1  UNL1        0.0795
     22 C          16.6234   71.8209   -3.5319 C.ar    1  UNL1        0.2626
     23 H          14.9905   72.3583   -4.6073 H       1  UNL1        0.1734
     24 O          21.5572   71.6683   -4.0369 O.3     1  UNL1       -0.2703
     25 P          21.8960   70.6432   -2.8338 P.3     1  UNL1        0.2208
     26 O          23.4955   70.4366   -2.9618 O.co2   1  UNL1       -0.4371
     27 O          21.1023   69.3694   -2.8689 O.2     1  UNL1       -0.5170
     28 O          21.7038   71.5142   -1.4887 O.3     1  UNL1       -0.2858
     29 O          23.3545   72.8527   -0.4398 O.3     1  UNL1       -0.3258
     30 O          21.1750   71.7605    2.8931 O.3     1  UNL1       -0.3794
     31 O          21.0053   74.4528    1.9076 O.3     1  UNL1       -0.3794
     32 O          21.6184   69.8468    0.7669 O.3     1  UNL1       -0.3775
     33 C          21.3671   72.1201    1.5222 C.3     1  UNL1        0.1715
     34 C          21.9892   73.5171    1.4755 C.3     1  UNL1        0.1694
     35 C          22.2910   71.0978    0.8628 C.3     1  UNL1        0.1967
     36 C          22.4696   73.8625    0.0595 C.3     1  UNL1        0.1761
     37 C          22.7493   71.5608   -0.5213 C.3     1  UNL1        0.2704
     38 H          20.5889   72.4054    3.3175 H       1  UNL1        0.2105
     39 H          20.7100   74.2231    2.8027 H       1  UNL1        0.2105
     40 H          21.3335   69.5645    1.6495 H       1  UNL1        0.2106
     41 O          22.2977   76.2456    0.0464 O.3     1  UNL1       -0.3794
     42 C          23.2340   75.1840    0.0214 C.3     1  UNL1        0.1693
     43 H          22.7700   77.0930    0.0229 H       1  UNL1        0.2105
@<TRIPOS>UNITY_ATOM_ATTR
2 1
charge -1
26 1
charge -1
@<TRIPOS>BOND
     1    25    28    1
     2    25    24    1
     3    25    26    1
     4    25    27    2
     5     1     4    1
     6     1    24    1
     7     1     2    1
     8     1     3    2
     9     6    11    1
    10     6    12    1
    11    29    36    1
    12    29    37    1
    13     7     9    1
    14     7    13    1
    15     8    10    1
    16     8    14    1
    17    28    37    1
    18     4     5    1
    19    30    33    1
    20    30    38    1
    21    31    34    1
    22    31    39    1
    23    32    35    1
    24    32    40    1
    25    41    42    1
    26    41    43    1
    27    15    19    2
    28    16    22    2
    29    17    12    1
    30    17    19   ar
    31    17    20   ar
    32    18    19   ar
    33    18    22   ar
    34    18    23    1
    35     9    10    1
    36     9    11    1
    37    10    12    1
    38    11     5    1
    39    33    34    1
    40    33    35    1
    41    34    36    1
    42    35    37    1
    43    36    42    1
    44    20    21   ar
    45    21    22   ar
@<TRIPOS>MOLECULE
*****
 43 45 0 0 0
SMALL
GASTEIGER

@<TRIPOS>ATOM
      1 P          21.8659   74.9323   -7.3078 P.3     1  UNL1        0.2189
      2 O          20.8162   76.1280   -7.6009 O.co2   1  UNL1       -0.4371
      3 O          23.2980   75.3625   -7.1833 O.2     1  UNL1       -0.5170
      4 O          21.5560   73.8499   -8.4698 O.3     1  UNL1       -0.3112
      5 C          21.3991   72.4903   -8.1028 C.3     1  UNL1        0.1811
      6 O          19.8122   70.6958   -8.2913 O.3     1  UNL1       -0.3308
      7 O          18.4652   72.3573  -10.3926 O.3     1  UNL1       -0.3794
      8 O          16.8996   72.7866   -8.2015 O.3     1  UNL1       -0.3779
      9 C          19.1187   72.7739   -9.1948 C.3     1  UNL1        0.1713
     10 C          18.2577   72.4590   -7.9893 C.3     1  UNL1        0.1895
     11 C          20.3199   71.8628   -8.9744 C.3     1  UNL1        0.1764
     12 C          18.4800   70.9652   -7.8249 C.3     1  UNL1        0.2383
     13 H          17.6947   72.9249  -10.5545 H       1  UNL1        0.2105
     14 H          16.8101   73.7473   -8.3000 H       1  UNL1        0.2106
     15 O          16.1139   69.9688   -6.6473 O.2     1  UNL1       -0.2464
     16 O          18.1762   69.3749   -2.5686 O.2     1  UNL1       -0.2670
     17 N          18.3704   70.5424   -6.4571 N.ar    1  UNL1       -0.2551
     18 N          17.1428   69.6737   -4.6174 N.ar    1  UNL1       -0.2743
     19 C          17.1362   70.0586   -5.9642 C.ar    1  UNL1        0.3323
     20 C          19.4789   70.6096   -5.6201 C.ar    1  UNL1        0.0869
     21 C          19.4683   70.2399   -4.3378 C.ar    1  UNL1        0.0795
     22 C          18.2182   69.7228   -3.7446 C.ar    1  UNL1        0.2626
     23 H          16.2938   69.3338   -4.2520 H       1  UNL1        0.1734
     24 O          21.2570   74.2301   -5.9853 O.3     1  UNL1       -0.2703
     25 P          20.7220   74.8637   -4.5978 P.3     1  UNL1        0.2208
     26 O          19.1200   74.9306   -4.8138 O.co2   1  UNL1       -0.4371
     27 O          21.3536   76.1770   -4.2370 O.2     1  UNL1       -0.5170
     28 O          20.9375   73.6953   -3.5053 O.3     1  UNL1       -0.2858
     29 O          21.8447   73.4485   -1.3298 O.3     1  UNL1       -0.3258
     30 O          23.8240   70.3593   -3.2244 O.3     1  UNL1       -0.3794
     31 O          21.7202   69.7645   -1.3621 O.3     1  UNL1       -0.3794
     32 O          23.3724   72.8554   -4.6191 O.3     1  UNL1       -0.3775
     33 C          22.7237   71.2339   -2.9604 C.3     1  UNL1        0.1715
     34 C          22.3088   71.0549   -1.4986 C.3     1  UNL1        0.1694
     35 C          23.1572   72.6748   -3.2236 C.3     1  UNL1        0.1967
     36 C          21.3166   72.1432   -1.0671 C.3     1  UNL1        0.1761
     37 C          22.1218   73.6784   -2.7126 C.3     1  UNL1        0.2704
     38 H          23.5553   69.4427   -3.0597 H       1  UNL1        0.2105
     39 H          22.3568   69.0865   -1.6382 H       1  UNL1        0.2105
     40 H          24.0299   72.2145   -4.9303 H       1  UNL1        0.2106
     41 O          21.7684   71.0258    0.9960 O.3     1  UNL1       -0.3794
     42 C          21.0109   72.0782    0.4277 C.3     1  UNL1        0.1693
     43 H          21.5842   70.9727    1.9473 H       1  UNL1        0.2105
@<TRIPOS>UNITY_ATOM_ATTR
2 1
charge -1
26 1
charge -1
@<TRIPOS>BOND
     1    25    28    1
     2    25    24    1
     3    25    26    1
     4    25    27    2
     5     1     4    1
     6     1    24    1
     7     1     2    1
     8     1     3    2
     9     6    11    1
    10     6    12    1
    11    29    36    1
    12    29    37    1
    13     7     9    1
    14     7    13    1
    15     8    10    1
    16     8    14    1
    17    28    37    1
    18     4     5    1
    19    30    33    1
    20    30    38    1
    21    31    34    1
    22    31    39    1
    23    32    35    1
    24    32    40    1
    25    41    42    1
    26    41    43    1
    27    15    19    2
    28    16    22    2
    29    17    12    1
    30    17    19   ar
    31    17    20   ar
    32    18    19   ar
    33    18    22   ar
    34    18    23    1
    35     9    10    1
    36     9    11    1
    37    10    12    1
    38    11     5    1
    39    33    34    1
    40    33    35    1
    41    34    36    1
    42    35    37    1
    43    36    42    1
    44    20    21   ar
    45    21    22   ar
@<TRIPOS>MOLECULE
*****
 43 45 0 0 0
SMALL
GASTEIGER

@<TRIPOS>ATOM
      1 P          21.5311   70.7302   -2.9064 P.3     1  UNL1        0.2189
      2 O          23.0968   70.9229   -3.2653 O.co2   1  UNL1       -0.4371
      3 O          21.0277   69.3199   -3.0029 O.2     1  UNL1       -0.5170
      4 O          20.7808   71.8101   -3.8492 O.3     1  UNL1       -0.3112
      5 C          19.9534   71.3340   -4.8964 C.3     1  UNL1        0.1811
      6 O          17.7238   72.2269   -4.9688 O.3     1  UNL1       -0.3308
      7 O          16.8338   69.5942   -3.8428 O.3     1  UNL1       -0.3794
      8 O          16.2348   69.3410   -6.4912 O.3     1  UNL1       -0.3779
      9 C          17.8761   69.8698   -4.7771 C.3     1  UNL1        0.1713
     10 C          17.2914   70.2081   -6.1326 C.3     1  UNL1        0.1895
     11 C          18.5304   71.1859   -4.3755 C.3     1  UNL1        0.1764
     12 C          16.8281   71.6404   -5.9273 C.3     1  UNL1        0.2383
     13 H          16.4013   68.7579   -4.0786 H       1  UNL1        0.2105
     14 H          16.5801   68.4425   -6.6104 H       1  UNL1        0.2106
     15 O          18.8241   71.3816   -7.9089 O.2     1  UNL1       -0.2464
     16 O          16.8995   74.6446  -10.5336 O.2     1  UNL1       -0.2670
     17 N          16.8728   72.4095   -7.1388 N.ar    1  UNL1       -0.2551
     18 N          17.8641   73.0064   -9.2143 N.ar    1  UNL1       -0.2743
     19 C          17.9188   72.2029   -8.0682 C.ar    1  UNL1        0.3323
     20 C          15.8868   73.3559   -7.3957 C.ar    1  UNL1        0.0869
     21 C          15.8497   74.1149   -8.4928 C.ar    1  UNL1        0.0795
     22 C          16.9057   73.9615   -9.5142 C.ar    1  UNL1        0.2626
     23 H          18.5827   72.8802   -9.8757 H       1  UNL1        0.1734
     24 O          21.4119   71.3879   -1.4347 O.3     1  UNL1       -0.2703
     25 P          21.8554   70.8302    0.0163 P.3     1  UNL1        0.2208
     26 O          23.4121   71.2588    0.1186 O.co2   1  UNL1       -0.4371
     27 O          21.6024   69.3639    0.2156 O.2     1  UNL1       -0.5170
     28 O          21.0984   71.7890    1.0712 O.3     1  UNL1       -0.2858
     29 O          21.4322   74.1233    0.8343 O.3     1  UNL1       -0.3258
     30 O          19.9624   74.0553    4.6925 O.3     1  UNL1       -0.3794
     31 O          18.3137   75.0560    2.5645 O.3     1  UNL1       -0.3794
     32 O          21.7558   71.9684    3.7935 O.3     1  UNL1       -0.3775
     33 C          20.0719   73.6276    3.3322 C.3     1  UNL1        0.1715
     34 C          19.7101   74.8075    2.4279 C.3     1  UNL1        0.1694
     35 C          21.5040   73.1667    3.0675 C.3     1  UNL1        0.1967
     36 C          20.0592   74.5104    0.9633 C.3     1  UNL1        0.1761
     37 C          21.7598   72.9464    1.5755 C.3     1  UNL1        0.2704
     38 H          19.0553   74.3488    4.8672 H       1  UNL1        0.2105
     39 H          18.1065   75.2417    3.4939 H       1  UNL1        0.2105
     40 H          21.5906   72.1210    4.7365 H       1  UNL1        0.2106
     41 O          19.8318   76.8875    0.8825 O.3     1  UNL1       -0.3794
     42 C          19.8535   75.7300    0.0676 C.3     1  UNL1        0.1693
     43 H          19.7019   77.6717    0.3258 H       1  UNL1        0.2105
@<TRIPOS>UNITY_ATOM_ATTR
2 1
charge -1
26 1
charge -1
@<TRIPOS>BOND
     1    25    28    1
     2    25    24    1
     3    25    26    1
     4    25    27    2
     5     1     4    1
     6     1    24    1
     7     1     2    1
     8     1     3    2
     9     6    11    1
    10     6    12    1
    11    29    36    1
    12    29    37    1
    13     7     9    1
    14     7    13    1
    15     8    10    1
    16     8    14    1
    17    28    37    1
    18     4     5    1
    19    30    33    1
    20    30    38    1
    21    31    34    1
    22    31    39    1
    23    32    35    1
    24    32    40    1
    25    41    42    1
    26    41    43    1
    27    15    19    2
    28    16    22    2
    29    17    12    1
    30    17    19   ar
    31    17    20   ar
    32    18    19   ar
    33    18    22   ar
    34    18    23    1
    35     9    10    1
    36     9    11    1
    37    10    12    1
    38    11     5    1
    39    33    34    1
    40    33    35    1
    41    34    36    1
    42    35    37    1
    43    36    42    1
    44    20    21   ar
    45    21    22   ar
@<TRIPOS>MOLECULE
*****
 43 45 0 0 0
SMALL
GASTEIGER

@<TRIPOS>ATOM
      1 P          21.9976   70.2591   -0.4129 P.3     1  UNL1        0.2189
      2 O          22.8239   70.8099   -1.6901 O.co2   1  UNL1       -0.4371
      3 O          22.6981   69.1998    0.3863 O.2     1  UNL1       -0.5170
      4 O          20.5623   69.8394   -1.0305 O.3     1  UNL1       -0.3112
      5 C          20.3671   69.9584   -2.4289 C.3     1  UNL1        0.1811
      6 O          19.2867   71.9223   -3.2948 O.3     1  UNL1       -0.3308
      7 O          16.7941   70.2616   -3.4345 O.3     1  UNL1       -0.3794
      8 O          17.6566   70.2579   -6.0215 O.3     1  UNL1       -0.3779
      9 C          18.1479   69.8785   -3.6708 C.3     1  UNL1        0.1713
     10 C          18.6227   70.4199   -5.0031 C.3     1  UNL1        0.1895
     11 C          19.0291   70.6377   -2.6867 C.3     1  UNL1        0.1764
     12 C          18.8863   71.8795   -4.6741 C.3     1  UNL1        0.2383
     13 H          16.2123   69.7892   -4.0511 H       1  UNL1        0.2105
     14 H          17.5241   69.3128   -6.1944 H       1  UNL1        0.2106
     15 O          18.5012   72.9731   -7.2497 O.2     1  UNL1       -0.2464
     16 O          22.9714   74.0102   -7.6777 O.2     1  UNL1       -0.2670
     17 N          19.9320   72.4425   -5.4810 N.ar    1  UNL1       -0.2551
     18 N          20.7273   73.4888   -7.4606 N.ar    1  UNL1       -0.2743
     19 C          19.6329   72.9646   -6.7610 C.ar    1  UNL1        0.3323
     20 C          21.2369   72.4734   -5.0013 C.ar    1  UNL1        0.0869
     21 C          22.2696   72.9757   -5.6815 C.ar    1  UNL1        0.0795
     22 C          22.0427   73.5411   -7.0272 C.ar    1  UNL1        0.2626
     23 H          20.5430   73.8577   -8.3549 H       1  UNL1        0.1734
     24 O          21.6585   71.6085    0.4099 O.3     1  UNL1       -0.2703
     25 P          22.1411   73.1355    0.1901 P.3     1  UNL1        0.2208
     26 O          20.8405   73.8459   -0.4591 O.co2   1  UNL1       -0.4371
     27 O          23.3939   73.2736   -0.6256 O.2     1  UNL1       -0.5170
     28 O          22.2411   73.7508    1.6788 O.3     1  UNL1       -0.2858
     29 O          23.9223   73.6210    3.3441 O.3     1  UNL1       -0.3258
     30 O          20.5832   73.2870    5.7503 O.3     1  UNL1       -0.3794
     31 O          22.1100   75.7194    5.7734 O.3     1  UNL1       -0.3794
     32 O          20.6328   71.9928    3.1615 O.3     1  UNL1       -0.3775
     33 C          21.3437   73.7602    4.6353 C.3     1  UNL1        0.1715
     34 C          22.5645   74.5106    5.1713 C.3     1  UNL1        0.1694
     35 C          21.7765   72.5678    3.7842 C.3     1  UNL1        0.1967
     36 C          23.5642   74.8162    4.0478 C.3     1  UNL1        0.1761
     37 C          22.8079   72.9717    2.7291 C.3     1  UNL1        0.2704
     38 H          20.3050   74.0392    6.2945 H       1  UNL1        0.2105
     39 H          21.4792   75.5124    6.4807 H       1  UNL1        0.2105
     40 H          19.9876   71.7411    3.8399 H       1  UNL1        0.2106
     41 O          25.6657   74.3794    5.0974 O.3     1  UNL1       -0.3794
     42 C          24.8590   75.4232    4.5837 C.3     1  UNL1        0.1693
     43 H          26.4935   74.7509    5.4418 H       1  UNL1        0.2105
@<TRIPOS>UNITY_ATOM_ATTR
2 1
charge -1
26 1
charge -1
@<TRIPOS>BOND
     1    25    28    1
     2    25    24    1
     3    25    26    1
     4    25    27    2
     5     1     4    1
     6     1    24    1
     7     1     2    1
     8     1     3    2
     9     6    11    1
    10     6    12    1
    11    29    36    1
    12    29    37    1
    13     7     9    1
    14     7    13    1
    15     8    10    1
    16     8    14    1
    17    28    37    1
    18     4     5    1
    19    30    33    1
    20    30    38    1
    21    31    34    1
    22    31    39    1
    23    32    35    1
    24    32    40    1
    25    41    42    1
    26    41    43    1
    27    15    19    2
    28    16    22    2
    29    17    12    1
    30    17    19   ar
    31    17    20   ar
    32    18    19   ar
    33    18    22   ar
    34    18    23    1
    35     9    10    1
    36     9    11    1
    37    10    12    1
    38    11     5    1
    39    33    34    1
    40    33    35    1
    41    34    36    1
    42    35    37    1
    43    36    42    1
    44    20    21   ar
    45    21    22   ar
@<TRIPOS>MOLECULE
*****
 43 45 0 0 0
SMALL
GASTEIGER

@<TRIPOS>ATOM
      1 P          22.4238   75.5115   -8.1103 P.3     1  UNL1        0.2189
      2 O          22.0992   75.4542   -6.5264 O.co2   1  UNL1       -0.4371
      3 O          21.8996   76.7245   -8.8212 O.2     1  UNL1       -0.5170
      4 O          21.8948   74.0874   -8.6670 O.3     1  UNL1       -0.3112
      5 C          20.8734   73.4178   -7.9485 C.3     1  UNL1        0.1811
      6 O          19.8505   71.2700   -8.2867 O.3     1  UNL1       -0.3308
      7 O          18.2702   72.5758  -10.4750 O.3     1  UNL1       -0.3794
      8 O          16.4830   72.4971   -8.4168 O.3     1  UNL1       -0.3779
      9 C          18.6924   73.1135   -9.2228 C.3     1  UNL1        0.1713
     10 C          17.8585   72.5398   -8.0962 C.3     1  UNL1        0.1895
     11 C          20.0746   72.5521   -8.9131 C.3     1  UNL1        0.1764
     12 C          18.4633   71.1562   -7.9296 C.3     1  UNL1        0.2383
     13 H          17.3898   72.9204  -10.6942 H       1  UNL1        0.2105
     14 H          16.1448   73.4011   -8.5123 H       1  UNL1        0.2106
     15 O          16.1565   69.9602   -6.8223 O.2     1  UNL1       -0.2464
     16 O          18.2086   69.3502   -2.7408 O.2     1  UNL1       -0.2670
     17 N          18.3672   70.6753   -6.5802 N.ar    1  UNL1       -0.2551
     18 N          17.1802   69.6573   -4.7910 N.ar    1  UNL1       -0.2743
     19 C          17.1628   70.0918   -6.1225 C.ar    1  UNL1        0.3323
     20 C          19.4593   70.7843   -5.7262 C.ar    1  UNL1        0.0869
     21 C          19.4593   70.3661   -4.4588 C.ar    1  UNL1        0.0795
     22 C          18.2402   69.7447   -3.9024 C.ar    1  UNL1        0.2626
     23 H          16.3520   69.2478   -4.4501 H       1  UNL1        0.1734
     24 O          24.0311   75.3460   -8.1581 O.3     1  UNL1       -0.2703
     25 P          25.2142   76.4445   -8.0788 P.3     1  UNL1        0.2208
     26 O          25.0195   77.0943   -6.6100 O.co2   1  UNL1       -0.4371
     27 O          25.2058   77.4401   -9.2025 O.2     1  UNL1       -0.5170
     28 O          26.5703   75.5768   -7.9642 O.3     1  UNL1       -0.2858
     29 O          28.4972   76.1883   -6.7274 O.3     1  UNL1       -0.3258
     30 O          30.2998   73.9537   -9.6951 O.3     1  UNL1       -0.3794
     31 O          30.1169   72.8911   -7.0333 O.3     1  UNL1       -0.3794
     32 O          28.0612   75.6721  -10.3397 O.3     1  UNL1       -0.3775
     33 C          29.2649   74.2978   -8.7700 C.3     1  UNL1        0.1715
     34 C          29.8502   74.2528   -7.3571 C.3     1  UNL1        0.1694
     35 C          28.7509   75.6991   -9.0946 C.3     1  UNL1        0.1967
     36 C          28.8815   74.8650   -6.3364 C.3     1  UNL1        0.1761
     37 C          27.8346   76.2340   -7.9926 C.3     1  UNL1        0.2704
     38 H          30.6302   73.0647   -9.4948 H       1  UNL1        0.2105
     39 H          30.7293   72.5163   -7.6857 H       1  UNL1        0.2105
     40 H          28.6520   75.3319  -11.0290 H       1  UNL1        0.2106
     41 O          29.7214   73.6673   -4.4473 O.3     1  UNL1       -0.3794
     42 C          29.5075   74.9742   -4.9478 C.3     1  UNL1        0.1693
     43 H          30.1199   73.7211   -3.5641 H       1  UNL1        0.2105
@<TRIPOS>UNITY_ATOM_ATTR
2 1
charge -1
26 1
charge -1
@<TRIPOS>BOND
     1    25    28    1
     2    25    24    1
     3    25    26    1
     4    25    27    2
     5     1     4    1
     6     1    24    1
     7     1     2    1
     8     1     3    2
     9     6    11    1
    10     6    12    1
    11    29    36    1
    12    29    37    1
    13     7     9    1
    14     7    13    1
    15     8    10    1
    16     8    14    1
    17    28    37    1
    18     4     5    1
    19    30    33    1
    20    30    38    1
    21    31    34    1
    22    31    39    1
    23    32    35    1
    24    32    40    1
    25    41    42    1
    26    41    43    1
    27    15    19    2
    28    16    22    2
    29    17    12    1
    30    17    19   ar
    31    17    20   ar
    32    18    19   ar
    33    18    22   ar
    34    18    23    1
    35     9    10    1
    36     9    11    1
    37    10    12    1
    38    11     5    1
    39    33    34    1
    40    33    35    1
    41    34    36    1
    42    35    37    1
    43    36    42    1
    44    20    21   ar
    45    21    22   ar
@<TRIPOS>MOLECULE
*****
 43 45 0 0 0
SMALL
GASTEIGER

@<TRIPOS>ATOM
      1 P          21.2779   70.6329   -2.3006 P.3     1  UNL1        0.2189
      2 O          20.8729   69.8687   -0.9334 O.co2   1  UNL1       -0.4371
      3 O          22.3015   69.9280   -3.1414 O.2     1  UNL1       -0.5170
      4 O          21.6768   72.1221   -1.8097 O.3     1  UNL1       -0.3112
      5 C          20.6368   73.0297   -1.4896 C.3     1  UNL1        0.1811
      6 O          21.1208   74.9046   -0.0668 O.3     1  UNL1       -0.3308
      7 O          22.9714   75.8336   -2.2353 O.3     1  UNL1       -0.3794
      8 O          24.6838   74.7162   -0.4309 O.3     1  UNL1       -0.3779
      9 C          22.6861   74.5051   -1.8006 C.3     1  UNL1        0.1713
     10 C          23.3570   74.2316   -0.4707 C.3     1  UNL1        0.1895
     11 C          21.2093   74.4393   -1.4313 C.3     1  UNL1        0.1764
     12 C          22.4403   74.9569    0.4998 C.3     1  UNL1        0.2383
     13 H          23.9091   75.9002   -2.4770 H       1  UNL1        0.2105
     14 H          25.2273   74.2235   -1.0654 H       1  UNL1        0.2106
     15 O          24.3411   75.4387    2.5327 O.2     1  UNL1       -0.2464
     16 O          22.2487   72.5306    5.4319 O.2     1  UNL1       -0.2670
     17 N          22.4161   74.3394    1.7958 N.ar    1  UNL1       -0.2551
     18 N          23.2976   73.9904    3.9747 N.ar    1  UNL1       -0.2743
     19 C          23.4184   74.6492    2.7444 C.ar    1  UNL1        0.3323
     20 C          21.4064   73.4381    2.1153 C.ar    1  UNL1        0.0869
     21 C          21.3062   72.8175    3.2925 C.ar    1  UNL1        0.0795
     22 C          22.3133   73.0855    4.3393 C.ar    1  UNL1        0.2626
     23 H          23.9849   74.1904    4.6510 H       1  UNL1        0.1734
     24 O          19.8515   70.8595   -3.0266 O.3     1  UNL1       -0.2703
     25 P          18.7373   69.8026   -3.5310 P.3     1  UNL1        0.2208
     26 O          17.3877   70.3064   -2.7946 O.co2   1  UNL1       -0.4371
     27 O          19.0874   68.3667   -3.2676 O.2     1  UNL1       -0.5170
     28 O          18.5099   70.1608   -5.0882 O.3     1  UNL1       -0.2858
     29 O          19.5866   71.8636   -6.3364 O.3     1  UNL1       -0.3258
     30 O          15.9319   71.8473   -8.2583 O.3     1  UNL1       -0.3794
     31 O          18.2365   70.7625   -9.5850 O.3     1  UNL1       -0.3794
     32 O          16.0558   71.4882   -5.3886 O.3     1  UNL1       -0.3775
     33 C          17.0463   71.2693   -7.5732 C.3     1  UNL1        0.1715
     34 C          18.3081   71.5420   -8.3944 C.3     1  UNL1        0.1694
     35 C          17.1609   71.8992   -6.1863 C.3     1  UNL1        0.1967
     36 C          19.5729   71.1895   -7.6001 C.3     1  UNL1        0.1761
     37 C          18.4769   71.5241   -5.5026 C.3     1  UNL1        0.2704
     38 H          15.8533   71.4513   -9.1395 H       1  UNL1        0.2105
     39 H          17.4332   70.9944  -10.0770 H       1  UNL1        0.2105
     40 H          15.2288   71.7316   -5.8321 H       1  UNL1        0.2106
     41 O          20.5141   72.6054   -9.2789 O.3     1  UNL1       -0.3794
     42 C          20.8450   71.6002   -8.3385 C.3     1  UNL1        0.1693
     43 H          21.3142   72.8768   -9.7562 H       1  UNL1        0.2105
@<TRIPOS>UNITY_ATOM_ATTR
2 1
charge -1
26 1
charge -1
@<TRIPOS>BOND
     1    25    28    1
     2    25    24    1
     3    25    26    1
     4    25    27    2
     5     1     4    1
     6     1    24    1
     7     1     2    1
     8     1     3    2
     9     6    11    1
    10     6    12    1
    11    29    36    1
    12    29    37    1
    13     7     9    1
    14     7    13    1
    15     8    10    1
    16     8    14    1
    17    28    37    1
    18     4     5    1
    19    30    33    1
    20    30    38    1
    21    31    34    1
    22    31    39    1
    23    32    35    1
    24    32    40    1
    25    41    42    1
    26    41    43    1
    27    15    19    2
    28    16    22    2
    29    17    12    1
    30    17    19   ar
    31    17    20   ar
    32    18    19   ar
    33    18    22   ar
    34    18    23    1
    35     9    10    1
    36     9    11    1
    37    10    12    1
    38    11     5    1
    39    33    34    1
    40    33    35    1
    41    34    36    1
    42    35    37    1
    43    36    42    1
    44    20    21   ar
    45    21    22   ar
@<TRIPOS>MOLECULE
*****
 43 45 0 0 0
SMALL
GASTEIGER

@<TRIPOS>ATOM
      1 P          22.5165   72.9815   -4.6724 P.3     1  UNL1        0.2189
      2 O          21.5854   74.2752   -4.3950 O.co2   1  UNL1       -0.4371
      3 O          23.8993   73.0604   -4.0953 O.2     1  UNL1       -0.5170
      4 O          22.4347   72.7808   -6.2758 O.3     1  UNL1       -0.3112
      5 C          21.1983   73.0207   -6.9250 C.3     1  UNL1        0.1811
      6 O          19.1291   71.8028   -6.8295 O.3     1  UNL1       -0.3308
      7 O          20.3805   69.8921   -8.7723 O.3     1  UNL1       -0.3794
      8 O          18.7834   71.4114  -10.3778 O.3     1  UNL1       -0.3779
      9 C          20.5224   71.3088   -8.6817 C.3     1  UNL1        0.1713
     10 C          19.2711   71.9959   -9.1873 C.3     1  UNL1        0.1895
     11 C          20.5189   71.6874   -7.2059 C.3     1  UNL1        0.1764
     12 C          18.3193   71.8188   -8.0165 C.3     1  UNL1        0.2383
     13 H          20.3804   69.6264   -9.7057 H       1  UNL1        0.2105
     14 H          19.4239   71.5508  -11.0926 H       1  UNL1        0.2106
     15 O          15.8884   71.6656   -6.5865 O.2     1  UNL1       -0.2464
     16 O          14.7454   75.9877   -7.7064 O.2     1  UNL1       -0.2670
     17 N          17.3677   72.8893   -7.9173 N.ar    1  UNL1       -0.2551
     18 N          15.3213   73.8179   -7.1451 N.ar    1  UNL1       -0.2743
     19 C          16.1771   72.7094   -7.1754 C.ar    1  UNL1        0.3323
     20 C          17.6195   74.1012   -8.5511 C.ar    1  UNL1        0.0869
     21 C          16.7926   75.1481   -8.5136 C.ar    1  UNL1        0.0795
     22 C          15.5266   75.0429   -7.7598 C.ar    1  UNL1        0.2626
     23 H          14.4855   73.7156   -6.6345 H       1  UNL1        0.1734
     24 O          21.6203   71.7607   -4.1072 O.3     1  UNL1       -0.2703
     25 P          21.9122   70.6812   -2.9400 P.3     1  UNL1        0.2208
     26 O          23.5149   70.4746   -3.0180 O.co2   1  UNL1       -0.4371
     27 O          21.1177   69.4132   -3.0618 O.2     1  UNL1       -0.5170
     28 O          21.6721   71.4915   -1.5649 O.3     1  UNL1       -0.2858
     29 O          23.2830   72.8787   -0.5174 O.3     1  UNL1       -0.3258
     30 O          21.1408   71.7210    2.8175 O.3     1  UNL1       -0.3794
     31 O          20.8894   74.4071    1.8328 O.3     1  UNL1       -0.3794
     32 O          21.6391   69.8218    0.6904 O.3     1  UNL1       -0.3775
     33 C          21.3206   72.0864    1.4465 C.3     1  UNL1        0.1715
     34 C          21.9005   73.5014    1.3994 C.3     1  UNL1        0.1694
     35 C          22.2740   71.0924    0.7859 C.3     1  UNL1        0.1967
     36 C          22.3688   73.8613   -0.0170 C.3     1  UNL1        0.1761
     37 C          22.7168   71.5692   -0.5986 C.3     1  UNL1        0.2704
     38 H          20.5361   72.3479    3.2426 H       1  UNL1        0.2105
     39 H          20.6021   74.1685    2.7282 H       1  UNL1        0.2105
     40 H          21.3638   69.5309    1.5732 H       1  UNL1        0.2106
     41 O          22.1246   76.2377   -0.0653 O.3     1  UNL1       -0.3794
     42 C          23.0932   75.2052   -0.0557 C.3     1  UNL1        0.1693
     43 H          22.5711   77.0989   -0.0896 H       1  UNL1        0.2105
@<TRIPOS>UNITY_ATOM_ATTR
2 1
charge -1
26 1
charge -1
@<TRIPOS>BOND
     1    25    28    1
     2    25    24    1
     3    25    26    1
     4    25    27    2
     5     1     4    1
     6     1    24    1
     7     1     2    1
     8     1     3    2
     9     6    11    1
    10     6    12    1
    11    29    36    1
    12    29    37    1
    13     7     9    1
    14     7    13    1
    15     8    10    1
    16     8    14    1
    17    28    37    1
    18     4     5    1
    19    30    33    1
    20    30    38    1
    21    31    34    1
    22    31    39    1
    23    32    35    1
    24    32    40    1
    25    41    42    1
    26    41    43    1
    27    15    19    2
    28    16    22    2
    29    17    12    1
    30    17    19   ar
    31    17    20   ar
    32    18    19   ar
    33    18    22   ar
    34    18    23    1
    35     9    10    1
    36     9    11    1
    37    10    12    1
    38    11     5    1
    39    33    34    1
    40    33    35    1
    41    34    36    1
    42    35    37    1
    43    36    42    1
    44    20    21   ar
    45    21    22   ar
@<TRIPOS>MOLECULE
*****
 43 45 0 0 0
SMALL
GASTEIGER

@<TRIPOS>ATOM
      1 P          18.4707   70.2509   -3.1130 P.3     1  UNL1        0.2189
      2 O          18.4776   70.0105   -4.7128 O.co2   1  UNL1       -0.4371
      3 O          18.5476   69.0025   -2.2841 O.2     1  UNL1       -0.5170
      4 O          17.1692   71.1797   -2.8653 O.3     1  UNL1       -0.3112
      5 C          16.3501   71.5055   -3.9747 C.3     1  UNL1        0.1811
      6 O          17.5771   73.1285   -5.2530 O.3     1  UNL1       -0.3308
      7 O          15.3047   75.0053   -4.7010 O.3     1  UNL1       -0.3794
      8 O          14.7926   74.1857   -7.2510 O.3     1  UNL1       -0.3779
      9 C          15.2756   73.5993   -4.9414 C.3     1  UNL1        0.1713
     10 C          15.5161   73.3117   -6.4087 C.3     1  UNL1        0.1895
     11 C          16.5094   72.9864   -4.2907 C.3     1  UNL1        0.1764
     12 C          17.0193   73.4995   -6.5243 C.3     1  UNL1        0.2383
     13 H          14.5261   75.4187   -5.1070 H       1  UNL1        0.2105
     14 H          13.8420   74.0275   -7.1412 H       1  UNL1        0.2106
     15 O          16.2220   70.8457   -7.0716 O.2     1  UNL1       -0.2464
     16 O          19.3093   70.4244  -10.4675 O.2     1  UNL1       -0.2670
     17 N          17.5975   72.6732   -7.5462 N.ar    1  UNL1       -0.2551
     18 N          17.7597   70.6381   -8.7622 N.ar    1  UNL1       -0.2743
     19 C          17.1254   71.3539   -7.7388 C.ar    1  UNL1        0.3323
     20 C          18.6206   73.1726   -8.3448 C.ar    1  UNL1        0.0869
     21 C          19.2159   72.4767   -9.3157 C.ar    1  UNL1        0.0795
     22 C          18.7817   71.0901   -9.5819 C.ar    1  UNL1        0.2626
     23 H          17.4476   69.7166   -8.9143 H       1  UNL1        0.1734
     24 O          19.6981   71.2799   -2.8948 O.3     1  UNL1       -0.2703
     25 P          21.2916   71.0262   -2.7977 P.3     1  UNL1        0.2208
     26 O          21.8873   71.9492   -3.9854 O.co2   1  UNL1       -0.4371
     27 O          21.6906   69.5811   -2.8772 O.2     1  UNL1       -0.5170
     28 O          21.7417   71.7706   -1.4382 O.3     1  UNL1       -0.2858
     29 O          21.1317   71.5188    0.8380 O.3     1  UNL1       -0.3258
     30 O          21.2167   75.6420    0.6299 O.3     1  UNL1       -0.3794
     31 O          23.2964   74.2502    2.0392 O.3     1  UNL1       -0.3794
     32 O          20.1918   74.1045   -1.5984 O.3     1  UNL1       -0.3775
     33 C          21.6396   74.3125    0.3152 C.3     1  UNL1        0.1715
     34 C          22.0862   73.6320    1.6107 C.3     1  UNL1        0.1694
     35 C          20.4736   73.5541   -0.3162 C.3     1  UNL1        0.1967
     36 C          22.3002   72.1270    1.4006 C.3     1  UNL1        0.1761
     37 C          20.7710   72.0582   -0.4351 C.3     1  UNL1        0.2704
     38 H          21.9526   76.1291    1.0307 H       1  UNL1        0.2105
     39 H          23.1477   75.2002    2.1677 H       1  UNL1        0.2105
     40 H          20.0049   75.0517   -1.5096 H       1  UNL1        0.2106
     41 O          21.8616   72.0339    3.7475 O.3     1  UNL1       -0.3794
     42 C          22.5926   71.4022    2.7126 C.3     1  UNL1        0.1693
     43 H          22.0377   71.5830    4.5885 H       1  UNL1        0.2105
@<TRIPOS>UNITY_ATOM_ATTR
2 1
charge -1
26 1
charge -1
@<TRIPOS>BOND
     1    25    28    1
     2    25    24    1
     3    25    26    1
     4    25    27    2
     5     1     4    1
     6     1    24    1
     7     1     2    1
     8     1     3    2
     9     6    11    1
    10     6    12    1
    11    29    36    1
    12    29    37    1
    13     7     9    1
    14     7    13    1
    15     8    10    1
    16     8    14    1
    17    28    37    1
    18     4     5    1
    19    30    33    1
    20    30    38    1
    21    31    34    1
    22    31    39    1
    23    32    35    1
    24    32    40    1
    25    41    42    1
    26    41    43    1
    27    15    19    2
    28    16    22    2
    29    17    12    1
    30    17    19   ar
    31    17    20   ar
    32    18    19   ar
    33    18    22   ar
    34    18    23    1
    35     9    10    1
    36     9    11    1
    37    10    12    1
    38    11     5    1
    39    33    34    1
    40    33    35    1
    41    34    36    1
    42    35    37    1
    43    36    42    1
    44    20    21   ar
    45    21    22   ar
@<TRIPOS>MOLECULE
*****
 43 45 0 0 0
SMALL
GASTEIGER

@<TRIPOS>ATOM
      1 P          18.4339   70.0484   -3.2244 P.3     1  UNL1        0.2189
      2 O          18.7123   69.7694   -4.7935 O.co2   1  UNL1       -0.4371
      3 O          18.4284   68.8258   -2.3545 O.2     1  UNL1       -0.5170
      4 O          17.0705   70.9195   -3.2207 O.3     1  UNL1       -0.3112
      5 C          16.4709   71.2422   -4.4633 C.3     1  UNL1        0.1811
      6 O          17.7574   72.9087   -5.6215 O.3     1  UNL1       -0.3308
      7 O          15.4497   74.7601   -5.1340 O.3     1  UNL1       -0.3794
      8 O          15.0798   74.0206   -7.7326 O.3     1  UNL1       -0.3779
      9 C          15.4402   73.3625   -5.4200 C.3     1  UNL1        0.1713
     10 C          15.7609   73.1224   -6.8805 C.3     1  UNL1        0.1895
     11 C          16.6400   72.7328   -4.7232 C.3     1  UNL1        0.1764
     12 C          17.2672   73.3183   -6.9086 C.3     1  UNL1        0.2383
     13 H          14.6922   75.1839   -5.5682 H       1  UNL1        0.2105
     14 H          14.1254   73.8561   -7.6794 H       1  UNL1        0.2106
     15 O          18.8454   74.3737   -9.0000 O.2     1  UNL1       -0.2464
     16 O          19.6581   70.1865  -10.7460 O.2     1  UNL1       -0.2670
     17 N          17.9036   72.5267   -7.9234 N.ar    1  UNL1       -0.2551
     18 N          19.2489   72.2879   -9.8675 N.ar    1  UNL1       -0.2743
     19 C          18.6737   73.1550   -8.9297 C.ar    1  UNL1        0.3323
     20 C          17.7614   71.1434   -7.9140 C.ar    1  UNL1        0.0869
     21 C          18.3153   70.3308   -8.8163 C.ar    1  UNL1        0.0795
     22 C          19.1356   70.9071   -9.9012 C.ar    1  UNL1        0.2626
     23 H          19.7895   72.7032  -10.5782 H       1  UNL1        0.1734
     24 O          19.5636   71.1400   -2.8434 O.3     1  UNL1       -0.2703
     25 P          21.1229   70.9630   -2.4558 P.3     1  UNL1        0.2208
     26 O          21.8921   71.7411   -3.6477 O.co2   1  UNL1       -0.4371
     27 O          21.5525   69.5367   -2.2691 O.2     1  UNL1       -0.5170
     28 O          21.3300   71.8993   -1.1576 O.3     1  UNL1       -0.2858
     29 O          23.1849   73.0726   -0.2635 O.3     1  UNL1       -0.3258
     30 O          21.6238   71.5392    3.2383 O.3     1  UNL1       -0.3794
     31 O          21.3568   74.3426    2.6748 O.3     1  UNL1       -0.3794
     32 O          21.6108   69.9362    0.8279 O.3     1  UNL1       -0.3775
     33 C          21.5712   72.0841    1.9171 C.3     1  UNL1        0.1715
     34 C          22.2158   73.4714    1.9445 C.3     1  UNL1        0.1694
     35 C          22.3269   71.1589    0.9651 C.3     1  UNL1        0.1967
     36 C          22.4378   74.0073    0.5237 C.3     1  UNL1        0.1761
     37 C          22.5366   71.8070   -0.4046 C.3     1  UNL1        0.2704
     38 H          21.1454   72.1217    3.8477 H       1  UNL1        0.2105
     39 H          21.2244   73.9926    3.5699 H       1  UNL1        0.2105
     40 H          21.4848   69.5357    1.7017 H       1  UNL1        0.2106
     41 O          24.6032   75.0155    0.5820 O.3     1  UNL1       -0.3794
     42 C          23.2215   75.3180    0.5228 C.3     1  UNL1        0.1693
     43 H          25.1145   75.8403    0.5818 H       1  UNL1        0.2105
@<TRIPOS>UNITY_ATOM_ATTR
2 1
charge -1
26 1
charge -1
@<TRIPOS>BOND
     1    25    28    1
     2    25    24    1
     3    25    26    1
     4    25    27    2
     5     1     4    1
     6     1    24    1
     7     1     2    1
     8     1     3    2
     9     6    11    1
    10     6    12    1
    11    29    36    1
    12    29    37    1
    13     7     9    1
    14     7    13    1
    15     8    10    1
    16     8    14    1
    17    28    37    1
    18     4     5    1
    19    30    33    1
    20    30    38    1
    21    31    34    1
    22    31    39    1
    23    32    35    1
    24    32    40    1
    25    41    42    1
    26    41    43    1
    27    15    19    2
    28    16    22    2
    29    17    12    1
    30    17    19   ar
    31    17    20   ar
    32    18    19   ar
    33    18    22   ar
    34    18    23    1
    35     9    10    1
    36     9    11    1
    37    10    12    1
    38    11     5    1
    39    33    34    1
    40    33    35    1
    41    34    36    1
    42    35    37    1
    43    36    42    1
    44    20    21   ar
    45    21    22   ar
