@<TRIPOS>MOLECULE
*****
 43 45 0 0 0
SMALL
GASTEIGER

@<TRIPOS>ATOM
      1 P          22.9707   71.5523   -2.5735 P.3     1  UNL1        0.2189
      2 O          23.0987   73.0913   -2.0897 O.co2   1  UNL1       -0.4371
      3 O          24.2336   70.9523   -3.1182 O.2     1  UNL1       -0.5170
      4 O          21.7068   71.5665   -3.5836 O.3     1  UNL1       -0.3112
      5 C          20.8362   70.4501   -3.5929 C.3     1  UNL1        0.1811
      6 O          18.9409   71.5904   -4.5337 O.3     1  UNL1       -0.3308
      7 O          17.3283   70.3252   -2.3450 O.3     1  UNL1       -0.3794
      8 O          16.7579   68.7466   -4.4941 O.3     1  UNL1       -0.3779
      9 C          18.4332   69.7934   -3.0764 C.3     1  UNL1        0.1713
     10 C          18.0013   69.4161   -4.4776 C.3     1  UNL1        0.1895
     11 C          19.4125   70.9291   -3.3397 C.3     1  UNL1        0.1764
     12 C          17.9460   70.7694   -5.1657 C.3     1  UNL1        0.2383
     13 H          16.6889   69.6179   -2.1648 H       1  UNL1        0.2105
     14 H          16.8455   67.8909   -4.0445 H       1  UNL1        0.2106
     15 O          16.0219   70.2213   -7.1592 O.2     1  UNL1       -0.2464
     16 O          19.1680   70.4606  -10.5191 O.2     1  UNL1       -0.2670
     17 N          18.2349   70.6827   -6.5692 N.ar    1  UNL1       -0.2551
     18 N          17.5908   70.3400   -8.8306 N.ar    1  UNL1       -0.2743
     19 C          17.1959   70.4022   -7.4878 C.ar    1  UNL1        0.3323
     20 C          19.5340   70.8761   -7.0231 C.ar    1  UNL1        0.0869
     21 C          19.8951   70.8138   -8.3063 C.ar    1  UNL1        0.0795
     22 C          18.8698   70.5244   -9.3303 C.ar    1  UNL1        0.2626
     23 H          16.8852   70.1440   -9.4886 H       1  UNL1        0.1734
     24 O          22.3816   70.8084   -1.2648 O.3     1  UNL1       -0.2703
     25 P          21.7548   71.4025    0.1018 P.3     1  UNL1        0.2208
     26 O          21.2673   70.0766    0.8921 O.co2   1  UNL1       -0.4371
     27 O          20.6783   72.4276   -0.1091 O.2     1  UNL1       -0.5170
     28 O          23.0277   71.9313    0.9400 O.3     1  UNL1       -0.2858
     29 O          24.7211   71.3264    2.4813 O.3     1  UNL1       -0.3226
     30 O          22.6427   74.1998    4.6007 O.3     1  UNL1       -0.3794
     31 O          21.2123   72.1939    3.0308 O.3     1  UNL1       -0.3775
     32 O          25.2158   74.8415    3.4096 O.3     1  UNL1       -0.3792
     33 C          23.1705   73.5682    3.4343 C.3     1  UNL1        0.1718
     34 C          22.6051   72.1524    3.3188 C.3     1  UNL1        0.1968
     35 C          24.6942   73.5235    3.5691 C.3     1  UNL1        0.1723
     36 C          23.3182   71.3667    2.2174 C.3     1  UNL1        0.2706
     37 C          25.3208   72.6197    2.5112 C.3     1  UNL1        0.1830
     38 H          21.6754   74.2395    4.5375 H       1  UNL1        0.2105
     39 H          20.7536   72.6912    3.7255 H       1  UNL1        0.2106
     40 H          24.8248   75.4269    4.0769 H       1  UNL1        0.2106
     41 O          27.0707   71.0583    2.4722 O.co2   1  UNL1       -0.5466
     42 O          27.5199   73.1016    3.3791 O.co2   1  UNL1       -0.5466
     43 C          26.7460   72.3210    2.8455 C.2     1  UNL1        0.0799
@<TRIPOS>UNITY_ATOM_ATTR
2 1
charge -1
26 1
charge -1
41 1
charge -1
@<TRIPOS>BOND
     1     1     4    1
     2     1    24    1
     3     1     2    1
     4     1     3    2
     5    25    28    1
     6    25    24    1
     7    25    26    1
     8    25    27    2
     9     6    11    1
    10     6    12    1
    11    29    36    1
    12    29    37    1
    13     7     9    1
    14     7    13    1
    15     8    10    1
    16     8    14    1
    17     4     5    1
    18    28    36    1
    19    30    33    1
    20    30    38    1
    21    31    34    1
    22    31    39    1
    23    32    35    1
    24    32    40    1
    25    41    43   ar
    26    15    19    2
    27    42    43   ar
    28    16    22    2
    29    17    12    1
    30    17    19   ar
    31    17    20   ar
    32    18    19   ar
    33    18    22   ar
    34    18    23    1
    35     9    10    1
    36     9    11    1
    37    10    12    1
    38    11     5    1
    39    33    34    1
    40    33    35    1
    41    34    36    1
    42    35    37    1
    43    37    43    1
    44    20    21   ar
    45    21    22   ar
@<TRIPOS>MOLECULE
*****
 43 45 0 0 0
SMALL
GASTEIGER

@<TRIPOS>ATOM
      1 P          21.7044   72.5194   -4.6718 P.3     1  UNL1        0.2189
      2 O          20.9792   73.9656   -4.7086 O.co2   1  UNL1       -0.4371
      3 O          22.9029   72.3886   -5.5653 O.2     1  UNL1       -0.5170
      4 O          20.5015   71.4743   -4.9523 O.3     1  UNL1       -0.3112
      5 C          19.8384   70.8934   -3.8445 C.3     1  UNL1        0.1811
      6 O          18.0760   71.8046   -5.2015 O.3     1  UNL1       -0.3308
      7 O          16.1785   70.6162   -3.2069 O.3     1  UNL1       -0.3794
      8 O          16.0895   68.8205   -5.2571 O.3     1  UNL1       -0.3779
      9 C          17.4242   70.1070   -3.6836 C.3     1  UNL1        0.1713
     10 C          17.2694   69.5795   -5.0943 C.3     1  UNL1        0.1895
     11 C          18.3670   71.2854   -3.8858 C.3     1  UNL1        0.1764
     12 C          17.2579   70.8606   -5.9106 C.3     1  UNL1        0.2383
     13 H          15.5595   69.8815   -3.0702 H       1  UNL1        0.2105
     14 H          16.1459   68.0156   -4.7178 H       1  UNL1        0.2106
     15 O          15.6960   70.6625   -8.2553 O.2     1  UNL1       -0.2464
     16 O          19.4251   70.1499  -10.9152 O.2     1  UNL1       -0.2670
     17 N          17.7948   70.6752   -7.2290 N.ar    1  UNL1       -0.2551
     18 N          17.5547   70.4064   -9.5777 N.ar    1  UNL1       -0.2743
     19 C          16.9232   70.5880   -8.3403 C.ar    1  UNL1        0.3323
     20 C          19.1693   70.5835   -7.4116 C.ar    1  UNL1        0.0869
     21 C          19.7565   70.4105   -8.5973 C.ar    1  UNL1        0.0795
     22 C          18.9172   70.3087   -9.8092 C.ar    1  UNL1        0.2626
     23 H          16.9684   70.3407  -10.3659 H       1  UNL1        0.1734
     24 O          22.0109   72.3070   -3.0989 O.3     1  UNL1       -0.2703
     25 P          23.4062   72.1105   -2.3065 P.3     1  UNL1        0.2208
     26 O          24.1994   73.4893   -2.6066 O.co2   1  UNL1       -0.4371
     27 O          24.1599   70.8685   -2.6852 O.2     1  UNL1       -0.5170
     28 O          23.0071   72.2018   -0.7461 O.3     1  UNL1       -0.2858
     29 O          24.3985   71.1321    0.8442 O.3     1  UNL1       -0.3226
     30 O          20.9716   71.8137    3.0488 O.3     1  UNL1       -0.3794
     31 O          20.7942   70.8723    0.2890 O.3     1  UNL1       -0.3775
     32 O          23.3216   73.4767    3.4529 O.3     1  UNL1       -0.3792
     33 C          21.9505   72.0827    2.0451 C.3     1  UNL1        0.1718
     34 C          21.9954   70.9228    1.0501 C.3     1  UNL1        0.1968
     35 C          23.3059   72.2430    2.7373 C.3     1  UNL1        0.1723
     36 C          23.1831   71.0649    0.0973 C.3     1  UNL1        0.2706
     37 C          24.4498   72.2504    1.7273 C.3     1  UNL1        0.1830
     38 H          20.1018   71.7080    2.6323 H       1  UNL1        0.2105
     39 H          20.0364   70.7824    0.8873 H       1  UNL1        0.2106
     40 H          22.5982   73.4849    4.0991 H       1  UNL1        0.2106
     41 O          26.2778   70.8461    2.1603 O.co2   1  UNL1       -0.5466
     42 O          26.3115   72.9194    3.1085 O.co2   1  UNL1       -0.5466
     43 C          25.7650   72.0755    2.4141 C.2     1  UNL1        0.0799
@<TRIPOS>UNITY_ATOM_ATTR
2 1
charge -1
26 1
charge -1
41 1
charge -1
@<TRIPOS>BOND
     1     1     4    1
     2     1    24    1
     3     1     2    1
     4     1     3    2
     5    25    28    1
     6    25    24    1
     7    25    26    1
     8    25    27    2
     9     6    11    1
    10     6    12    1
    11    29    36    1
    12    29    37    1
    13     7     9    1
    14     7    13    1
    15     8    10    1
    16     8    14    1
    17     4     5    1
    18    28    36    1
    19    30    33    1
    20    30    38    1
    21    31    34    1
    22    31    39    1
    23    32    35    1
    24    32    40    1
    25    41    43   ar
    26    15    19    2
    27    42    43   ar
    28    16    22    2
    29    17    12    1
    30    17    19   ar
    31    17    20   ar
    32    18    19   ar
    33    18    22   ar
    34    18    23    1
    35     9    10    1
    36     9    11    1
    37    10    12    1
    38    11     5    1
    39    33    34    1
    40    33    35    1
    41    34    36    1
    42    35    37    1
    43    37    43    1
    44    20    21   ar
    45    21    22   ar
@<TRIPOS>MOLECULE
*****
 43 45 0 0 0
SMALL
GASTEIGER

@<TRIPOS>ATOM
      1 P          21.4387   71.6224   -4.0715 P.3     1  UNL1        0.2189
      2 O          21.7156   71.7766   -5.6585 O.co2   1  UNL1       -0.4371
      3 O          22.0562   70.4117   -3.4353 O.2     1  UNL1       -0.5170
      4 O          19.8299   71.7393   -3.9447 O.3     1  UNL1       -0.3112
      5 C          19.1065   70.6210   -3.4644 C.3     1  UNL1        0.1811
      6 O          17.4102   71.5056   -4.9197 O.3     1  UNL1       -0.3308
      7 O          15.4453   69.9640   -3.2602 O.3     1  UNL1       -0.3794
      8 O          15.7389   68.3802   -5.4605 O.3     1  UNL1       -0.3779
      9 C          16.7764   69.6152   -3.6409 C.3     1  UNL1        0.1713
     10 C          16.8169   69.2191   -5.1016 C.3     1  UNL1        0.1895
     11 C          17.6157   70.8854   -3.6318 C.3     1  UNL1        0.1764
     12 C          16.7635   70.5692   -5.7961 C.3     1  UNL1        0.2383
     13 H          14.8899   69.1682   -3.2587 H       1  UNL1        0.2105
     14 H          15.8184   67.5336   -4.9925 H       1  UNL1        0.2106
     15 O          15.4742   70.6684   -8.3069 O.2     1  UNL1       -0.2464
     16 O          19.4842   70.5409  -10.5757 O.2     1  UNL1       -0.2670
     17 N          17.4464   70.5632   -7.0588 N.ar    1  UNL1       -0.2551
     18 N          17.4726   70.6038   -9.4345 N.ar    1  UNL1       -0.2743
     19 C          16.7047   70.6158   -8.2627 C.ar    1  UNL1        0.3323
     20 C          18.8344   70.5076   -7.0965 C.ar    1  UNL1        0.0869
     21 C          19.5524   70.4970   -8.2213 C.ar    1  UNL1        0.0795
     22 C          18.8542   70.5486   -9.5225 C.ar    1  UNL1        0.2626
     23 H          16.9783   70.6376  -10.2853 H       1  UNL1        0.1734
     24 O          21.9538   73.0334   -3.4745 O.3     1  UNL1       -0.2703
     25 P          23.4477   73.5923   -3.2105 P.3     1  UNL1        0.2208
     26 O          23.2803   75.1927   -3.3867 O.co2   1  UNL1       -0.4371
     27 O          24.4987   72.9799   -4.0904 O.2     1  UNL1       -0.5170
     28 O          23.6908   73.3799   -1.6299 O.3     1  UNL1       -0.2858
     29 O          22.0371   73.1613    0.0513 O.3     1  UNL1       -0.3226
     30 O          25.1950   74.7610    2.1812 O.3     1  UNL1       -0.3794
     31 O          24.5467   75.7655   -0.4843 O.3     1  UNL1       -0.3775
     32 O          24.5405   71.9404    2.4397 O.3     1  UNL1       -0.3792
     33 C          24.5747   73.9810    1.1591 C.3     1  UNL1        0.1718
     34 C          23.7210   74.8867    0.2712 C.3     1  UNL1        0.1968
     35 C          23.7008   72.9229    1.8364 C.3     1  UNL1        0.1723
     36 C          22.8633   74.0610   -0.6886 C.3     1  UNL1        0.2706
     37 C          22.7844   72.2308    0.8316 C.3     1  UNL1        0.1830
     38 H          25.7556   75.4403    1.7744 H       1  UNL1        0.2105
     39 H          25.0939   76.2924    0.1184 H       1  UNL1        0.2106
     40 H          25.1290   72.3679    3.0814 H       1  UNL1        0.2106
     41 O          21.6651   70.1821    1.0581 O.co2   1  UNL1       -0.5466
     42 O          20.9977   71.8876    2.4163 O.co2   1  UNL1       -0.5466
     43 C          21.7206   71.4509    1.5333 C.2     1  UNL1        0.0799
@<TRIPOS>UNITY_ATOM_ATTR
2 1
charge -1
26 1
charge -1
41 1
charge -1
@<TRIPOS>BOND
     1     1     4    1
     2     1    24    1
     3     1     2    1
     4     1     3    2
     5    25    28    1
     6    25    24    1
     7    25    26    1
     8    25    27    2
     9     6    11    1
    10     6    12    1
    11    29    36    1
    12    29    37    1
    13     7     9    1
    14     7    13    1
    15     8    10    1
    16     8    14    1
    17     4     5    1
    18    28    36    1
    19    30    33    1
    20    30    38    1
    21    31    34    1
    22    31    39    1
    23    32    35    1
    24    32    40    1
    25    41    43   ar
    26    15    19    2
    27    42    43   ar
    28    16    22    2
    29    17    12    1
    30    17    19   ar
    31    17    20   ar
    32    18    19   ar
    33    18    22   ar
    34    18    23    1
    35     9    10    1
    36     9    11    1
    37    10    12    1
    38    11     5    1
    39    33    34    1
    40    33    35    1
    41    34    36    1
    42    35    37    1
    43    37    43    1
    44    20    21   ar
    45    21    22   ar
@<TRIPOS>MOLECULE
*****
 43 45 0 0 0
SMALL
GASTEIGER

@<TRIPOS>ATOM
      1 P          20.0881   71.9558   -1.5334 P.3     1  UNL1        0.2189
      2 O          20.5561   70.5885   -0.8051 O.co2   1  UNL1       -0.4371
      3 O          19.1707   72.8234   -0.7226 O.2     1  UNL1       -0.5170
      4 O          19.5064   71.4574   -2.9586 O.3     1  UNL1       -0.3112
      5 C          18.7969   72.3837   -3.7605 C.3     1  UNL1        0.1811
      6 O          16.9497   72.0372   -5.2590 O.3     1  UNL1       -0.3308
      7 O          15.7713   70.3097   -3.1099 O.3     1  UNL1       -0.3794
      8 O          16.8140   68.4789   -4.8410 O.3     1  UNL1       -0.3779
      9 C          17.1379   70.4740   -3.4893 C.3     1  UNL1        0.1713
     10 C          17.4085   69.7592   -4.7963 C.3     1  UNL1        0.1895
     11 C          17.3465   71.9322   -3.8745 C.3     1  UNL1        0.1764
     12 C          16.8085   70.7183   -5.8103 C.3     1  UNL1        0.2383
     13 H          15.6138   69.3856   -2.8594 H       1  UNL1        0.2105
     14 H          17.2304   67.9058   -4.1775 H       1  UNL1        0.2106
     15 O          15.4968   70.6119   -8.3092 O.2     1  UNL1       -0.2464
     16 O          19.4909   70.5258  -10.6078 O.2     1  UNL1       -0.2670
     17 N          17.4813   70.6674   -7.0775 N.ar    1  UNL1       -0.2551
     18 N          17.4873   70.5681   -9.4516 N.ar    1  UNL1       -0.2743
     19 C          16.7287   70.6159   -8.2746 C.ar    1  UNL1        0.3323
     20 C          18.8700   70.6704   -7.1261 C.ar    1  UNL1        0.0869
     21 C          19.5791   70.6245   -8.2556 C.ar    1  UNL1        0.0795
     22 C          18.8693   70.5683   -9.5504 C.ar    1  UNL1        0.2626
     23 H          16.9855   70.5297  -10.2978 H       1  UNL1        0.1734
     24 O          21.4907   72.6508   -1.9363 O.3     1  UNL1       -0.2703
     25 P          22.9800   72.4617   -1.3363 P.3     1  UNL1        0.2208
     26 O          23.7634   73.7735   -1.8710 O.co2   1  UNL1       -0.4371
     27 O          23.6312   71.1599   -1.7036 O.2     1  UNL1       -0.5170
     28 O          22.8158   72.7040    0.2502 O.3     1  UNL1       -0.2858
     29 O          24.3507   71.5100    1.6021 O.3     1  UNL1       -0.3226
     30 O          21.7050   72.9679    4.4205 O.3     1  UNL1       -0.3794
     31 O          20.7252   71.8835    1.8910 O.3     1  UNL1       -0.3775
     32 O          24.3233   74.1914    4.1065 O.3     1  UNL1       -0.3792
     33 C          22.4478   72.9796    3.2014 C.3     1  UNL1        0.1718
     34 C          22.0644   71.7642    2.3569 C.3     1  UNL1        0.1968
     35 C          23.9363   72.9346    3.5541 C.3     1  UNL1        0.1723
     36 C          22.9985   71.6165    1.1550 C.3     1  UNL1        0.2706
     37 C          24.7927   72.6589    2.3216 C.3     1  UNL1        0.1830
     38 H          20.7559   72.9960    4.2213 H       1  UNL1        0.2105
     39 H          20.1271   71.9778    2.6484 H       1  UNL1        0.2106
     40 H          23.7856   74.3789    4.8917 H       1  UNL1        0.2106
     41 O          26.4327   70.9866    2.4447 O.co2   1  UNL1       -0.5466
     42 O          26.9997   73.0578    3.2112 O.co2   1  UNL1       -0.5466
     43 C          26.1866   72.2924    2.7154 C.2     1  UNL1        0.0799
@<TRIPOS>UNITY_ATOM_ATTR
2 1
charge -1
26 1
charge -1
41 1
charge -1
@<TRIPOS>BOND
     1     1     4    1
     2     1    24    1
     3     1     2    1
     4     1     3    2
     5    25    28    1
     6    25    24    1
     7    25    26    1
     8    25    27    2
     9     6    11    1
    10     6    12    1
    11    29    36    1
    12    29    37    1
    13     7     9    1
    14     7    13    1
    15     8    10    1
    16     8    14    1
    17     4     5    1
    18    28    36    1
    19    30    33    1
    20    30    38    1
    21    31    34    1
    22    31    39    1
    23    32    35    1
    24    32    40    1
    25    41    43   ar
    26    15    19    2
    27    42    43   ar
    28    16    22    2
    29    17    12    1
    30    17    19   ar
    31    17    20   ar
    32    18    19   ar
    33    18    22   ar
    34    18    23    1
    35     9    10    1
    36     9    11    1
    37    10    12    1
    38    11     5    1
    39    33    34    1
    40    33    35    1
    41    34    36    1
    42    35    37    1
    43    37    43    1
    44    20    21   ar
    45    21    22   ar
@<TRIPOS>MOLECULE
*****
 43 45 0 0 0
SMALL
GASTEIGER

@<TRIPOS>ATOM
      1 P          23.5100   73.5621   -4.1686 P.3     1  UNL1        0.2189
      2 O          22.7951   75.0012   -4.3604 O.co2   1  UNL1       -0.4371
      3 O          25.0038   73.6096   -4.0346 O.2     1  UNL1       -0.5170
      4 O          22.9427   72.6792   -5.4001 O.3     1  UNL1       -0.3112
      5 C          21.5894   72.2644   -5.3676 C.3     1  UNL1        0.1811
      6 O          20.4896   70.3382   -6.2937 O.3     1  UNL1       -0.3308
      7 O          20.6446   71.7504   -8.9343 O.3     1  UNL1       -0.3794
      8 O          18.0613   72.1850   -8.1769 O.3     1  UNL1       -0.3779
      9 C          20.4283   72.2922   -7.6311 C.3     1  UNL1        0.1713
     10 C          19.0223   71.9834   -7.1619 C.3     1  UNL1        0.1895
     11 C          21.2747   71.4979   -6.6458 C.3     1  UNL1        0.1764
     12 C          19.1404   70.5261   -6.7494 C.3     1  UNL1        0.2383
     13 H          20.1140   72.2419   -9.5813 H       1  UNL1        0.2105
     14 H          18.0237   73.1278   -8.4040 H       1  UNL1        0.2106
     15 O          16.4405   69.7894   -7.1297 O.2     1  UNL1       -0.2464
     16 O          15.7667   69.2263   -2.6050 O.2     1  UNL1       -0.2670
     17 N          18.2369   70.1819   -5.6883 N.ar    1  UNL1       -0.2551
     18 N          16.1072   69.5106   -4.8757 N.ar    1  UNL1       -0.2743
     19 C          16.9002   69.8265   -5.9868 C.ar    1  UNL1        0.3323
     20 C          18.6770   70.1969   -4.3703 C.ar    1  UNL1        0.0869
     21 C          17.9095   69.8933   -3.3218 C.ar    1  UNL1        0.0795
     22 C          16.4998   69.5119   -3.5470 C.ar    1  UNL1        0.2626
     23 H          15.1723   69.2620   -5.0583 H       1  UNL1        0.1734
     24 O          22.7387   72.9413   -2.8908 O.3     1  UNL1       -0.2703
     25 P          22.8891   71.5111   -2.1522 P.3     1  UNL1        0.2208
     26 O          24.2312   70.8929   -2.8130 O.co2   1  UNL1       -0.4371
     27 O          21.6800   70.6285   -2.2673 O.2     1  UNL1       -0.5170
     28 O          23.3109   71.8747   -0.6382 O.3     1  UNL1       -0.2858
     29 O          24.6576   70.9609    1.0824 O.3     1  UNL1       -0.3226
     30 O          21.2116   71.9375    3.1413 O.3     1  UNL1       -0.3794
     31 O          21.0578   70.7042    0.4975 O.3     1  UNL1       -0.3775
     32 O          23.5862   73.5940    3.4022 O.3     1  UNL1       -0.3792
     33 C          22.2103   72.0787    2.1311 C.3     1  UNL1        0.1718
     34 C          22.2482   70.8166    1.2689 C.3     1  UNL1        0.1968
     35 C          23.5580   72.2901    2.8247 C.3     1  UNL1        0.1723
     36 C          23.4526   70.8337    0.3267 C.3     1  UNL1        0.2706
     37 C          24.7168   72.1678    1.8394 C.3     1  UNL1        0.1830
     38 H          20.3462   71.8020    2.7240 H       1  UNL1        0.2105
     39 H          20.2895   70.6931    1.0890 H       1  UNL1        0.2106
     40 H          22.8535   73.6850    4.0312 H       1  UNL1        0.2106
     41 O          26.5519   70.8125    2.3845 O.co2   1  UNL1       -0.5466
     42 O          26.5378   72.9317    3.2257 O.co2   1  UNL1       -0.5466
     43 C          26.0181   72.0461    2.5635 C.2     1  UNL1        0.0799
@<TRIPOS>UNITY_ATOM_ATTR
2 1
charge -1
26 1
charge -1
41 1
charge -1
@<TRIPOS>BOND
     1     1     4    1
     2     1    24    1
     3     1     2    1
     4     1     3    2
     5    25    28    1
     6    25    24    1
     7    25    26    1
     8    25    27    2
     9     6    11    1
    10     6    12    1
    11    29    36    1
    12    29    37    1
    13     7     9    1
    14     7    13    1
    15     8    10    1
    16     8    14    1
    17     4     5    1
    18    28    36    1
    19    30    33    1
    20    30    38    1
    21    31    34    1
    22    31    39    1
    23    32    35    1
    24    32    40    1
    25    41    43   ar
    26    15    19    2
    27    42    43   ar
    28    16    22    2
    29    17    12    1
    30    17    19   ar
    31    17    20   ar
    32    18    19   ar
    33    18    22   ar
    34    18    23    1
    35     9    10    1
    36     9    11    1
    37    10    12    1
    38    11     5    1
    39    33    34    1
    40    33    35    1
    41    34    36    1
    42    35    37    1
    43    37    43    1
    44    20    21   ar
    45    21    22   ar
@<TRIPOS>MOLECULE
*****
 43 45 0 0 0
SMALL
GASTEIGER

@<TRIPOS>ATOM
      1 P          21.3228   71.0393   -2.7276 P.3     1  UNL1        0.2189
      2 O          20.8588   69.7120   -3.5287 O.co2   1  UNL1       -0.4371
      3 O          21.9339   70.7854   -1.3808 O.2     1  UNL1       -0.5170
      4 O          20.0052   71.9784   -2.7356 O.3     1  UNL1       -0.3112
      5 C          19.4590   72.3664   -3.9829 C.3     1  UNL1        0.1811
      6 O          17.4667   72.2311   -5.3208 O.3     1  UNL1       -0.3308
      7 O          16.2501   70.7344   -3.0249 O.3     1  UNL1       -0.3794
      8 O          16.8989   68.7354   -4.7625 O.3     1  UNL1       -0.3779
      9 C          17.5910   70.7040   -3.5144 C.3     1  UNL1        0.1713
     10 C          17.6582   69.9253   -4.8110 C.3     1  UNL1        0.1895
     11 C          17.9575   72.1105   -3.9681 C.3     1  UNL1        0.1764
     12 C          17.1090   70.9290   -5.8105 C.3     1  UNL1        0.2383
     13 H          15.9933   69.8466   -2.7291 H       1  UNL1        0.2105
     14 H          17.2888   68.1294   -4.1123 H       1  UNL1        0.2106
     15 O          15.5765   70.6752   -8.1692 O.2     1  UNL1       -0.2464
     16 O          19.3450   70.2658  -10.7913 O.2     1  UNL1       -0.2670
     17 N          17.6640   70.7550   -7.1230 N.ar    1  UNL1       -0.2551
     18 N          17.4549   70.4705   -9.4728 N.ar    1  UNL1       -0.2743
     19 C          16.8063   70.6375   -8.2421 C.ar    1  UNL1        0.3323
     20 C          19.0423   70.7041   -7.2920 C.ar    1  UNL1        0.0869
     21 C          19.6459   70.5446   -8.4714 C.ar    1  UNL1        0.0795
     22 C          18.8219   70.4131   -9.6909 C.ar    1  UNL1        0.2626
     23 H          16.8785   70.3843  -10.2663 H       1  UNL1        0.1734
     24 O          22.3008   71.7765   -3.7826 O.3     1  UNL1       -0.2703
     25 P          23.1258   73.1627   -3.6755 P.3     1  UNL1        0.2208
     26 O          22.2859   74.1674   -4.6270 O.co2   1  UNL1       -0.4371
     27 O          24.5792   73.0435   -4.0322 O.2     1  UNL1       -0.5170
     28 O          22.8453   73.6912   -2.1773 O.3     1  UNL1       -0.2858
     29 O          23.9180   75.6116   -1.2996 O.3     1  UNL1       -0.3226
     30 O          22.7395   73.6588    2.1451 O.3     1  UNL1       -0.3794
     31 O          23.8704   72.1606   -0.0934 O.3     1  UNL1       -0.3775
     32 O          21.2852   76.0021    1.2259 O.3     1  UNL1       -0.3792
     33 C          22.6449   74.0639    0.7794 C.3     1  UNL1        0.1718
     34 C          23.8774   73.5794    0.0154 C.3     1  UNL1        0.1968
     35 C          22.5633   75.5917    0.7439 C.3     1  UNL1        0.1723
     36 C          23.9250   74.1863   -1.3875 C.3     1  UNL1        0.2706
     37 C          22.7448   76.1264   -0.6737 C.3     1  UNL1        0.1830
     38 H          22.7926   72.6913    2.1926 H       1  UNL1        0.2105
     39 H          23.8399   71.7689    0.7932 H       1  UNL1        0.2106
     40 H          21.1570   75.6680    2.1275 H       1  UNL1        0.2106
     41 O          23.5445   78.0055   -1.8275 O.co2   1  UNL1       -0.5466
     42 O          22.7336   78.3441    0.2765 O.co2   1  UNL1       -0.5466
     43 C          22.9923   77.5998   -0.6572 C.2     1  UNL1        0.0799
@<TRIPOS>UNITY_ATOM_ATTR
2 1
charge -1
26 1
charge -1
41 1
charge -1
@<TRIPOS>BOND
     1     1     4    1
     2     1    24    1
     3     1     2    1
     4     1     3    2
     5    25    28    1
     6    25    24    1
     7    25    26    1
     8    25    27    2
     9     6    11    1
    10     6    12    1
    11    29    36    1
    12    29    37    1
    13     7     9    1
    14     7    13    1
    15     8    10    1
    16     8    14    1
    17     4     5    1
    18    28    36    1
    19    30    33    1
    20    30    38    1
    21    31    34    1
    22    31    39    1
    23    32    35    1
    24    32    40    1
    25    41    43   ar
    26    15    19    2
    27    42    43   ar
    28    16    22    2
    29    17    12    1
    30    17    19   ar
    31    17    20   ar
    32    18    19   ar
    33    18    22   ar
    34    18    23    1
    35     9    10    1
    36     9    11    1
    37    10    12    1
    38    11     5    1
    39    33    34    1
    40    33    35    1
    41    34    36    1
    42    35    37    1
    43    37    43    1
    44    20    21   ar
    45    21    22   ar
@<TRIPOS>MOLECULE
*****
 43 45 0 0 0
SMALL
GASTEIGER

@<TRIPOS>ATOM
      1 P          20.2671   71.5063   -1.2431 P.3     1  UNL1        0.2189
      2 O          21.1633   70.6629   -0.1921 O.co2   1  UNL1       -0.4371
      3 O          19.0756   72.1975   -0.6480 O.2     1  UNL1       -0.5170
      4 O          19.9475   70.4441   -2.4211 O.3     1  UNL1       -0.3112
      5 C          19.6219   70.9385   -3.7072 C.3     1  UNL1        0.1811
      6 O          17.8218   71.7640   -5.0694 O.3     1  UNL1       -0.3308
      7 O          15.9808   70.3890   -3.1428 O.3     1  UNL1       -0.3794
      8 O          16.0503   68.6518   -5.2436 O.3     1  UNL1       -0.3779
      9 C          17.2666   69.9817   -3.6114 C.3     1  UNL1        0.1713
     10 C          17.1714   69.4859   -5.0387 C.3     1  UNL1        0.1895
     11 C          18.1275   71.2282   -3.7638 C.3     1  UNL1        0.1764
     12 C          17.0830   70.7864   -5.8190 C.3     1  UNL1        0.2383
     13 H          15.4127   69.6093   -3.0377 H       1  UNL1        0.2105
     14 H          16.1544   67.8374   -4.7261 H       1  UNL1        0.2106
     15 O          15.5757   70.5974   -8.2000 O.2     1  UNL1       -0.2464
     16 O          19.3734   70.3715  -10.8019 O.2     1  UNL1       -0.2670
     17 N          17.6524   70.6772   -7.1324 N.ar    1  UNL1       -0.2551
     18 N          17.4686   70.4841   -9.4935 N.ar    1  UNL1       -0.2743
     19 C          16.8065   70.5877   -8.2631 C.ar    1  UNL1        0.3323
     20 C          19.0328   70.6613   -7.2907 C.ar    1  UNL1        0.0869
     21 C          19.6493   70.5621   -8.4701 C.ar    1  UNL1        0.0795
     22 C          18.8383   70.4634   -9.7013 C.ar    1  UNL1        0.2626
     23 H          16.9007   70.4185  -10.2951 H       1  UNL1        0.1734
     24 O          21.3465   72.4952   -1.9286 O.3     1  UNL1       -0.2703
     25 P          22.9571   72.4006   -2.0320 P.3     1  UNL1        0.2208
     26 O          23.1978   70.9759   -2.7619 O.co2   1  UNL1       -0.4371
     27 O          23.6683   72.5505   -0.7184 O.2     1  UNL1       -0.5170
     28 O          23.3612   73.4998   -3.1415 O.3     1  UNL1       -0.2858
     29 O          23.8458   75.8064   -2.9091 O.3     1  UNL1       -0.3226
     30 O          22.0863   75.6893   -6.6452 O.3     1  UNL1       -0.3794
     31 O          20.9817   74.1257   -4.4384 O.3     1  UNL1       -0.3775
     32 O          24.9678   75.9839   -6.3979 O.3     1  UNL1       -0.3792
     33 C          22.8561   75.1910   -5.5511 C.3     1  UNL1        0.1718
     34 C          21.9827   75.1272   -4.2978 C.3     1  UNL1        0.1968
     35 C          24.0349   76.1416   -5.3305 C.3     1  UNL1        0.1723
     36 C          22.8250   74.8191   -3.0591 C.3     1  UNL1        0.2706
     37 C          24.7472   75.8494   -4.0130 C.3     1  UNL1        0.1830
     38 H          21.3312   75.1011   -6.8039 H       1  UNL1        0.2105
     39 H          20.4437   74.3148   -5.2227 H       1  UNL1        0.2106
     40 H          24.5269   76.1669   -7.2423 H       1  UNL1        0.2106
     41 O          25.6002   77.9628   -4.5674 O.co2   1  UNL1       -0.5466
     42 O          26.3890   76.9899   -2.6621 O.co2   1  UNL1       -0.5466
     43 C          25.6697   76.9671   -3.6495 C.2     1  UNL1        0.0799
@<TRIPOS>UNITY_ATOM_ATTR
2 1
charge -1
26 1
charge -1
41 1
charge -1
@<TRIPOS>BOND
     1     1     4    1
     2     1    24    1
     3     1     2    1
     4     1     3    2
     5    25    28    1
     6    25    24    1
     7    25    26    1
     8    25    27    2
     9     6    11    1
    10     6    12    1
    11    29    36    1
    12    29    37    1
    13     7     9    1
    14     7    13    1
    15     8    10    1
    16     8    14    1
    17     4     5    1
    18    28    36    1
    19    30    33    1
    20    30    38    1
    21    31    34    1
    22    31    39    1
    23    32    35    1
    24    32    40    1
    25    41    43   ar
    26    15    19    2
    27    42    43   ar
    28    16    22    2
    29    17    12    1
    30    17    19   ar
    31    17    20   ar
    32    18    19   ar
    33    18    22   ar
    34    18    23    1
    35     9    10    1
    36     9    11    1
    37    10    12    1
    38    11     5    1
    39    33    34    1
    40    33    35    1
    41    34    36    1
    42    35    37    1
    43    37    43    1
    44    20    21   ar
    45    21    22   ar
@<TRIPOS>MOLECULE
*****
 43 45 0 0 0
SMALL
GASTEIGER

@<TRIPOS>ATOM
      1 P          21.5364   71.9733   -2.3545 P.3     1  UNL1        0.2189
      2 O          22.1205   73.3632   -2.9426 O.co2   1  UNL1       -0.4371
      3 O          22.2569   70.7391   -2.8123 O.2     1  UNL1       -0.5170
      4 O          19.9580   72.0360   -2.7048 O.3     1  UNL1       -0.3112
      5 C          19.4145   71.0442   -3.5564 C.3     1  UNL1        0.1811
      6 O          17.6213   71.7675   -4.9843 O.3     1  UNL1       -0.3308
      7 O          15.7900   70.3061   -3.1129 O.3     1  UNL1       -0.3794
      8 O          16.0228   68.5656   -5.1992 O.3     1  UNL1       -0.3779
      9 C          17.1107   69.9650   -3.5348 C.3     1  UNL1        0.1713
     10 C          17.0908   69.4585   -4.9615 C.3     1  UNL1        0.1895
     11 C          17.9098   71.2545   -3.6657 C.3     1  UNL1        0.1764
     12 C          16.9612   70.7490   -5.7525 C.3     1  UNL1        0.2383
     13 H          15.2604   69.4981   -3.0224 H       1  UNL1        0.2105
     14 H          16.1516   67.7601   -4.6733 H       1  UNL1        0.2106
     15 O          15.5487   70.7106   -8.1980 O.2     1  UNL1       -0.2464
     16 O          19.4401   70.4206  -10.6509 O.2     1  UNL1       -0.2670
     17 N          17.5802   70.6641   -7.0450 N.ar    1  UNL1       -0.2551
     18 N          17.4882   70.5652   -9.4173 N.ar    1  UNL1       -0.2743
     19 C          16.7797   70.6516   -8.2116 C.ar    1  UNL1        0.3323
     20 C          18.9643   70.5959   -7.1479 C.ar    1  UNL1        0.0869
     21 C          19.6253   70.5141   -8.3042 C.ar    1  UNL1        0.0795
     22 C          18.8634   70.4947   -9.5701 C.ar    1  UNL1        0.2626
     23 H          16.9522   70.5528  -10.2431 H       1  UNL1        0.1734
     24 O          21.5640   72.2153   -0.7565 O.3     1  UNL1       -0.2703
     25 P          22.7496   72.0240    0.3257 P.3     1  UNL1        0.2208
     26 O          23.8361   73.1403   -0.1148 O.co2   1  UNL1       -0.4371
     27 O          23.2944   70.6271    0.4019 O.2     1  UNL1       -0.5170
     28 O          22.1340   72.5789    1.7097 O.3     1  UNL1       -0.2858
     29 O          21.1120   74.7103    1.8588 O.3     1  UNL1       -0.3226
     30 O          22.0229   73.9363    5.8134 O.3     1  UNL1       -0.3794
     31 O          23.9375   73.2994    3.7008 O.3     1  UNL1       -0.3775
     32 O          19.2837   73.6896    4.8717 O.3     1  UNL1       -0.3792
     33 C          21.6584   73.6103    4.4722 C.3     1  UNL1        0.1718
     34 C          22.7579   74.0734    3.5161 C.3     1  UNL1        0.1968
     35 C          20.3416   74.3220    4.1538 C.3     1  UNL1        0.1723
     36 C          22.3046   73.9510    2.0607 C.3     1  UNL1        0.2706
     37 C          20.0227   74.2628    2.6627 C.3     1  UNL1        0.1830
     38 H          22.8572   73.4950    6.0382 H       1  UNL1        0.2105
     39 H          24.2306   73.3723    4.6223 H       1  UNL1        0.2106
     40 H          19.4744   73.7204    5.8223 H       1  UNL1        0.2106
     41 O          18.8632   76.2210    3.2306 O.co2   1  UNL1       -0.5466
     42 O          18.2009   75.1312    1.3404 O.co2   1  UNL1       -0.5466
     43 C          18.9323   75.2232    2.3149 C.2     1  UNL1        0.0799
@<TRIPOS>UNITY_ATOM_ATTR
2 1
charge -1
26 1
charge -1
41 1
charge -1
@<TRIPOS>BOND
     1     1     4    1
     2     1    24    1
     3     1     2    1
     4     1     3    2
     5    25    28    1
     6    25    24    1
     7    25    26    1
     8    25    27    2
     9     6    11    1
    10     6    12    1
    11    29    36    1
    12    29    37    1
    13     7     9    1
    14     7    13    1
    15     8    10    1
    16     8    14    1
    17     4     5    1
    18    28    36    1
    19    30    33    1
    20    30    38    1
    21    31    34    1
    22    31    39    1
    23    32    35    1
    24    32    40    1
    25    41    43   ar
    26    15    19    2
    27    42    43   ar
    28    16    22    2
    29    17    12    1
    30    17    19   ar
    31    17    20   ar
    32    18    19   ar
    33    18    22   ar
    34    18    23    1
    35     9    10    1
    36     9    11    1
    37    10    12    1
    38    11     5    1
    39    33    34    1
    40    33    35    1
    41    34    36    1
    42    35    37    1
    43    37    43    1
    44    20    21   ar
    45    21    22   ar
@<TRIPOS>MOLECULE
*****
 43 45 0 0 0
SMALL
GASTEIGER

@<TRIPOS>ATOM
      1 P          21.4483   71.8342   -2.2851 P.3     1  UNL1        0.2189
      2 O          22.1259   73.2703   -2.5971 O.co2   1  UNL1       -0.4371
      3 O          22.1828   70.6518   -2.8458 O.2     1  UNL1       -0.5170
      4 O          19.9183   72.0105   -2.7810 O.3     1  UNL1       -0.3112
      5 C          19.3705   71.0318   -3.6450 C.3     1  UNL1        0.1811
      6 O          17.6337   71.7824   -5.1275 O.3     1  UNL1       -0.3308
      7 O          15.7168   70.4038   -3.2792 O.3     1  UNL1       -0.3794
      8 O          15.9496   68.6239   -5.3320 O.3     1  UNL1       -0.3779
      9 C          17.0369   70.0187   -3.6633 C.3     1  UNL1        0.1713
     10 C          17.0368   69.4900   -5.0820 C.3     1  UNL1        0.1895
     11 C          17.8755   71.2828   -3.7944 C.3     1  UNL1        0.1764
     12 C          16.9633   70.7707   -5.8958 C.3     1  UNL1        0.2383
     13 H          15.1621   69.6126   -3.1892 H       1  UNL1        0.2105
     14 H          16.0427   67.8237   -4.7907 H       1  UNL1        0.2106
     15 O          15.6043   70.6431   -8.3683 O.2     1  UNL1       -0.2464
     16 O          19.5493   70.2978  -10.7266 O.2     1  UNL1       -0.2670
     17 N          17.6106   70.6474   -7.1712 N.ar    1  UNL1       -0.2551
     18 N          17.5704   70.4702   -9.5405 N.ar    1  UNL1       -0.2743
     19 C          16.8356   70.5915   -8.3537 C.ar    1  UNL1        0.3323
     20 C          18.9970   70.5848   -7.2422 C.ar    1  UNL1        0.0869
     21 C          19.6833   70.4693   -8.3808 C.ar    1  UNL1        0.0795
     22 C          18.9490   70.4035   -9.6614 C.ar    1  UNL1        0.2626
     23 H          17.0525   70.4274  -10.3767 H       1  UNL1        0.1734
     24 O          21.3112   71.8398   -0.6745 O.3     1  UNL1       -0.2703
     25 P          22.2855   71.2555    0.4757 P.3     1  UNL1        0.2208
     26 O          23.6974   71.0707   -0.2942 O.co2   1  UNL1       -0.4371
     27 O          21.7757   70.0094    1.1401 O.2     1  UNL1       -0.5170
     28 O          22.5272   72.4971    1.4770 O.3     1  UNL1       -0.2858
     29 O          21.3024   73.2041    3.3768 O.3     1  UNL1       -0.3226
     30 O          22.6501   76.8022    1.8587 O.3     1  UNL1       -0.3794
     31 O          21.6393   74.7257    0.0696 O.3     1  UNL1       -0.3775
     32 O          23.9026   75.6527    4.2168 O.3     1  UNL1       -0.3792
     33 C          22.7062   75.4039    2.1404 C.3     1  UNL1        0.1718
     34 C          21.5153   74.7021    1.4869 C.3     1  UNL1        0.1968
     35 C          22.6611   75.2253    3.6596 C.3     1  UNL1        0.1723
     36 C          21.4129   73.2493    1.9537 C.3     1  UNL1        0.2706
     37 C          22.4312   73.7661    4.0424 C.3     1  UNL1        0.1830
     38 H          22.6774   76.9402    0.8987 H       1  UNL1        0.2105
     39 H          21.7050   75.6445   -0.2335 H       1  UNL1        0.2106
     40 H          24.0610   76.5799    3.9803 H       1  UNL1        0.2106
     41 O          20.9170   74.3259    5.7441 O.co2   1  UNL1       -0.5466
     42 O          22.6990   73.0266    6.3233 O.co2   1  UNL1       -0.5466
     43 C          22.0628   73.6481    5.4855 C.2     1  UNL1        0.0799
@<TRIPOS>UNITY_ATOM_ATTR
2 1
charge -1
26 1
charge -1
41 1
charge -1
@<TRIPOS>BOND
     1     1     4    1
     2     1    24    1
     3     1     2    1
     4     1     3    2
     5    25    28    1
     6    25    24    1
     7    25    26    1
     8    25    27    2
     9     6    11    1
    10     6    12    1
    11    29    36    1
    12    29    37    1
    13     7     9    1
    14     7    13    1
    15     8    10    1
    16     8    14    1
    17     4     5    1
    18    28    36    1
    19    30    33    1
    20    30    38    1
    21    31    34    1
    22    31    39    1
    23    32    35    1
    24    32    40    1
    25    41    43   ar
    26    15    19    2
    27    42    43   ar
    28    16    22    2
    29    17    12    1
    30    17    19   ar
    31    17    20   ar
    32    18    19   ar
    33    18    22   ar
    34    18    23    1
    35     9    10    1
    36     9    11    1
    37    10    12    1
    38    11     5    1
    39    33    34    1
    40    33    35    1
    41    34    36    1
    42    35    37    1
    43    37    43    1
    44    20    21   ar
    45    21    22   ar
@<TRIPOS>MOLECULE
*****
 43 45 0 0 0
SMALL
GASTEIGER

@<TRIPOS>ATOM
      1 P          23.4981   72.8677   -3.6317 P.3     1  UNL1        0.2189
      2 O          24.0442   71.3691   -3.3578 O.co2   1  UNL1       -0.4371
      3 O          24.4988   73.8050   -4.2416 O.2     1  UNL1       -0.5170
      4 O          22.8857   73.3247   -2.2055 O.3     1  UNL1       -0.3112
      5 C          21.9173   74.3573   -2.1852 C.3     1  UNL1        0.1811
      6 O          21.1121   72.6965   -0.6454 O.3     1  UNL1       -0.3308
      7 O          19.0398   74.7109    0.1543 O.3     1  UNL1       -0.3794
      8 O          20.8688   74.9062    2.1674 O.3     1  UNL1       -0.3779
      9 C          20.4026   74.9159   -0.2190 C.3     1  UNL1        0.1713
     10 C          21.3240   74.4795    0.9004 C.3     1  UNL1        0.1895
     11 C          20.7434   73.9196   -1.3188 C.3     1  UNL1        0.1764
     12 C          21.3069   72.9677    0.7516 C.3     1  UNL1        0.2383
     13 H          18.7989   75.3363    0.8561 H       1  UNL1        0.2105
     14 H          20.8990   75.8753    2.2122 H       1  UNL1        0.2106
     15 O          21.6679   70.1927    1.1330 O.2     1  UNL1       -0.2464
     16 O          26.0670   70.7526    2.3895 O.2     1  UNL1       -0.2670
     17 N          22.5362   72.3612    1.1780 N.ar    1  UNL1       -0.2551
     18 N          23.8583   70.4743    1.7594 N.ar    1  UNL1       -0.2743
     19 C          22.6121   70.9575    1.3392 C.ar    1  UNL1        0.3323
     20 C          23.6497   73.1535    1.4299 C.ar    1  UNL1        0.0869
     21 C          24.8308   72.6784    1.8298 C.ar    1  UNL1        0.0795
     22 C          24.9941   71.2226    2.0231 C.ar    1  UNL1        0.2626
     23 H          23.9348   69.5003    1.8806 H       1  UNL1        0.1734
     24 O          22.1782   72.6145   -4.5297 O.3     1  UNL1       -0.2703
     25 P          21.7937   73.1180   -6.0170 P.3     1  UNL1        0.2208
     26 O          22.8855   72.3747   -6.9529 O.co2   1  UNL1       -0.4371
     27 O          21.7601   74.6109   -6.1723 O.2     1  UNL1       -0.5170
     28 O          20.3996   72.3785   -6.3519 O.3     1  UNL1       -0.2858
     29 O          19.8137   70.2200   -5.5731 O.3     1  UNL1       -0.3226
     30 O          17.4388   70.5741   -8.9350 O.3     1  UNL1       -0.3794
     31 O          20.2139   71.4859   -8.9795 O.3     1  UNL1       -0.3775
     32 O          16.2718   70.8576   -6.2876 O.3     1  UNL1       -0.3792
     33 C          18.1493   71.0373   -7.7868 C.3     1  UNL1        0.1718
     34 C          19.6350   70.7090   -7.9374 C.3     1  UNL1        0.1968
     35 C          17.5708   70.3338   -6.5570 C.3     1  UNL1        0.1723
     36 C          20.3900   70.9806   -6.6355 C.3     1  UNL1        0.2706
     37 C          18.4484   70.5497   -5.3274 C.3     1  UNL1        0.1830
     38 H          17.7893   71.0076   -9.7290 H       1  UNL1        0.2105
     39 H          19.7394   71.3187   -9.8086 H       1  UNL1        0.2106
     40 H          15.7033   70.7267   -7.0626 H       1  UNL1        0.2106
     41 O          17.1060   68.7488   -4.6519 O.co2   1  UNL1       -0.5466
     42 O          18.5525   69.6034   -3.1104 O.co2   1  UNL1       -0.5466
     43 C          18.0676   69.6078   -4.2320 C.2     1  UNL1        0.0799
@<TRIPOS>UNITY_ATOM_ATTR
2 1
charge -1
26 1
charge -1
41 1
charge -1
@<TRIPOS>BOND
     1     1     4    1
     2     1    24    1
     3     1     2    1
     4     1     3    2
     5    25    28    1
     6    25    24    1
     7    25    26    1
     8    25    27    2
     9     6    11    1
    10     6    12    1
    11    29    36    1
    12    29    37    1
    13     7     9    1
    14     7    13    1
    15     8    10    1
    16     8    14    1
    17     4     5    1
    18    28    36    1
    19    30    33    1
    20    30    38    1
    21    31    34    1
    22    31    39    1
    23    32    35    1
    24    32    40    1
    25    41    43   ar
    26    15    19    2
    27    42    43   ar
    28    16    22    2
    29    17    12    1
    30    17    19   ar
    31    17    20   ar
    32    18    19   ar
    33    18    22   ar
    34    18    23    1
    35     9    10    1
    36     9    11    1
    37    10    12    1
    38    11     5    1
    39    33    34    1
    40    33    35    1
    41    34    36    1
    42    35    37    1
    43    37    43    1
    44    20    21   ar
    45    21    22   ar
@<TRIPOS>MOLECULE
*****
 43 45 0 0 0
SMALL
GASTEIGER

@<TRIPOS>ATOM
      1 P          21.1639   72.8179   -1.2901 P.3     1  UNL1        0.2189
      2 O          19.8572   72.6862   -0.3446 O.co2   1  UNL1       -0.4371
      3 O          21.3430   74.1585   -1.9401 O.2     1  UNL1       -0.5170
      4 O          21.0422   71.5587   -2.2988 O.3     1  UNL1       -0.3112
      5 C          20.4087   71.7533   -3.5499 C.3     1  UNL1        0.1811
      6 O          20.7783   70.6249   -5.6398 O.3     1  UNL1       -0.3308
      7 O          23.1061   72.4775   -6.0151 O.3     1  UNL1       -0.3794
      8 O          21.1860   73.6070   -7.5879 O.3     1  UNL1       -0.3779
      9 C          21.8362   72.7322   -5.4143 C.3     1  UNL1        0.1713
     10 C          20.7650   72.8406   -6.4788 C.3     1  UNL1        0.1895
     11 C          21.4122   71.4781   -4.6623 C.3     1  UNL1        0.1764
     12 C          20.5237   71.3831   -6.8329 C.3     1  UNL1        0.2383
     13 H          23.3978   73.2649   -6.5015 H       1  UNL1        0.2105
     14 H          21.3259   74.5266   -7.3110 H       1  UNL1        0.2106
     15 O          19.7642   70.9089   -9.5115 O.2     1  UNL1       -0.2464
     16 O          15.3227   70.4603   -8.3643 O.2     1  UNL1       -0.2670
     17 N          19.1757   71.1394   -7.2623 N.ar    1  UNL1       -0.2551
     18 N          17.5527   70.6869   -8.9377 N.ar    1  UNL1       -0.2743
     19 C          18.9011   70.9127   -8.6317 C.ar    1  UNL1        0.3323
     20 C          18.1435   71.1249   -6.3321 C.ar    1  UNL1        0.0869
     21 C          16.8630   70.9082   -6.6390 C.ar    1  UNL1        0.0795
     22 C          16.4909   70.6636   -8.0479 C.ar    1  UNL1        0.2626
     23 H          17.3366   70.5286   -9.8852 H       1  UNL1        0.1734
     24 O          22.3694   72.3802   -0.3062 O.3     1  UNL1       -0.2703
     25 P          22.4406   71.2501    0.8477 P.3     1  UNL1        0.2208
     26 O          23.9329   70.6453    0.6815 O.co2   1  UNL1       -0.4371
     27 O          21.3461   70.2251    0.7741 O.2     1  UNL1       -0.5170
     28 O          22.4891   72.0796    2.2305 O.3     1  UNL1       -0.2858
     29 O          21.1728   74.0462    2.3246 O.3     1  UNL1       -0.3226
     30 O          23.5352   74.4539    5.6893 O.3     1  UNL1       -0.3794
     31 O          24.6850   73.4985    3.1794 O.3     1  UNL1       -0.3775
     32 O          20.7501   73.6622    5.9490 O.3     1  UNL1       -0.3792
     33 C          22.8023   73.7458    4.6895 C.3     1  UNL1        0.1718
     34 C          23.3838   74.0591    3.3107 C.3     1  UNL1        0.1968
     35 C          21.3417   74.1960    4.7660 C.3     1  UNL1        0.1723
     36 C          22.4889   73.5057    2.2009 C.3     1  UNL1        0.2706
     37 C          20.5447   73.7088    3.5594 C.3     1  UNL1        0.1830
     38 H          24.4666   74.1841    5.6596 H       1  UNL1        0.2105
     39 H          25.2582   73.8451    3.8807 H       1  UNL1        0.2106
     40 H          21.2481   73.9646    6.7244 H       1  UNL1        0.2106
     41 O          18.4138   74.0336    4.4844 O.co2   1  UNL1       -0.5466
     42 O          18.9271   75.2267    2.6103 O.co2   1  UNL1       -0.5466
     43 C          19.2308   74.4147    3.4714 C.2     1  UNL1        0.0799
@<TRIPOS>UNITY_ATOM_ATTR
2 1
charge -1
26 1
charge -1
41 1
charge -1
@<TRIPOS>BOND
     1     1     4    1
     2     1    24    1
     3     1     2    1
     4     1     3    2
     5    25    28    1
     6    25    24    1
     7    25    26    1
     8    25    27    2
     9     6    11    1
    10     6    12    1
    11    29    36    1
    12    29    37    1
    13     7     9    1
    14     7    13    1
    15     8    10    1
    16     8    14    1
    17     4     5    1
    18    28    36    1
    19    30    33    1
    20    30    38    1
    21    31    34    1
    22    31    39    1
    23    32    35    1
    24    32    40    1
    25    41    43   ar
    26    15    19    2
    27    42    43   ar
    28    16    22    2
    29    17    12    1
    30    17    19   ar
    31    17    20   ar
    32    18    19   ar
    33    18    22   ar
    34    18    23    1
    35     9    10    1
    36     9    11    1
    37    10    12    1
    38    11     5    1
    39    33    34    1
    40    33    35    1
    41    34    36    1
    42    35    37    1
    43    37    43    1
    44    20    21   ar
    45    21    22   ar
@<TRIPOS>MOLECULE
*****
 43 45 0 0 0
SMALL
GASTEIGER

@<TRIPOS>ATOM
      1 P          21.6213   72.3077   -5.4541 P.3     1  UNL1        0.2189
      2 O          20.7691   73.6571   -5.1863 O.co2   1  UNL1       -0.4371
      3 O          22.9590   72.5208   -6.0998 O.2     1  UNL1       -0.5170
      4 O          20.5946   71.3539   -6.2629 O.3     1  UNL1       -0.3112
      5 C          20.1302   71.7816   -7.5302 C.3     1  UNL1        0.1811
      6 O          18.7803   69.8229   -7.1851 O.3     1  UNL1       -0.3308
      7 O          18.0508   70.0421  -10.0853 O.3     1  UNL1       -0.3794
      8 O          15.8679   71.1008   -8.8402 O.3     1  UNL1       -0.3779
      9 C          18.2819   71.0785   -9.1308 C.3     1  UNL1        0.1713
     10 C          17.1116   71.1820   -8.1759 C.3     1  UNL1        0.1895
     11 C          19.4062   70.6260   -8.2091 C.3     1  UNL1        0.1764
     12 C          17.3568   70.0047   -7.2477 C.3     1  UNL1        0.2383
     13 H          17.3363   70.3083  -10.6855 H       1  UNL1        0.2105
     14 H          15.7592   71.8727   -9.4183 H       1  UNL1        0.2106
     15 O          16.3625   67.9874   -5.5393 O.2     1  UNL1       -0.2464
     16 O          15.4657   71.0169   -2.1834 O.2     1  UNL1       -0.2670
     17 N          16.8572   70.2384   -5.9223 N.ar    1  UNL1       -0.2551
     18 N          15.9159   69.4984   -3.8699 N.ar    1  UNL1       -0.2743
     19 C          16.3803   69.1555   -5.1465 C.ar    1  UNL1        0.3323
     20 C          16.8445   71.5273   -5.4032 C.ar    1  UNL1        0.0869
     21 C          16.3988   71.8386   -4.1845 C.ar    1  UNL1        0.0795
     22 C          15.8826   70.7652   -3.3100 C.ar    1  UNL1        0.2626
     23 H          15.5769   68.7614   -3.3119 H       1  UNL1        0.1734
     24 O          21.6810   71.6201   -3.9924 O.3     1  UNL1       -0.2703
     25 P          22.7784   71.7326   -2.8105 P.3     1  UNL1        0.2208
     26 O          24.1839   71.5480   -3.5921 O.co2   1  UNL1       -0.4371
     27 O          22.5676   70.7669   -1.6805 O.2     1  UNL1       -0.5170
     28 O          22.7548   73.2862   -2.3766 O.3     1  UNL1       -0.2858
     29 O          20.7651   74.0294   -1.3287 O.3     1  UNL1       -0.3226
     30 O          21.3707   70.3795    0.5095 O.3     1  UNL1       -0.3794
     31 O          23.6157   72.1857    0.0283 O.3     1  UNL1       -0.3775
     32 O          19.3256   70.6610   -1.5372 O.3     1  UNL1       -0.3792
     33 C          21.4242   71.3257   -0.5580 C.3     1  UNL1        0.1718
     34 C          22.2462   72.5399   -0.1249 C.3     1  UNL1        0.1968
     35 C          19.9905   71.7448   -0.8909 C.3     1  UNL1        0.1723
     36 C          22.1355   73.6694   -1.1501 C.3     1  UNL1        0.2706
     37 C          19.9653   72.9557   -1.8191 C.3     1  UNL1        0.1830
     38 H          22.2707   70.0987    0.7385 H       1  UNL1        0.2105
     39 H          23.6933   71.4693    0.6772 H       1  UNL1        0.2106
     40 H          19.3347   69.8838   -0.9570 H       1  UNL1        0.2106
     41 O          17.7976   73.0071   -0.9247 O.co2   1  UNL1       -0.5466
     42 O          18.2408   74.4189   -2.6595 O.co2   1  UNL1       -0.5466
     43 C          18.5974   73.5540   -1.8735 C.2     1  UNL1        0.0799
@<TRIPOS>UNITY_ATOM_ATTR
2 1
charge -1
26 1
charge -1
41 1
charge -1
@<TRIPOS>BOND
     1     1     4    1
     2     1    24    1
     3     1     2    1
     4     1     3    2
     5    25    28    1
     6    25    24    1
     7    25    26    1
     8    25    27    2
     9     6    11    1
    10     6    12    1
    11    29    36    1
    12    29    37    1
    13     7     9    1
    14     7    13    1
    15     8    10    1
    16     8    14    1
    17     4     5    1
    18    28    36    1
    19    30    33    1
    20    30    38    1
    21    31    34    1
    22    31    39    1
    23    32    35    1
    24    32    40    1
    25    41    43   ar
    26    15    19    2
    27    42    43   ar
    28    16    22    2
    29    17    12    1
    30    17    19   ar
    31    17    20   ar
    32    18    19   ar
    33    18    22   ar
    34    18    23    1
    35     9    10    1
    36     9    11    1
    37    10    12    1
    38    11     5    1
    39    33    34    1
    40    33    35    1
    41    34    36    1
    42    35    37    1
    43    37    43    1
    44    20    21   ar
    45    21    22   ar
@<TRIPOS>MOLECULE
*****
 43 45 0 0 0
SMALL
GASTEIGER

@<TRIPOS>ATOM
      1 P          22.9178   72.9018   -3.6794 P.3     1  UNL1        0.2189
      2 O          22.5231   71.6776   -2.6974 O.co2   1  UNL1       -0.4371
      3 O          24.2007   72.7188   -4.4360 O.2     1  UNL1       -0.5170
      4 O          22.8457   74.2053   -2.7235 O.3     1  UNL1       -0.3112
      5 C          21.6313   74.4843   -2.0511 C.3     1  UNL1        0.1811
      6 O          22.0398   74.8618    0.2873 O.3     1  UNL1       -0.3308
      7 O          23.0595   77.5644   -0.5177 O.3     1  UNL1       -0.3794
      8 O          25.3591   76.1499   -0.1339 O.3     1  UNL1       -0.3779
      9 C          23.1787   76.3144   -1.1973 C.3     1  UNL1        0.1713
     10 C          24.1981   75.4358   -0.5037 C.3     1  UNL1        0.1895
     11 C          21.8877   75.5368   -0.9802 C.3     1  UNL1        0.1764
     12 C          23.4151   74.9309    0.6962 C.3     1  UNL1        0.2383
     13 H          23.8727   78.0791   -0.6419 H       1  UNL1        0.2105
     14 H          25.8223   76.4497   -0.9323 H       1  UNL1        0.2106
     15 O          25.5114   74.4574    2.5287 O.2     1  UNL1       -0.2464
     16 O          24.9675   69.8889    2.2505 O.2     1  UNL1       -0.2670
     17 N          23.8421   73.6276    1.1203 N.ar    1  UNL1       -0.2551
     18 N          25.2391   72.1824    2.3876 N.ar    1  UNL1       -0.2743
     19 C          24.9055   73.4993    2.0449 C.ar    1  UNL1        0.3323
     20 C          23.2093   72.4946    0.6233 C.ar    1  UNL1        0.0869
     21 C          23.5385   71.2458    0.9595 C.ar    1  UNL1        0.0795
     22 C          24.6397   71.0243    1.9195 C.ar    1  UNL1        0.2626
     23 H          25.9779   72.0678    3.0283 H       1  UNL1        0.1734
     24 O          21.6047   73.0595   -4.6087 O.3     1  UNL1       -0.2703
     25 P          21.4452   73.1449   -6.2152 P.3     1  UNL1        0.2208
     26 O          22.5758   72.1193   -6.7541 O.co2   1  UNL1       -0.4371
     27 O          21.5554   74.5348   -6.7719 O.2     1  UNL1       -0.5170
     28 O          20.0447   72.4077   -6.5273 O.3     1  UNL1       -0.2858
     29 O          19.3315   70.3068   -5.6986 O.3     1  UNL1       -0.3226
     30 O          17.2673   70.5468   -9.2693 O.3     1  UNL1       -0.3794
     31 O          20.0611   71.3868   -9.1145 O.3     1  UNL1       -0.3775
     32 O          15.8846   70.9938   -6.7515 O.3     1  UNL1       -0.3792
     33 C          17.8891   71.0505   -8.0871 C.3     1  UNL1        0.1718
     34 C          19.3721   70.6786   -8.0905 C.3     1  UNL1        0.1968
     35 C          17.1864   70.4252   -6.8800 C.3     1  UNL1        0.1723
     36 C          20.0193   70.9978   -6.7422 C.3     1  UNL1        0.2706
     37 C          17.9602   70.6820   -5.5901 C.3     1  UNL1        0.1830
     38 H          17.6975   70.9305  -10.0497 H       1  UNL1        0.2105
     39 H          19.6554   71.1892   -9.9728 H       1  UNL1        0.2106
     40 H          15.3816   70.8374   -7.5661 H       1  UNL1        0.2106
     41 O          16.1978   70.1575   -4.1340 O.co2   1  UNL1       -0.5466
     42 O          18.0911   68.8971   -3.9720 O.co2   1  UNL1       -0.5466
     43 C          17.4592   69.8069   -4.4877 C.2     1  UNL1        0.0799
@<TRIPOS>UNITY_ATOM_ATTR
2 1
charge -1
26 1
charge -1
41 1
charge -1
@<TRIPOS>BOND
     1     1     4    1
     2     1    24    1
     3     1     2    1
     4     1     3    2
     5    25    28    1
     6    25    24    1
     7    25    26    1
     8    25    27    2
     9     6    11    1
    10     6    12    1
    11    29    36    1
    12    29    37    1
    13     7     9    1
    14     7    13    1
    15     8    10    1
    16     8    14    1
    17     4     5    1
    18    28    36    1
    19    30    33    1
    20    30    38    1
    21    31    34    1
    22    31    39    1
    23    32    35    1
    24    32    40    1
    25    41    43   ar
    26    15    19    2
    27    42    43   ar
    28    16    22    2
    29    17    12    1
    30    17    19   ar
    31    17    20   ar
    32    18    19   ar
    33    18    22   ar
    34    18    23    1
    35     9    10    1
    36     9    11    1
    37    10    12    1
    38    11     5    1
    39    33    34    1
    40    33    35    1
    41    34    36    1
    42    35    37    1
    43    37    43    1
    44    20    21   ar
    45    21    22   ar
@<TRIPOS>MOLECULE
*****
 43 45 0 0 0
SMALL
GASTEIGER

@<TRIPOS>ATOM
      1 P          21.8558   72.0381   -4.1681 P.3     1  UNL1        0.2189
      2 O          22.3783   71.8724   -5.6907 O.co2   1  UNL1       -0.4371
      3 O          22.4680   71.0878   -3.1812 O.2     1  UNL1       -0.5170
      4 O          20.2446   71.9719   -4.3008 O.3     1  UNL1       -0.3112
      5 C          19.5556   70.9182   -3.6532 C.3     1  UNL1        0.1811
      6 O          17.7618   71.7291   -5.0325 O.3     1  UNL1       -0.3308
      7 O          15.9161   70.3065   -3.1455 O.3     1  UNL1       -0.3794
      8 O          16.0420   68.5917   -5.2620 O.3     1  UNL1       -0.3779
      9 C          17.2144   69.9240   -3.5998 C.3     1  UNL1        0.1713
     10 C          17.1469   69.4410   -5.0332 C.3     1  UNL1        0.1895
     11 C          18.0578   71.1851   -3.7279 C.3     1  UNL1        0.1764
     12 C          17.0490   70.7477   -5.8019 C.3     1  UNL1        0.2383
     13 H          15.3589   69.5171   -3.0560 H       1  UNL1        0.2105
     14 H          16.1516   67.7738   -4.7509 H       1  UNL1        0.2106
     15 O          15.5788   70.6503   -8.2114 O.2     1  UNL1       -0.2464
     16 O          19.4148   70.4135  -10.7556 O.2     1  UNL1       -0.2670
     17 N          17.6382   70.6605   -7.1081 N.ar    1  UNL1       -0.2551
     18 N          17.4907   70.5314   -9.4762 N.ar    1  UNL1       -0.2743
     19 C          16.8101   70.6171   -8.2546 C.ar    1  UNL1        0.3323
     20 C          19.0206   70.6205   -7.2442 C.ar    1  UNL1        0.0869
     21 C          19.6549   70.5389   -8.4154 C.ar    1  UNL1        0.0795
     22 C          18.8630   70.4882   -9.6619 C.ar    1  UNL1        0.2626
     23 H          16.9353   70.4978  -10.2884 H       1  UNL1        0.1734
     24 O          22.1310   73.6005   -3.8580 O.3     1  UNL1       -0.2703
     25 P          23.4219   74.5291   -4.1494 P.3     1  UNL1        0.2208
     26 O          24.6641   73.5141   -3.9328 O.co2   1  UNL1       -0.4371
     27 O          23.4869   75.7736   -3.3121 O.2     1  UNL1       -0.5170
     28 O          23.3850   74.7938   -5.7403 O.3     1  UNL1       -0.2858
     29 O          24.1659   76.9968   -6.1222 O.3     1  UNL1       -0.3226
     30 O          23.3689   75.7093   -9.9661 O.3     1  UNL1       -0.3794
     31 O          21.5244   75.0939   -7.7858 O.3     1  UNL1       -0.3775
     32 O          26.1131   75.8688   -9.0202 O.3     1  UNL1       -0.3792
     33 C          23.7595   75.5706   -8.6000 C.3     1  UNL1        0.1718
     34 C          22.6101   76.0088   -7.6920 C.3     1  UNL1        0.1968
     35 C          24.9877   76.4534   -8.3674 C.3     1  UNL1        0.1723
     36 C          23.0658   76.0932   -6.2346 C.3     1  UNL1        0.2706
     37 C          25.3026   76.5893   -6.8805 C.3     1  UNL1        0.1830
     38 H          22.5898   75.1571  -10.1374 H       1  UNL1        0.2105
     39 H          21.2303   75.0352   -8.7080 H       1  UNL1        0.2106
     40 H          25.9256   75.7767   -9.9674 H       1  UNL1        0.2106
     41 O          26.9687   77.9758   -7.7768 O.co2   1  UNL1       -0.5466
     42 O          26.4364   78.2759   -5.5800 O.co2   1  UNL1       -0.5466
     43 C          26.2781   77.6959   -6.6438 C.2     1  UNL1        0.0799
@<TRIPOS>UNITY_ATOM_ATTR
2 1
charge -1
26 1
charge -1
41 1
charge -1
@<TRIPOS>BOND
     1     1     4    1
     2     1    24    1
     3     1     2    1
     4     1     3    2
     5    25    28    1
     6    25    24    1
     7    25    26    1
     8    25    27    2
     9     6    11    1
    10     6    12    1
    11    29    36    1
    12    29    37    1
    13     7     9    1
    14     7    13    1
    15     8    10    1
    16     8    14    1
    17     4     5    1
    18    28    36    1
    19    30    33    1
    20    30    38    1
    21    31    34    1
    22    31    39    1
    23    32    35    1
    24    32    40    1
    25    41    43   ar
    26    15    19    2
    27    42    43   ar
    28    16    22    2
    29    17    12    1
    30    17    19   ar
    31    17    20   ar
    32    18    19   ar
    33    18    22   ar
    34    18    23    1
    35     9    10    1
    36     9    11    1
    37    10    12    1
    38    11     5    1
    39    33    34    1
    40    33    35    1
    41    34    36    1
    42    35    37    1
    43    37    43    1
    44    20    21   ar
    45    21    22   ar
@<TRIPOS>MOLECULE
*****
 43 45 0 0 0
SMALL
GASTEIGER

@<TRIPOS>ATOM
      1 P          23.4385   72.3154   -3.4740 P.3     1  UNL1        0.2189
      2 O          24.0619   70.8465   -3.2047 O.co2   1  UNL1       -0.4371
      3 O          24.4208   73.3416   -3.9576 O.2     1  UNL1       -0.5170
      4 O          22.6727   72.6714   -2.0939 O.3     1  UNL1       -0.3112
      5 C          23.4336   72.7681   -0.9039 C.3     1  UNL1        0.1811
      6 O          24.4606   71.2687    0.6693 O.3     1  UNL1       -0.3308
      7 O          21.6965   70.2395    1.2095 O.3     1  UNL1       -0.3794
      8 O          22.1396   71.8976    3.3286 O.3     1  UNL1       -0.3779
      9 C          22.1245   71.5703    0.9193 C.3     1  UNL1        0.1713
     10 C          22.8207   72.1710    2.1220 C.3     1  UNL1        0.1895
     11 C          23.2560   71.4888   -0.0962 C.3     1  UNL1        0.1764
     12 C          24.1867   71.5093    2.0587 C.3     1  UNL1        0.2383
     13 H          20.9736   70.2658    1.8564 H       1  UNL1        0.2105
     14 H          21.2762   72.3410    3.3201 H       1  UNL1        0.2106
     15 O          26.8669   70.6905    2.4089 O.2     1  UNL1       -0.2464
     16 O          28.0803   74.7809    4.1526 O.2     1  UNL1       -0.2670
     17 N          25.2238   72.3401    2.6020 N.ar    1  UNL1       -0.2551
     18 N          27.4685   72.7282    3.2780 N.ar    1  UNL1       -0.2743
     19 C          26.5376   71.8322    2.7360 C.ar    1  UNL1        0.3323
     20 C          24.9358   73.6419    2.9936 C.ar    1  UNL1        0.0869
     21 C          25.8338   74.4842    3.5084 C.ar    1  UNL1        0.0795
     22 C          27.2295   74.0315    3.6826 C.ar    1  UNL1        0.2626
     23 H          28.3895   72.3965    3.3829 H       1  UNL1        0.1734
     24 O          22.2235   72.0122   -4.4960 O.3     1  UNL1       -0.2703
     25 P          21.5626   72.9207   -5.6586 P.3     1  UNL1        0.2208
     26 O          22.4856   72.5990   -6.9489 O.co2   1  UNL1       -0.4371
     27 O          21.4625   74.3794   -5.3181 O.2     1  UNL1       -0.5170
     28 O          20.1507   72.2099   -5.9806 O.3     1  UNL1       -0.2858
     29 O          19.4197   70.0402   -5.3744 O.3     1  UNL1       -0.3226
     30 O          17.3804   70.6560   -8.9142 O.3     1  UNL1       -0.3794
     31 O          20.1779   71.4576   -8.6581 O.3     1  UNL1       -0.3775
     32 O          15.9838   70.8534   -6.3722 O.3     1  UNL1       -0.3792
     33 C          17.9973   71.0327   -7.6831 C.3     1  UNL1        0.1718
     34 C          19.4781   70.6534   -7.7157 C.3     1  UNL1        0.1968
     35 C          17.2830   70.2923   -6.5502 C.3     1  UNL1        0.1723
     36 C          20.1183   70.8293   -6.3381 C.3     1  UNL1        0.2706
     37 C          18.0499   70.4115   -5.2363 C.3     1  UNL1        0.1830
     38 H          17.8179   71.1143   -9.6489 H       1  UNL1        0.2105
     39 H          19.7768   71.3510   -9.5345 H       1  UNL1        0.2106
     40 H          15.4853   70.7841   -7.2014 H       1  UNL1        0.2106
     41 O          18.4117   69.2963   -3.2049 O.co2   1  UNL1       -0.5466
     42 O          16.4746   68.8333   -4.3149 O.co2   1  UNL1       -0.5466
     43 C          17.5365   69.4320   -4.2317 C.2     1  UNL1        0.0799
@<TRIPOS>UNITY_ATOM_ATTR
2 1
charge -1
26 1
charge -1
41 1
charge -1
@<TRIPOS>BOND
     1     1     4    1
     2     1    24    1
     3     1     2    1
     4     1     3    2
     5    25    28    1
     6    25    24    1
     7    25    26    1
     8    25    27    2
     9     6    11    1
    10     6    12    1
    11    29    36    1
    12    29    37    1
    13     7     9    1
    14     7    13    1
    15     8    10    1
    16     8    14    1
    17     4     5    1
    18    28    36    1
    19    30    33    1
    20    30    38    1
    21    31    34    1
    22    31    39    1
    23    32    35    1
    24    32    40    1
    25    41    43   ar
    26    15    19    2
    27    42    43   ar
    28    16    22    2
    29    17    12    1
    30    17    19   ar
    31    17    20   ar
    32    18    19   ar
    33    18    22   ar
    34    18    23    1
    35     9    10    1
    36     9    11    1
    37    10    12    1
    38    11     5    1
    39    33    34    1
    40    33    35    1
    41    34    36    1
    42    35    37    1
    43    37    43    1
    44    20    21   ar
    45    21    22   ar
@<TRIPOS>MOLECULE
*****
 43 45 0 0 0
SMALL
GASTEIGER

@<TRIPOS>ATOM
      1 P          21.8423   72.4743   -5.6508 P.3     1  UNL1        0.2189
      2 O          21.2036   73.9263   -5.3305 O.co2   1  UNL1       -0.4371
      3 O          23.0901   72.5008   -6.4839 O.2     1  UNL1       -0.5170
      4 O          20.6048   71.6325   -6.2655 O.3     1  UNL1       -0.3112
      5 C          20.1101   71.9925   -7.5422 C.3     1  UNL1        0.1811
      6 O          18.8939   69.9597   -7.1346 O.3     1  UNL1       -0.3308
      7 O          18.1373   70.0500  -10.0348 O.3     1  UNL1       -0.3794
      8 O          15.8956   70.9970   -8.8043 O.3     1  UNL1       -0.3779
      9 C          18.3043   71.1254   -9.1105 C.3     1  UNL1        0.1713
     10 C          17.1344   71.1782   -8.1509 C.3     1  UNL1        0.1895
     11 C          19.4604   70.7735   -8.1844 C.3     1  UNL1        0.1764
     12 C          17.4612   70.0457   -7.1926 C.3     1  UNL1        0.2383
     13 H          17.4038   70.2520  -10.6372 H       1  UNL1        0.2105
     14 H          15.7333   71.7438   -9.4027 H       1  UNL1        0.2106
     15 O          16.3302   68.0559   -5.5379 O.2     1  UNL1       -0.2464
     16 O          15.5469   71.0692   -2.1393 O.2     1  UNL1       -0.2670
     17 N          16.9538   70.2827   -5.8707 N.ar    1  UNL1       -0.2551
     18 N          15.9402   69.5588   -3.8472 N.ar    1  UNL1       -0.2743
     19 C          16.4057   69.2139   -5.1229 C.ar    1  UNL1        0.3323
     20 C          17.0035   71.5608   -5.3276 C.ar    1  UNL1        0.0869
     21 C          16.5560   71.8741   -4.1101 C.ar    1  UNL1        0.0795
     22 C          15.9675   70.8153   -3.2640 C.ar    1  UNL1        0.2626
     23 H          15.5523   68.8317   -3.3085 H       1  UNL1        0.1734
     24 O          22.0276   71.8272   -4.1811 O.3     1  UNL1       -0.2703
     25 P          23.2183   71.9769   -3.0979 P.3     1  UNL1        0.2208
     26 O          23.8549   73.4241   -3.4456 O.co2   1  UNL1       -0.4371
     27 O          24.2072   70.8474   -3.1097 O.2     1  UNL1       -0.5170
     28 O          22.4643   72.1919   -1.6880 O.3     1  UNL1       -0.2858
     29 O          23.1926   70.6011   -0.0918 O.3     1  UNL1       -0.3226
     30 O          20.2115   72.5696    1.9831 O.3     1  UNL1       -0.3794
     31 O          19.8404   71.8615   -0.8268 O.3     1  UNL1       -0.3775
     32 O          23.0050   73.1075    2.5811 O.3     1  UNL1       -0.3792
     33 C          21.2764   72.4402    1.0412 C.3     1  UNL1        0.1718
     34 C          20.9062   71.3926   -0.0090 C.3     1  UNL1        0.1968
     35 C          22.5319   72.0098    1.8030 C.3     1  UNL1        0.1723
     36 C          22.1062   71.0603   -0.8969 C.3     1  UNL1        0.2706
     37 C          23.6404   71.5744    0.8490 C.3     1  UNL1        0.1830
     38 H          19.4028   72.8425    1.5217 H       1  UNL1        0.2105
     39 H          19.0757   72.0746   -0.2698 H       1  UNL1        0.2106
     40 H          22.3088   73.3944    3.1924 H       1  UNL1        0.2106
     41 O          24.3383   70.5870    2.8589 O.co2   1  UNL1       -0.5466
     42 O          25.8065   70.5453    1.1148 O.co2   1  UNL1       -0.5466
     43 C          24.7227   70.8552    1.5864 C.2     1  UNL1        0.0799
@<TRIPOS>UNITY_ATOM_ATTR
2 1
charge -1
26 1
charge -1
41 1
charge -1
@<TRIPOS>BOND
     1     1     4    1
     2     1    24    1
     3     1     2    1
     4     1     3    2
     5    25    28    1
     6    25    24    1
     7    25    26    1
     8    25    27    2
     9     6    11    1
    10     6    12    1
    11    29    36    1
    12    29    37    1
    13     7     9    1
    14     7    13    1
    15     8    10    1
    16     8    14    1
    17     4     5    1
    18    28    36    1
    19    30    33    1
    20    30    38    1
    21    31    34    1
    22    31    39    1
    23    32    35    1
    24    32    40    1
    25    41    43   ar
    26    15    19    2
    27    42    43   ar
    28    16    22    2
    29    17    12    1
    30    17    19   ar
    31    17    20   ar
    32    18    19   ar
    33    18    22   ar
    34    18    23    1
    35     9    10    1
    36     9    11    1
    37    10    12    1
    38    11     5    1
    39    33    34    1
    40    33    35    1
    41    34    36    1
    42    35    37    1
    43    37    43    1
    44    20    21   ar
    45    21    22   ar
@<TRIPOS>MOLECULE
*****
 43 45 0 0 0
SMALL
GASTEIGER

@<TRIPOS>ATOM
      1 P          22.5552   72.2363   -3.8207 P.3     1  UNL1        0.2189
      2 O          22.0470   70.7151   -3.6043 O.co2   1  UNL1       -0.4371
      3 O          24.0118   72.3763   -4.1531 O.2     1  UNL1       -0.5170
      4 O          22.0625   73.0043   -2.4846 O.3     1  UNL1       -0.3112
      5 C          22.8808   72.9463   -1.3307 C.3     1  UNL1        0.1811
      6 O          23.9104   71.2574    0.0350 O.3     1  UNL1       -0.3308
      7 O          21.1323   70.2714    0.5839 O.3     1  UNL1       -0.3794
      8 O          21.7202   71.6838    2.8413 O.3     1  UNL1       -0.3779
      9 C          21.5990   71.6100    0.4139 C.3     1  UNL1        0.1713
     10 C          22.3638   72.0583    1.6412 C.3     1  UNL1        0.1895
     11 C          22.6863   71.5966   -0.6518 C.3     1  UNL1        0.1764
     12 C          23.7002   71.3610    1.4522 C.3     1  UNL1        0.2383
     13 H          20.4367   70.2546    1.2603 H       1  UNL1        0.2105
     14 H          20.8747   72.1546    2.9152 H       1  UNL1        0.2106
     15 O          23.7054   74.1572    1.8495 O.2     1  UNL1       -0.2464
     16 O          27.9301   74.0715    3.6902 O.2     1  UNL1       -0.2670
     17 N          24.7884   72.0952    2.0332 N.ar    1  UNL1       -0.2551
     18 N          25.8099   74.1120    2.7650 N.ar    1  UNL1       -0.2743
     19 C          24.6903   73.4982    2.1882 C.ar    1  UNL1        0.3323
     20 C          25.9353   71.4266    2.4438 C.ar    1  UNL1        0.0869
     21 C          26.9944   72.0253    2.9921 C.ar    1  UNL1        0.0795
     22 C          26.9731   73.4896    3.1885 C.ar    1  UNL1        0.2626
     23 H          25.7658   75.0887    2.8812 H       1  UNL1        0.1734
     24 O          21.5489   72.7973   -4.9544 O.3     1  UNL1       -0.2703
     25 P          19.9667   73.1250   -4.9011 P.3     1  UNL1        0.2208
     26 O          19.9059   74.7094   -5.2270 O.co2   1  UNL1       -0.4371
     27 O          19.2994   72.7321   -3.6148 O.2     1  UNL1       -0.5170
     28 O          19.3572   72.4153   -6.2154 O.3     1  UNL1       -0.2858
     29 O          18.7625   70.2195   -5.5568 O.3     1  UNL1       -0.3226
     30 O          17.5097   70.2849   -9.4931 O.3     1  UNL1       -0.3794
     31 O          20.0686   71.4723   -8.7335 O.3     1  UNL1       -0.3775
     32 O          15.5669   70.4853   -7.3400 O.3     1  UNL1       -0.3792
     33 C          17.7885   70.8335   -8.2050 C.3     1  UNL1        0.1718
     34 C          19.2724   70.6553   -7.8830 C.3     1  UNL1        0.1968
     35 C          16.9285   70.0921   -7.1790 C.3     1  UNL1        0.1723
     36 C          19.5639   71.0198   -6.4267 C.3     1  UNL1        0.2706
     37 C          17.3633   70.4127   -5.7519 C.3     1  UNL1        0.1830
     38 H          18.0451   70.7407  -10.1616 H       1  UNL1        0.2105
     39 H          19.8885   71.2465   -9.6592 H       1  UNL1        0.2106
     40 H          15.2777   70.2868   -8.2443 H       1  UNL1        0.2106
     41 O          16.5916   68.2335   -5.3554 O.co2   1  UNL1       -0.5466
     42 O          16.4436   69.7190   -3.6319 O.co2   1  UNL1       -0.5466
     43 C          16.7538   69.4522   -4.7832 C.2     1  UNL1        0.0799
@<TRIPOS>UNITY_ATOM_ATTR
2 1
charge -1
26 1
charge -1
41 1
charge -1
@<TRIPOS>BOND
     1     1     4    1
     2     1    24    1
     3     1     2    1
     4     1     3    2
     5    25    28    1
     6    25    24    1
     7    25    26    1
     8    25    27    2
     9     6    11    1
    10     6    12    1
    11    29    36    1
    12    29    37    1
    13     7     9    1
    14     7    13    1
    15     8    10    1
    16     8    14    1
    17     4     5    1
    18    28    36    1
    19    30    33    1
    20    30    38    1
    21    31    34    1
    22    31    39    1
    23    32    35    1
    24    32    40    1
    25    41    43   ar
    26    15    19    2
    27    42    43   ar
    28    16    22    2
    29    17    12    1
    30    17    19   ar
    31    17    20   ar
    32    18    19   ar
    33    18    22   ar
    34    18    23    1
    35     9    10    1
    36     9    11    1
    37    10    12    1
    38    11     5    1
    39    33    34    1
    40    33    35    1
    41    34    36    1
    42    35    37    1
    43    37    43    1
    44    20    21   ar
    45    21    22   ar
@<TRIPOS>MOLECULE
*****
 43 45 0 0 0
SMALL
GASTEIGER

@<TRIPOS>ATOM
      1 P          20.8620   71.3981   -2.0093 P.3     1  UNL1        0.2189
      2 O          22.4329   71.1009   -2.2601 O.co2   1  UNL1       -0.4371
      3 O          20.2420   70.6217   -0.8848 O.2     1  UNL1       -0.5170
      4 O          20.1890   71.1849   -3.4652 O.3     1  UNL1       -0.3112
      5 C          19.3498   70.0622   -3.6642 C.3     1  UNL1        0.1811
      6 O          17.7559   71.2353   -5.0284 O.3     1  UNL1       -0.3308
      7 O          15.6391   69.9036   -3.3740 O.3     1  UNL1       -0.3794
      8 O          15.6564   68.3955   -5.6459 O.3     1  UNL1       -0.3779
      9 C          16.8994   69.3935   -3.8099 C.3     1  UNL1        0.1713
     10 C          16.8484   69.0620   -5.2863 C.3     1  UNL1        0.1895
     11 C          17.9060   70.5353   -3.7743 C.3     1  UNL1        0.1764
     12 C          16.9645   70.4367   -5.9224 C.3     1  UNL1        0.2383
     13 H          14.9795   69.1920   -3.3883 H       1  UNL1        0.2105
     14 H          15.6299   67.5257   -5.2161 H       1  UNL1        0.2106
     15 O          15.6360   70.8085   -8.3868 O.2     1  UNL1       -0.2464
     16 O          19.5352   70.2535  -10.7810 O.2     1  UNL1       -0.2670
     17 N          17.6083   70.3945   -7.2048 N.ar    1  UNL1       -0.2551
     18 N          17.5791   70.5307   -9.5769 N.ar    1  UNL1       -0.2743
     19 C          16.8496   70.5938   -8.3824 C.ar    1  UNL1        0.3323
     20 C          18.9754   70.1597   -7.2872 C.ar    1  UNL1        0.0869
     21 C          19.6569   70.1024   -8.4331 C.ar    1  UNL1        0.0795
     22 C          18.9387   70.2992   -9.7094 C.ar    1  UNL1        0.2626
     23 H          17.0721   70.6644  -10.4102 H       1  UNL1        0.1734
     24 O          20.8217   73.0031   -1.8219 O.3     1  UNL1       -0.2703
     25 P          19.6048   74.0580   -1.9630 P.3     1  UNL1        0.2208
     26 O          20.1502   75.3601   -1.1709 O.co2   1  UNL1       -0.4371
     27 O          18.2833   73.5432   -1.4705 O.2     1  UNL1       -0.5170
     28 O          19.6173   74.4918   -3.5168 O.3     1  UNL1       -0.2858
     29 O          21.8264   74.5367   -4.3693 O.3     1  UNL1       -0.3226
     30 O          19.6585   75.9828   -7.5751 O.3     1  UNL1       -0.3794
     31 O          19.0470   76.8614   -4.8569 O.3     1  UNL1       -0.3775
     32 O          20.6675   73.2566   -7.6067 O.3     1  UNL1       -0.3792
     33 C          19.8891   75.1955   -6.4068 C.3     1  UNL1        0.1718
     34 C          20.2004   76.1135   -5.2244 C.3     1  UNL1        0.1968
     35 C          21.0740   74.2686   -6.6874 C.3     1  UNL1        0.1723
     36 C          20.6766   75.3064   -4.0158 C.3     1  UNL1        0.2706
     37 C          21.5703   73.5967   -5.4104 C.3     1  UNL1        0.1830
     38 H          18.9096   76.5799   -7.4203 H       1  UNL1        0.2105
     39 H          18.7393   77.3757   -5.6192 H       1  UNL1        0.2106
     40 H          20.3492   73.6711   -8.4239 H       1  UNL1        0.2106
     41 O          23.1255   72.7516   -6.9494 O.co2   1  UNL1       -0.5466
     42 O          23.6998   72.6790   -4.7440 O.co2   1  UNL1       -0.5466
     43 C          22.9066   72.9649   -5.6282 C.2     1  UNL1        0.0799
@<TRIPOS>UNITY_ATOM_ATTR
2 1
charge -1
26 1
charge -1
41 1
charge -1
@<TRIPOS>BOND
     1     1     4    1
     2     1    24    1
     3     1     2    1
     4     1     3    2
     5    25    28    1
     6    25    24    1
     7    25    26    1
     8    25    27    2
     9     6    11    1
    10     6    12    1
    11    29    36    1
    12    29    37    1
    13     7     9    1
    14     7    13    1
    15     8    10    1
    16     8    14    1
    17     4     5    1
    18    28    36    1
    19    30    33    1
    20    30    38    1
    21    31    34    1
    22    31    39    1
    23    32    35    1
    24    32    40    1
    25    41    43   ar
    26    15    19    2
    27    42    43   ar
    28    16    22    2
    29    17    12    1
    30    17    19   ar
    31    17    20   ar
    32    18    19   ar
    33    18    22   ar
    34    18    23    1
    35     9    10    1
    36     9    11    1
    37    10    12    1
    38    11     5    1
    39    33    34    1
    40    33    35    1
    41    34    36    1
    42    35    37    1
    43    37    43    1
    44    20    21   ar
    45    21    22   ar
@<TRIPOS>MOLECULE
*****
 43 45 0 0 0
SMALL
GASTEIGER

@<TRIPOS>ATOM
      1 P          21.7565   74.5877   -5.0098 P.3     1  UNL1        0.2189
      2 O          20.1468   74.6370   -4.8511 O.co2   1  UNL1       -0.4371
      3 O          22.3958   75.8906   -5.3914 O.2     1  UNL1       -0.5170
      4 O          22.0090   73.3563   -6.0286 O.3     1  UNL1       -0.3112
      5 C          21.5384   72.0712   -5.6657 C.3     1  UNL1        0.1811
      6 O          20.3130   70.1901   -6.5245 O.3     1  UNL1       -0.3308
      7 O          20.3305   71.6191   -9.1607 O.3     1  UNL1       -0.3794
      8 O          17.8223   72.1318   -8.2216 O.3     1  UNL1       -0.3779
      9 C          20.2238   72.1565   -7.8422 C.3     1  UNL1        0.1713
     10 C          18.8445   71.8901   -7.2776 C.3     1  UNL1        0.1895
     11 C          21.1099   71.3264   -6.9235 C.3     1  UNL1        0.1764
     12 C          18.9424   70.4261   -6.8836 C.3     1  UNL1        0.2383
     13 H          19.7728   72.1333   -9.7659 H       1  UNL1        0.2105
     14 H          17.8005   73.0773   -8.4396 H       1  UNL1        0.2106
     15 O          16.2044   69.7618   -7.0806 O.2     1  UNL1       -0.2464
     16 O          15.8243   69.2035   -2.5212 O.2     1  UNL1       -0.2670
     17 N          18.1041   70.1028   -5.7639 N.ar    1  UNL1       -0.2551
     18 N          16.0175   69.4854   -4.8095 N.ar    1  UNL1       -0.2743
     19 C          16.7413   69.7835   -5.9714 C.ar    1  UNL1        0.3323
     20 C          18.6328   70.1024   -4.4789 C.ar    1  UNL1        0.0869
     21 C          17.9304   69.8160   -3.3810 C.ar    1  UNL1        0.0795
     22 C          16.4990   69.4725   -3.5104 C.ar    1  UNL1        0.2626
     23 H          15.0660   69.2620   -4.9285 H       1  UNL1        0.1734
     24 O          22.2431   73.9895   -3.5892 O.3     1  UNL1       -0.2703
     25 P          23.7102   73.5559   -3.0665 P.3     1  UNL1        0.2208
     26 O          24.4410   74.9748   -2.7965 O.co2   1  UNL1       -0.4371
     27 O          24.4529   72.6459   -4.0015 O.2     1  UNL1       -0.5170
     28 O          23.4562   72.9424   -1.5963 O.3     1  UNL1       -0.2858
     29 O          24.0068   71.2008   -0.0888 O.3     1  UNL1       -0.3226
     30 O          19.9696   70.5546   -0.6814 O.3     1  UNL1       -0.3794
     31 O          21.7049   71.2415   -2.9289 O.3     1  UNL1       -0.3775
     32 O          20.9063   71.7651    1.7901 O.3     1  UNL1       -0.3792
     33 C          21.1619   71.3312   -0.5660 C.3     1  UNL1        0.1718
     34 C          22.1662   70.8880   -1.6301 C.3     1  UNL1        0.1968
     35 C          21.7373   71.1089    0.8345 C.3     1  UNL1        0.1723
     36 C          23.5330   71.5324   -1.3946 C.3     1  UNL1        0.2706
     37 C          23.1516   71.6700    0.9511 C.3     1  UNL1        0.1830
     38 H          19.5859   70.6800   -1.5637 H       1  UNL1        0.2105
     39 H          20.8379   70.8362   -3.0850 H       1  UNL1        0.2106
     40 H          20.0031   71.4171    1.7262 H       1  UNL1        0.2106
     41 O          24.7051   70.1837    1.8887 O.co2   1  UNL1       -0.5466
     42 O          23.6095   71.5818    3.3184 O.co2   1  UNL1       -0.5466
     43 C          23.8212   71.1675    2.1886 C.2     1  UNL1        0.0799
@<TRIPOS>UNITY_ATOM_ATTR
2 1
charge -1
26 1
charge -1
41 1
charge -1
@<TRIPOS>BOND
     1     1     4    1
     2     1    24    1
     3     1     2    1
     4     1     3    2
     5    25    28    1
     6    25    24    1
     7    25    26    1
     8    25    27    2
     9     6    11    1
    10     6    12    1
    11    29    36    1
    12    29    37    1
    13     7     9    1
    14     7    13    1
    15     8    10    1
    16     8    14    1
    17     4     5    1
    18    28    36    1
    19    30    33    1
    20    30    38    1
    21    31    34    1
    22    31    39    1
    23    32    35    1
    24    32    40    1
    25    41    43   ar
    26    15    19    2
    27    42    43   ar
    28    16    22    2
    29    17    12    1
    30    17    19   ar
    31    17    20   ar
    32    18    19   ar
    33    18    22   ar
    34    18    23    1
    35     9    10    1
    36     9    11    1
    37    10    12    1
    38    11     5    1
    39    33    34    1
    40    33    35    1
    41    34    36    1
    42    35    37    1
    43    37    43    1
    44    20    21   ar
    45    21    22   ar
@<TRIPOS>MOLECULE
*****
 43 45 0 0 0
SMALL
GASTEIGER

@<TRIPOS>ATOM
      1 P          15.1898   70.3651   -1.8713 P.3     1  UNL1        0.2189
      2 O          13.9912   71.3658   -2.2965 O.co2   1  UNL1       -0.4371
      3 O          15.4168   69.2146   -2.8075 O.2     1  UNL1       -0.5170
      4 O          14.8406   69.9683   -0.3421 O.3     1  UNL1       -0.3112
      5 C          14.2971   68.6868   -0.0834 C.3     1  UNL1        0.1811
      6 O          12.3294   68.6288    1.2959 O.3     1  UNL1       -0.3308
      7 O          14.1298   67.6888    3.5019 O.3     1  UNL1       -0.3794
      8 O          12.9514   65.3754    2.6680 O.3     1  UNL1       -0.3779
      9 C          14.1825   67.3954    2.1056 C.3     1  UNL1        0.1713
     10 C          13.0820   66.4250    1.7321 C.3     1  UNL1        0.1895
     11 C          13.7724   68.6498    1.3462 C.3     1  UNL1        0.1764
     12 C          11.8625   67.3302    1.6947 C.3     1  UNL1        0.2383
     13 H          14.3878   66.9020    4.0079 H       1  UNL1        0.2105
     14 H          13.7526   64.8278    2.6536 H       1  UNL1        0.2106
     15 O           9.1002   67.8822    1.8979 O.2     1  UNL1       -0.2464
     16 O           8.1645   65.5531   -1.9678 O.2     1  UNL1       -0.2670
     17 N          10.8747   66.8804    0.7552 N.ar    1  UNL1       -0.2551
     18 N           8.6367   66.7208   -0.0270 N.ar    1  UNL1       -0.2743
     19 C           9.5130   67.2123    0.9494 C.ar    1  UNL1        0.3323
     20 C          11.2578   66.1213   -0.3439 C.ar    1  UNL1        0.0869
     21 C          10.4109   65.6599   -1.2662 C.ar    1  UNL1        0.0795
     22 C           8.9702   65.9615   -1.1369 C.ar    1  UNL1        0.2626
     23 H           7.6831   66.9373    0.0879 H       1  UNL1        0.1734
     24 O          16.4531   71.3604   -1.7089 O.3     1  UNL1       -0.2703
     25 P          17.9896   71.2124   -2.1893 P.3     1  UNL1        0.2208
     26 O          18.3622   69.6928   -1.7741 O.co2   1  UNL1       -0.4371
     27 O          18.9142   72.2520   -1.6250 O.2     1  UNL1       -0.5170
     28 O          17.9141   71.1874   -3.8006 O.3     1  UNL1       -0.2858
     29 O          17.6714   69.8057   -5.7088 O.3     1  UNL1       -0.3226
     30 O          21.4241   71.4239   -6.3143 O.3     1  UNL1       -0.3794
     31 O          20.6111   70.5230   -3.6569 O.3     1  UNL1       -0.3775
     32 O          19.1520   72.3944   -7.8461 O.3     1  UNL1       -0.3792
     33 C          20.0732   71.4022   -5.8532 C.3     1  UNL1        0.1718
     34 C          19.8914   70.2581   -4.8554 C.3     1  UNL1        0.1968
     35 C          19.1626   71.2001   -7.0664 C.3     1  UNL1        0.1723
     36 C          18.4138   70.0586   -4.5153 C.3     1  UNL1        0.2706
     37 C          17.7318   70.8819   -6.6421 C.3     1  UNL1        0.1830
     38 H          22.0213   71.5512   -5.5603 H       1  UNL1        0.2105
     39 H          21.5495   70.6510   -3.8653 H       1  UNL1        0.2106
     40 H          20.0569   72.6083   -8.1224 H       1  UNL1        0.2106
     41 O          17.7535   70.0320   -8.8282 O.co2   1  UNL1       -0.5466
     42 O          15.7206   70.2597   -7.8209 O.co2   1  UNL1       -0.5466
     43 C          16.9375   70.3680   -7.7985 C.2     1  UNL1        0.0799
@<TRIPOS>UNITY_ATOM_ATTR
2 1
charge -1
26 1
charge -1
41 1
charge -1
@<TRIPOS>BOND
     1     1     4    1
     2     1    24    1
     3     1     2    1
     4     1     3    2
     5    25    28    1
     6    25    24    1
     7    25    26    1
     8    25    27    2
     9     6    11    1
    10     6    12    1
    11    29    36    1
    12    29    37    1
    13     7     9    1
    14     7    13    1
    15     8    10    1
    16     8    14    1
    17     4     5    1
    18    28    36    1
    19    30    33    1
    20    30    38    1
    21    31    34    1
    22    31    39    1
    23    32    35    1
    24    32    40    1
    25    41    43   ar
    26    15    19    2
    27    42    43   ar
    28    16    22    2
    29    17    12    1
    30    17    19   ar
    31    17    20   ar
    32    18    19   ar
    33    18    22   ar
    34    18    23    1
    35     9    10    1
    36     9    11    1
    37    10    12    1
    38    11     5    1
    39    33    34    1
    40    33    35    1
    41    34    36    1
    42    35    37    1
    43    37    43    1
    44    20    21   ar
    45    21    22   ar
