@<TRIPOS>MOLECULE
*****
 43 45 0 0 0
SMALL
GASTEIGER

@<TRIPOS>ATOM
      1 P          22.9595   71.3586   -2.3338 P.3     1  UNL1        0.2189
      2 O          22.6298   72.9341   -2.5010 O.co2   1  UNL1       -0.4371
      3 O          24.1953   70.8910   -3.0451 O.2     1  UNL1       -0.5170
      4 O          21.5822   70.6258   -2.7626 O.3     1  UNL1       -0.3112
      5 C          20.9443   71.0324   -3.9594 C.3     1  UNL1        0.1811
      6 O          18.8643   71.8118   -4.8781 O.3     1  UNL1       -0.3308
      7 O          17.5481   70.5050   -2.5219 O.3     1  UNL1       -0.3794
      8 O          17.1262   68.6967   -4.5189 O.3     1  UNL1       -0.3779
      9 C          18.6875   70.0810   -3.2706 C.3     1  UNL1        0.1713
     10 C          18.2574   69.5366   -4.6163 C.3     1  UNL1        0.1895
     11 C          19.4776   71.3210   -3.6663 C.3     1  UNL1        0.1764
     12 C          17.9752   70.8096   -5.3960 C.3     1  UNL1        0.2383
     13 H          17.0275   69.7298   -2.2579 H       1  UNL1        0.2105
     14 H          17.3572   67.9005   -4.0143 H       1  UNL1        0.2106
     15 O          15.9462   70.4738   -7.3316 O.2     1  UNL1       -0.2464
     16 O          19.0103   70.2256  -10.7658 O.2     1  UNL1       -0.2670
     17 N          18.2147   70.6549   -6.8029 N.ar    1  UNL1       -0.2551
     18 N          17.4743   70.3495   -9.0401 N.ar    1  UNL1       -0.2743
     19 C          17.1250   70.4924   -7.6908 C.ar    1  UNL1        0.3323
     20 C          19.5159   70.6668   -7.2904 C.ar    1  UNL1        0.0869
     21 C          19.8331   70.5294   -8.5793 C.ar    1  UNL1        0.0795
     22 C          18.7533   70.3541   -9.5726 C.ar    1  UNL1        0.2626
     23 H          16.7326   70.2329   -9.6770 H       1  UNL1        0.1734
     24 O          22.9911   71.1628   -0.7296 O.3     1  UNL1       -0.2703
     25 P          21.8968   71.5208    0.4052 P.3     1  UNL1        0.2208
     26 O          21.5849   70.0849    1.0844 O.co2   1  UNL1       -0.4371
     27 O          20.6831   72.2361   -0.1136 O.2     1  UNL1       -0.5170
     28 O          22.7226   72.3319    1.5288 O.3     1  UNL1       -0.2858
     29 O          24.5624   71.4851    2.7565 O.3     1  UNL1       -0.3226
     30 O          23.1105   74.3877    5.3128 O.3     1  UNL1       -0.3794
     31 O          21.2752   72.6179    3.8866 O.3     1  UNL1       -0.3775
     32 O          25.5250   74.8776    3.7698 O.3     1  UNL1       -0.3792
     33 C          23.3942   73.7881    4.0487 C.3     1  UNL1        0.1718
     34 C          22.6850   72.4371    3.9524 C.3     1  UNL1        0.1968
     35 C          24.9096   73.6025    3.9428 C.3     1  UNL1        0.1723
     36 C          23.1462   71.6641    2.7160 C.3     1  UNL1        0.2706
     37 C          25.2808   72.7168    2.7570 C.3     1  UNL1        0.1830
     38 H          22.1529   74.5154    5.4027 H       1  UNL1        0.2105
     39 H          20.9757   73.1081    4.6680 H       1  UNL1        0.2106
     40 H          25.2965   75.4511    4.5179 H       1  UNL1        0.2106
     41 O          26.8388   70.9969    2.4161 O.co2   1  UNL1       -0.5466
     42 O          27.6279   72.9632    3.2587 O.co2   1  UNL1       -0.5466
     43 C          26.7049   72.2745    2.8506 C.2     1  UNL1        0.0799
@<TRIPOS>UNITY_ATOM_ATTR
2 1
charge -1
26 1
charge -1
41 1
charge -1
@<TRIPOS>BOND
     1     1     4    1
     2     1    24    1
     3     1     2    1
     4     1     3    2
     5    25    28    1
     6    25    24    1
     7    25    26    1
     8    25    27    2
     9     6    11    1
    10     6    12    1
    11    29    36    1
    12    29    37    1
    13     7     9    1
    14     7    13    1
    15     8    10    1
    16     8    14    1
    17     4     5    1
    18    28    36    1
    19    30    33    1
    20    30    38    1
    21    31    34    1
    22    31    39    1
    23    32    35    1
    24    32    40    1
    25    41    43   ar
    26    15    19    2
    27    42    43   ar
    28    16    22    2
    29    17    12    1
    30    17    19   ar
    31    17    20   ar
    32    18    19   ar
    33    18    22   ar
    34    18    23    1
    35     9    10    1
    36     9    11    1
    37    10    12    1
    38    11     5    1
    39    33    34    1
    40    33    35    1
    41    34    36    1
    42    35    37    1
    43    37    43    1
    44    20    21   ar
    45    21    22   ar
@<TRIPOS>MOLECULE
*****
 43 45 0 0 0
SMALL
GASTEIGER

@<TRIPOS>ATOM
      1 P          21.5314   71.5382   -3.7734 P.3     1  UNL1        0.2189
      2 O          21.5717   71.4992   -5.3907 O.co2   1  UNL1       -0.4371
      3 O          22.3116   70.4513   -3.0939 O.2     1  UNL1       -0.5170
      4 O          19.9522   71.5923   -3.4254 O.3     1  UNL1       -0.3112
      5 C          19.1990   70.3967   -3.5135 C.3     1  UNL1        0.1811
      6 O          17.5363   71.4171   -4.9177 O.3     1  UNL1       -0.3308
      7 O          15.5096   69.9399   -3.2740 O.3     1  UNL1       -0.3794
      8 O          15.6846   68.4072   -5.5226 O.3     1  UNL1       -0.3779
      9 C          16.8138   69.5284   -3.6842 C.3     1  UNL1        0.1713
     10 C          16.8128   69.1736   -5.1560 C.3     1  UNL1        0.1895
     11 C          17.7235   70.7489   -3.6513 C.3     1  UNL1        0.1764
     12 C          16.8265   70.5444   -5.8109 C.3     1  UNL1        0.2383
     13 H          14.9103   69.1768   -3.2871 H       1  UNL1        0.2105
     14 H          15.7224   67.5442   -5.0803 H       1  UNL1        0.2106
     15 O          15.4998   70.5897   -8.3037 O.2     1  UNL1       -0.2464
     16 O          19.4788   70.5141  -10.6287 O.2     1  UNL1       -0.2670
     17 N          17.4913   70.5372   -7.0832 N.ar    1  UNL1       -0.2551
     18 N          17.4828   70.5510   -9.4593 N.ar    1  UNL1       -0.2743
     19 C          16.7316   70.5615   -8.2767 C.ar    1  UNL1        0.3323
     20 C          18.8794   70.5081   -7.1403 C.ar    1  UNL1        0.0869
     21 C          19.5814   70.4985   -8.2751 C.ar    1  UNL1        0.0795
     22 C          18.8638   70.5216   -9.5667 C.ar    1  UNL1        0.2626
     23 H          16.9759   70.5654  -10.3032 H       1  UNL1        0.1734
     24 O          22.0299   73.0379   -3.4340 O.3     1  UNL1       -0.2703
     25 P          23.5099   73.6278   -3.1593 P.3     1  UNL1        0.2208
     26 O          23.2988   75.2280   -3.2819 O.co2   1  UNL1       -0.4371
     27 O          24.5717   73.0729   -4.0641 O.2     1  UNL1       -0.5170
     28 O          23.7679   73.3703   -1.5878 O.3     1  UNL1       -0.2858
     29 O          22.1220   73.1739    0.1038 O.3     1  UNL1       -0.3226
     30 O          25.3652   74.5755    2.2452 O.3     1  UNL1       -0.3794
     31 O          24.7359   75.6832   -0.3838 O.3     1  UNL1       -0.3775
     32 O          24.5927   71.7790    2.4301 O.3     1  UNL1       -0.3792
     33 C          24.7025   73.8524    1.2078 C.3     1  UNL1        0.1718
     34 C          23.8803   74.8190    0.3550 C.3     1  UNL1        0.1968
     35 C          23.7903   72.8134    1.8639 C.3     1  UNL1        0.1723
     36 C          22.9791   74.0586   -0.6188 C.3     1  UNL1        0.2706
     37 C          22.8358   72.1903    0.8494 C.3     1  UNL1        0.1830
     38 H          25.9506   75.2418    1.8520 H       1  UNL1        0.2105
     39 H          25.3107   76.1687    0.2279 H       1  UNL1        0.2106
     40 H          25.2049   72.1624    3.0775 H       1  UNL1        0.2106
     41 O          21.6563   70.1733    1.0547 O.co2   1  UNL1       -0.5466
     42 O          21.0316   71.8875    2.4224 O.co2   1  UNL1       -0.5466
     43 C          21.7462   71.4365    1.5398 C.2     1  UNL1        0.0799
@<TRIPOS>UNITY_ATOM_ATTR
2 1
charge -1
26 1
charge -1
41 1
charge -1
@<TRIPOS>BOND
     1     1     4    1
     2     1    24    1
     3     1     2    1
     4     1     3    2
     5    25    28    1
     6    25    24    1
     7    25    26    1
     8    25    27    2
     9     6    11    1
    10     6    12    1
    11    29    36    1
    12    29    37    1
    13     7     9    1
    14     7    13    1
    15     8    10    1
    16     8    14    1
    17     4     5    1
    18    28    36    1
    19    30    33    1
    20    30    38    1
    21    31    34    1
    22    31    39    1
    23    32    35    1
    24    32    40    1
    25    41    43   ar
    26    15    19    2
    27    42    43   ar
    28    16    22    2
    29    17    12    1
    30    17    19   ar
    31    17    20   ar
    32    18    19   ar
    33    18    22   ar
    34    18    23    1
    35     9    10    1
    36     9    11    1
    37    10    12    1
    38    11     5    1
    39    33    34    1
    40    33    35    1
    41    34    36    1
    42    35    37    1
    43    37    43    1
    44    20    21   ar
    45    21    22   ar
@<TRIPOS>MOLECULE
*****
 43 45 0 0 0
SMALL
GASTEIGER

@<TRIPOS>ATOM
      1 P          22.9724   71.5303   -2.6749 P.3     1  UNL1        0.2189
      2 O          22.9903   73.0968   -2.2692 O.co2   1  UNL1       -0.4371
      3 O          24.2759   70.9943   -3.1901 O.2     1  UNL1       -0.5170
      4 O          21.7133   71.4045   -3.6833 O.3     1  UNL1       -0.3112
      5 C          21.5493   72.3902   -4.6863 C.3     1  UNL1        0.1811
      6 O          20.5382   70.5235   -5.8137 O.3     1  UNL1       -0.3308
      7 O          20.9048   72.0913   -8.3433 O.3     1  UNL1       -0.3794
      8 O          18.2658   72.4813   -7.7777 O.3     1  UNL1       -0.3779
      9 C          20.5792   72.5542   -7.0325 C.3     1  UNL1        0.1713
     10 C          19.1406   72.2187   -6.7005 C.3     1  UNL1        0.1895
     11 C          21.3447   71.7017   -6.0297 C.3     1  UNL1        0.1764
     12 C          19.2305   70.7392   -6.3675 C.3     1  UNL1        0.2383
     13 H          20.4274   72.6210   -9.0015 H       1  UNL1        0.2105
     14 H          18.2431   73.4361   -7.9504 H       1  UNL1        0.2106
     15 O          16.6258   69.8697   -7.0278 O.2     1  UNL1       -0.2464
     16 O          15.5288   69.2037   -2.6009 O.2     1  UNL1       -0.2670
     17 N          18.2438   70.3327   -5.4073 N.ar    1  UNL1       -0.2551
     18 N          16.0816   69.5398   -4.8223 N.ar    1  UNL1       -0.2743
     19 C          16.9649   69.9131   -5.8437 C.ar    1  UNL1        0.3323
     20 C          18.5471   70.3504   -4.0513 C.ar    1  UNL1        0.0869
     21 C          17.6946   69.9915   -3.0894 C.ar    1  UNL1        0.0795
     22 C          16.3371   69.5412   -3.4606 C.ar    1  UNL1        0.2626
     23 H          15.1844   69.2459   -5.1015 H       1  UNL1        0.1734
     24 O          22.4339   70.8132   -1.3301 O.3     1  UNL1       -0.2703
     25 P          21.5504   71.3854   -0.1030 P.3     1  UNL1        0.2208
     26 O          21.4246   70.1115    0.8878 O.co2   1  UNL1       -0.4371
     27 O          20.2351   71.9799   -0.5159 O.2     1  UNL1       -0.5170
     28 O          22.5336   72.4057    0.6684 O.3     1  UNL1       -0.2858
     29 O          23.9714   71.8149    2.4552 O.3     1  UNL1       -0.3226
     30 O          23.4080   75.8518    3.1290 O.3     1  UNL1       -0.3794
     31 O          21.1642   74.1544    2.3425 O.3     1  UNL1       -0.3775
     32 O          25.9086   74.8967    1.9950 O.3     1  UNL1       -0.3792
     33 C          23.5355   74.6672    2.3426 C.3     1  UNL1        0.1718
     34 C          22.4437   73.6718    2.7359 C.3     1  UNL1        0.1968
     35 C          24.9198   74.0707    2.6070 C.3     1  UNL1        0.1723
     36 C          22.6844   72.3097    2.0836 C.3     1  UNL1        0.2706
     37 C          25.0381   72.6617    2.0332 C.3     1  UNL1        0.1830
     38 H          22.5357   76.2484    2.9774 H       1  UNL1        0.2105
     39 H          21.0049   75.0186    2.7526 H       1  UNL1        0.2106
     40 H          25.8439   75.7965    2.3514 H       1  UNL1        0.2106
     41 O          26.9278   72.7827    3.4174 O.co2   1  UNL1       -0.5466
     42 O          26.5855   70.8288    2.2931 O.co2   1  UNL1       -0.5466
     43 C          26.2484   71.9700    2.5708 C.2     1  UNL1        0.0799
@<TRIPOS>UNITY_ATOM_ATTR
2 1
charge -1
26 1
charge -1
41 1
charge -1
@<TRIPOS>BOND
     1     1     4    1
     2     1    24    1
     3     1     2    1
     4     1     3    2
     5    25    28    1
     6    25    24    1
     7    25    26    1
     8    25    27    2
     9     6    11    1
    10     6    12    1
    11    29    36    1
    12    29    37    1
    13     7     9    1
    14     7    13    1
    15     8    10    1
    16     8    14    1
    17     4     5    1
    18    28    36    1
    19    30    33    1
    20    30    38    1
    21    31    34    1
    22    31    39    1
    23    32    35    1
    24    32    40    1
    25    41    43   ar
    26    15    19    2
    27    42    43   ar
    28    16    22    2
    29    17    12    1
    30    17    19   ar
    31    17    20   ar
    32    18    19   ar
    33    18    22   ar
    34    18    23    1
    35     9    10    1
    36     9    11    1
    37    10    12    1
    38    11     5    1
    39    33    34    1
    40    33    35    1
    41    34    36    1
    42    35    37    1
    43    37    43    1
    44    20    21   ar
    45    21    22   ar
@<TRIPOS>MOLECULE
*****
 43 45 0 0 0
SMALL
GASTEIGER

@<TRIPOS>ATOM
      1 P          22.5957   72.6095   -1.6752 P.3     1  UNL1        0.2189
      2 O          21.0740   72.8381   -1.1742 O.co2   1  UNL1       -0.4371
      3 O          23.4727   73.8256   -1.6126 O.2     1  UNL1       -0.5170
      4 O          22.4266   71.9397   -3.1383 O.3     1  UNL1       -0.3112
      5 C          21.5821   72.5761   -4.0797 C.3     1  UNL1        0.1811
      6 O          20.8148   70.5957   -5.2053 O.3     1  UNL1       -0.3308
      7 O          21.5238   71.9977   -7.7594 O.3     1  UNL1       -0.3794
      8 O          18.8185   72.3175   -7.6353 O.3     1  UNL1       -0.3779
      9 C          20.9845   72.5368   -6.5523 C.3     1  UNL1        0.1713
     10 C          19.5224   72.1665   -6.4202 C.3     1  UNL1        0.1895
     11 C          21.6096   71.7882   -5.3831 C.3     1  UNL1        0.1764
     12 C          19.6034   70.7186   -5.9674 C.3     1  UNL1        0.2383
     13 H          21.1391   72.4604   -8.5208 H       1  UNL1        0.2105
     14 H          18.7946   73.2563   -7.8805 H       1  UNL1        0.2106
     15 O          17.1020   69.8582   -6.9569 O.2     1  UNL1       -0.2464
     16 O          15.4110   69.2899   -2.7070 O.2     1  UNL1       -0.2670
     17 N          18.4919   70.3397   -5.1417 N.ar    1  UNL1       -0.2551
     18 N          16.2619   69.5770   -4.8393 N.ar    1  UNL1       -0.2743
     19 C          17.2789   69.9224   -5.7389 C.ar    1  UNL1        0.3323
     20 C          18.6098   70.3819   -3.7578 C.ar    1  UNL1        0.0869
     21 C          17.6315   70.0495   -2.9132 C.ar    1  UNL1        0.0795
     22 C          16.3315   69.6034   -3.4558 C.ar    1  UNL1        0.2626
     23 H          15.4073   69.2852   -5.2316 H       1  UNL1        0.1734
     24 O          23.0955   71.3713   -0.7642 O.3     1  UNL1       -0.2703
     25 P          22.7535   70.9724    0.7647 P.3     1  UNL1        0.2208
     26 O          24.0700   70.1580    1.2378 O.co2   1  UNL1       -0.4371
     27 O          21.4664   70.2176    0.9310 O.2     1  UNL1       -0.5170
     28 O          22.8227   72.3649    1.5762 O.3     1  UNL1       -0.2858
     29 O          24.0364   73.0582    3.4881 O.3     1  UNL1       -0.3226
     30 O          20.4329   75.0052    4.0284 O.3     1  UNL1       -0.3794
     31 O          20.4954   72.2380    3.0941 O.3     1  UNL1       -0.3775
     32 O          22.7686   76.4822    3.1259 O.3     1  UNL1       -0.3792
     33 C          21.5069   74.4354    3.2801 C.3     1  UNL1        0.1718
     34 C          21.6208   72.9451    3.6022 C.3     1  UNL1        0.1968
     35 C          22.7945   75.1643    3.6709 C.3     1  UNL1        0.1723
     36 C          22.8953   72.3513    3.0007 C.3     1  UNL1        0.2706
     37 C          24.0279   74.4405    3.1385 C.3     1  UNL1        0.1830
     38 H          19.6039   74.5576    3.7967 H       1  UNL1        0.2105
     39 H          19.6831   72.6098    3.4714 H       1  UNL1        0.2106
     40 H          21.9881   76.9536    3.4568 H       1  UNL1        0.2106
     41 O          25.4576   76.2671    3.4863 O.co2   1  UNL1       -0.5466
     42 O          26.0156   74.3019    4.4991 O.co2   1  UNL1       -0.5466
     43 C          25.2691   74.9587    3.7889 C.2     1  UNL1        0.0799
@<TRIPOS>UNITY_ATOM_ATTR
2 1
charge -1
26 1
charge -1
41 1
charge -1
@<TRIPOS>BOND
     1     1     4    1
     2     1    24    1
     3     1     2    1
     4     1     3    2
     5    25    28    1
     6    25    24    1
     7    25    26    1
     8    25    27    2
     9     6    11    1
    10     6    12    1
    11    29    36    1
    12    29    37    1
    13     7     9    1
    14     7    13    1
    15     8    10    1
    16     8    14    1
    17     4     5    1
    18    28    36    1
    19    30    33    1
    20    30    38    1
    21    31    34    1
    22    31    39    1
    23    32    35    1
    24    32    40    1
    25    41    43   ar
    26    15    19    2
    27    42    43   ar
    28    16    22    2
    29    17    12    1
    30    17    19   ar
    31    17    20   ar
    32    18    19   ar
    33    18    22   ar
    34    18    23    1
    35     9    10    1
    36     9    11    1
    37    10    12    1
    38    11     5    1
    39    33    34    1
    40    33    35    1
    41    34    36    1
    42    35    37    1
    43    37    43    1
    44    20    21   ar
    45    21    22   ar
@<TRIPOS>MOLECULE
*****
 43 45 0 0 0
SMALL
GASTEIGER

@<TRIPOS>ATOM
      1 P          23.4895   73.5615   -4.1710 P.3     1  UNL1        0.2189
      2 O          22.7152   74.9616   -4.4142 O.co2   1  UNL1       -0.4371
      3 O          24.9817   73.6739   -4.0599 O.2     1  UNL1       -0.5170
      4 O          22.9432   72.6045   -5.3558 O.3     1  UNL1       -0.3112
      5 C          21.5671   72.2722   -5.3762 C.3     1  UNL1        0.1811
      6 O          20.4833   70.3347   -6.2977 O.3     1  UNL1       -0.3308
      7 O          20.6410   71.7352   -8.9444 O.3     1  UNL1       -0.3794
      8 O          18.0518   72.1573   -8.2003 O.3     1  UNL1       -0.3779
      9 C          20.4157   72.2819   -7.6448 C.3     1  UNL1        0.1713
     10 C          19.0097   71.9666   -7.1802 C.3     1  UNL1        0.1895
     11 C          21.2627   71.4976   -6.6520 C.3     1  UNL1        0.1764
     12 C          19.1350   70.5120   -6.7602 C.3     1  UNL1        0.2383
     13 H          20.1102   72.2203   -9.5961 H       1  UNL1        0.2105
     14 H          18.0094   73.0988   -8.4320 H       1  UNL1        0.2106
     15 O          16.4283   69.8032   -7.1446 O.2     1  UNL1       -0.2464
     16 O          15.7522   69.2088   -2.6243 O.2     1  UNL1       -0.2670
     17 N          18.2290   70.1674   -5.7013 N.ar    1  UNL1       -0.2551
     18 N          16.0939   69.5088   -4.8928 N.ar    1  UNL1       -0.2743
     19 C          16.8890   69.8266   -6.0018 C.ar    1  UNL1        0.3323
     20 C          18.6701   70.1675   -4.3836 C.ar    1  UNL1        0.0869
     21 C          17.9005   69.8622   -3.3371 C.ar    1  UNL1        0.0795
     22 C          16.4872   69.4956   -3.5644 C.ar    1  UNL1        0.2626
     23 H          15.1566   69.2702   -5.0768 H       1  UNL1        0.1734
     24 O          22.7593   72.9665   -2.8574 O.3     1  UNL1       -0.2703
     25 P          22.8952   71.5311   -2.1261 P.3     1  UNL1        0.2208
     26 O          24.2334   70.9044   -2.7871 O.co2   1  UNL1       -0.4371
     27 O          21.6787   70.6599   -2.2486 O.2     1  UNL1       -0.5170
     28 O          23.3167   71.8829   -0.6092 O.3     1  UNL1       -0.2858
     29 O          24.6745   70.9440    1.0891 O.3     1  UNL1       -0.3226
     30 O          21.2643   71.9439    3.1959 O.3     1  UNL1       -0.3794
     31 O          21.0653   70.7291    0.5466 O.3     1  UNL1       -0.3775
     32 O          23.6594   73.5734    3.4381 O.3     1  UNL1       -0.3792
     33 C          22.2521   72.0809    2.1745 C.3     1  UNL1        0.1718
     34 C          22.2660   70.8240    1.3042 C.3     1  UNL1        0.1968
     35 C          23.6103   72.2736    2.8529 C.3     1  UNL1        0.1723
     36 C          23.4590   70.8343    0.3474 C.3     1  UNL1        0.2706
     37 C          24.7557   72.1453    1.8529 C.3     1  UNL1        0.1830
     38 H          20.3925   71.8202    2.7884 H       1  UNL1        0.2105
     39 H          20.3041   70.7223    1.1474 H       1  UNL1        0.2106
     40 H          22.9354   73.6682    4.0766 H       1  UNL1        0.2106
     41 O          26.5805   70.7657    2.3709 O.co2   1  UNL1       -0.5466
     42 O          26.6032   72.8823    3.2185 O.co2   1  UNL1       -0.5466
     43 C          26.0642   72.0053    2.5602 C.2     1  UNL1        0.0799
@<TRIPOS>UNITY_ATOM_ATTR
2 1
charge -1
26 1
charge -1
41 1
charge -1
@<TRIPOS>BOND
     1     1     4    1
     2     1    24    1
     3     1     2    1
     4     1     3    2
     5    25    28    1
     6    25    24    1
     7    25    26    1
     8    25    27    2
     9     6    11    1
    10     6    12    1
    11    29    36    1
    12    29    37    1
    13     7     9    1
    14     7    13    1
    15     8    10    1
    16     8    14    1
    17     4     5    1
    18    28    36    1
    19    30    33    1
    20    30    38    1
    21    31    34    1
    22    31    39    1
    23    32    35    1
    24    32    40    1
    25    41    43   ar
    26    15    19    2
    27    42    43   ar
    28    16    22    2
    29    17    12    1
    30    17    19   ar
    31    17    20   ar
    32    18    19   ar
    33    18    22   ar
    34    18    23    1
    35     9    10    1
    36     9    11    1
    37    10    12    1
    38    11     5    1
    39    33    34    1
    40    33    35    1
    41    34    36    1
    42    35    37    1
    43    37    43    1
    44    20    21   ar
    45    21    22   ar
@<TRIPOS>MOLECULE
*****
 43 45 0 0 0
SMALL
GASTEIGER

@<TRIPOS>ATOM
      1 P          21.5386   72.4682   -5.5885 P.3     1  UNL1        0.2189
      2 O          20.8822   73.9387   -5.7481 O.co2   1  UNL1       -0.4371
      3 O          22.9727   72.3644   -6.0178 O.2     1  UNL1       -0.5170
      4 O          20.5020   71.4942   -6.3598 O.3     1  UNL1       -0.3112
      5 C          20.1207   71.8245   -7.6827 C.3     1  UNL1        0.1811
      6 O          18.8133   69.8572   -7.2379 O.3     1  UNL1       -0.3308
      7 O          18.0146   69.9614  -10.1263 O.3     1  UNL1       -0.3794
      8 O          15.8424   71.0271   -8.8686 O.3     1  UNL1       -0.3779
      9 C          18.2492   71.0346   -9.2143 C.3     1  UNL1        0.1713
     10 C          17.0992   71.1525   -8.2367 C.3     1  UNL1        0.1895
     11 C          19.4017   70.6338   -8.3037 C.3     1  UNL1        0.1764
     12 C          17.3858   70.0130   -7.2737 C.3     1  UNL1        0.2383
     13 H          17.2822   70.1943  -10.7187 H       1  UNL1        0.2105
     14 H          15.7072   71.7762   -9.4708 H       1  UNL1        0.2106
     15 O          16.3906   68.0516   -5.5020 O.2     1  UNL1       -0.2464
     16 O          15.5963   71.1719   -2.2040 O.2     1  UNL1       -0.2670
     17 N          16.9123   70.2852   -5.9461 N.ar    1  UNL1       -0.2551
     18 N          15.9950   69.6077   -3.8615 N.ar    1  UNL1       -0.2743
     19 C          16.4325   69.2281   -5.1372 C.ar    1  UNL1        0.3323
     20 C          16.9277   71.5859   -5.4574 C.ar    1  UNL1        0.0869
     21 C          16.5074   71.9323   -4.2391 C.ar    1  UNL1        0.0795
     22 C          15.9901   70.8876   -3.3311 C.ar    1  UNL1        0.2626
     23 H          15.6546   68.8892   -3.2807 H       1  UNL1        0.1734
     24 O          21.2748   72.1200   -4.0322 O.3     1  UNL1       -0.2703
     25 P          20.7326   70.7721   -3.3232 P.3     1  UNL1        0.2208
     26 O          21.8047   70.5214   -2.1365 O.co2   1  UNL1       -0.4371
     27 O          20.5624   69.6101   -4.2584 O.2     1  UNL1       -0.5170
     28 O          19.3828   71.2236   -2.5637 O.3     1  UNL1       -0.2858
     29 O          20.3798   71.5054   -0.4340 O.3     1  UNL1       -0.3226
     30 O          21.7341   74.8502   -2.4455 O.3     1  UNL1       -0.3794
     31 O          18.9643   73.9679   -2.7360 O.3     1  UNL1       -0.3775
     32 O          23.5197   72.6035   -1.9825 O.3     1  UNL1       -0.3792
     33 C          21.3056   73.4951   -2.3108 C.3     1  UNL1        0.1718
     34 C          19.8766   73.4617   -1.7684 C.3     1  UNL1        0.1968
     35 C          22.2591   72.7918   -1.3422 C.3     1  UNL1        0.1723
     36 C          19.4664   72.0366   -1.3947 C.3     1  UNL1        0.2706
     37 C          21.7184   71.4290   -0.9194 C.3     1  UNL1        0.1830
     38 H          21.1427   75.3172   -3.0567 H       1  UNL1        0.2105
     39 H          19.2188   74.8718   -2.9779 H       1  UNL1        0.2106
     40 H          23.8748   73.4634   -2.2567 H       1  UNL1        0.2106
     41 O          21.6509   70.1980    1.0760 O.co2   1  UNL1       -0.5466
     42 O          23.6649   71.0724    0.4609 O.co2   1  UNL1       -0.5466
     43 C          22.4723   70.9010    0.2575 C.2     1  UNL1        0.0799
@<TRIPOS>UNITY_ATOM_ATTR
2 1
charge -1
26 1
charge -1
41 1
charge -1
@<TRIPOS>BOND
     1     1     4    1
     2     1    24    1
     3     1     2    1
     4     1     3    2
     5    25    28    1
     6    25    24    1
     7    25    26    1
     8    25    27    2
     9     6    11    1
    10     6    12    1
    11    29    36    1
    12    29    37    1
    13     7     9    1
    14     7    13    1
    15     8    10    1
    16     8    14    1
    17     4     5    1
    18    28    36    1
    19    30    33    1
    20    30    38    1
    21    31    34    1
    22    31    39    1
    23    32    35    1
    24    32    40    1
    25    41    43   ar
    26    15    19    2
    27    42    43   ar
    28    16    22    2
    29    17    12    1
    30    17    19   ar
    31    17    20   ar
    32    18    19   ar
    33    18    22   ar
    34    18    23    1
    35     9    10    1
    36     9    11    1
    37    10    12    1
    38    11     5    1
    39    33    34    1
    40    33    35    1
    41    34    36    1
    42    35    37    1
    43    37    43    1
    44    20    21   ar
    45    21    22   ar
@<TRIPOS>MOLECULE
*****
 43 45 0 0 0
SMALL
GASTEIGER

@<TRIPOS>ATOM
      1 P          21.9702   74.2221   -2.8126 P.3     1  UNL1        0.2189
      2 O          20.9236   74.3764   -1.5879 O.co2   1  UNL1       -0.4371
      3 O          22.5629   75.5096   -3.3054 O.2     1  UNL1       -0.5170
      4 O          21.1571   73.3568   -3.9117 O.3     1  UNL1       -0.3112
      5 C          21.8697   72.4151   -4.6927 C.3     1  UNL1        0.1811
      6 O          20.9216   71.6582   -6.7678 O.3     1  UNL1       -0.3308
      7 O          21.1589   74.4991   -7.6976 O.3     1  UNL1       -0.3794
      8 O          18.5178   74.3036   -7.0475 O.3     1  UNL1       -0.3779
      9 C          20.8412   73.9967   -6.3994 C.3     1  UNL1        0.1713
     10 C          19.4275   73.4553   -6.3785 C.3     1  UNL1        0.1895
     11 C          21.6675   72.7391   -6.1673 C.3     1  UNL1        0.1764
     12 C          19.5934   72.1134   -7.0710 C.3     1  UNL1        0.2383
     13 H          20.6429   75.3030   -7.8688 H       1  UNL1        0.2105
     14 H          18.4470   75.1442   -6.5677 H       1  UNL1        0.2106
     15 O          17.7386   70.7773   -8.7296 O.2     1  UNL1       -0.2464
     16 O          16.0144   68.3873   -5.1857 O.2     1  UNL1       -0.2670
     17 N          18.6482   71.1372   -6.6079 N.ar    1  UNL1       -0.2551
     18 N          16.8809   69.5889   -6.9628 N.ar    1  UNL1       -0.2743
     19 C          17.7599   70.5249   -7.5235 C.ar    1  UNL1        0.3323
     20 C          18.6085   70.7941   -5.2619 C.ar    1  UNL1        0.0869
     21 C          17.7651   69.9000   -4.7424 C.ar    1  UNL1        0.0795
     22 C          16.8034   69.2152   -5.6309 C.ar    1  UNL1        0.2626
     23 H          16.2515   69.1509   -7.5803 H       1  UNL1        0.1734
     24 O          23.0465   73.1614   -2.2388 O.3     1  UNL1       -0.2703
     25 P          22.8666   71.8988   -1.2452 P.3     1  UNL1        0.2208
     26 O          24.0785   70.9151   -1.6740 O.co2   1  UNL1       -0.4371
     27 O          21.5071   71.2639   -1.2963 O.2     1  UNL1       -0.5170
     28 O          23.2904   72.4576    0.2076 O.3     1  UNL1       -0.2858
     29 O          24.9427   71.8676    1.7985 O.3     1  UNL1       -0.3226
     30 O          21.7060   72.7136    4.2225 O.3     1  UNL1       -0.3794
     31 O          21.3488   71.1984    1.7505 O.3     1  UNL1       -0.3775
     32 O          23.8946   74.6134    3.9949 O.3     1  UNL1       -0.3792
     33 C          22.5430   72.8445    3.0734 C.3     1  UNL1        0.1718
     34 C          22.6092   71.5081    2.3337 C.3     1  UNL1        0.1968
     35 C          23.9372   73.2593    3.5488 C.3     1  UNL1        0.1723
     36 C          23.6715   71.5435    1.2341 C.3     1  UNL1        0.2706
     37 C          24.9646   73.1478    2.4261 C.3     1  UNL1        0.1830
     38 H          20.8143   72.4505    3.9449 H       1  UNL1        0.2105
     39 H          20.6699   71.1746    2.4425 H       1  UNL1        0.2106
     40 H          23.2442   74.6981    4.7095 H       1  UNL1        0.2106
     41 O          26.6344   74.4951    3.3739 O.co2   1  UNL1       -0.5466
     42 O          27.1362   72.2956    3.0424 O.co2   1  UNL1       -0.5466
     43 C          26.3543   73.2317    2.9684 C.2     1  UNL1        0.0799
@<TRIPOS>UNITY_ATOM_ATTR
2 1
charge -1
26 1
charge -1
41 1
charge -1
@<TRIPOS>BOND
     1     1     4    1
     2     1    24    1
     3     1     2    1
     4     1     3    2
     5    25    28    1
     6    25    24    1
     7    25    26    1
     8    25    27    2
     9     6    11    1
    10     6    12    1
    11    29    36    1
    12    29    37    1
    13     7     9    1
    14     7    13    1
    15     8    10    1
    16     8    14    1
    17     4     5    1
    18    28    36    1
    19    30    33    1
    20    30    38    1
    21    31    34    1
    22    31    39    1
    23    32    35    1
    24    32    40    1
    25    41    43   ar
    26    15    19    2
    27    42    43   ar
    28    16    22    2
    29    17    12    1
    30    17    19   ar
    31    17    20   ar
    32    18    19   ar
    33    18    22   ar
    34    18    23    1
    35     9    10    1
    36     9    11    1
    37    10    12    1
    38    11     5    1
    39    33    34    1
    40    33    35    1
    41    34    36    1
    42    35    37    1
    43    37    43    1
    44    20    21   ar
    45    21    22   ar
@<TRIPOS>MOLECULE
*****
 43 45 0 0 0
SMALL
GASTEIGER

@<TRIPOS>ATOM
      1 P          21.3965   72.4940   -4.6677 P.3     1  UNL1        0.2189
      2 O          21.0627   74.0356   -4.3059 O.co2   1  UNL1       -0.4371
      3 O          22.3448   72.3035   -5.8150 O.2     1  UNL1       -0.5170
      4 O          19.9399   71.8109   -4.8394 O.3     1  UNL1       -0.3112
      5 C          19.3092   71.2667   -3.6945 C.3     1  UNL1        0.1811
      6 O          17.5193   71.8455   -5.1909 O.3     1  UNL1       -0.3308
      7 O          15.7046   70.4261   -3.2715 O.3     1  UNL1       -0.3794
      8 O          16.0365   68.5818   -5.2525 O.3     1  UNL1       -0.3779
      9 C          17.0440   70.1093   -3.6512 C.3     1  UNL1        0.1713
     10 C          17.0684   69.5239   -5.0473 C.3     1  UNL1        0.1895
     11 C          17.8004   71.4170   -3.8408 C.3     1  UNL1        0.1764
     12 C          16.9092   70.7631   -5.9117 C.3     1  UNL1        0.2383
     13 H          15.2016   69.6061   -3.1446 H       1  UNL1        0.2105
     14 H          16.1832   67.8119   -4.6800 H       1  UNL1        0.2106
     15 O          15.5527   70.7025   -8.3881 O.2     1  UNL1       -0.2464
     16 O          19.4894   70.2430  -10.7407 O.2     1  UNL1       -0.2670
     17 N          17.5551   70.6285   -7.1867 N.ar    1  UNL1       -0.2551
     18 N          17.5146   70.4726   -9.5574 N.ar    1  UNL1       -0.2743
     19 C          16.7814   70.6089   -8.3712 C.ar    1  UNL1        0.3323
     20 C          18.9387   70.5194   -7.2552 C.ar    1  UNL1        0.0869
     21 C          19.6234   70.3902   -8.3933 C.ar    1  UNL1        0.0795
     22 C          18.8904   70.3601   -9.6759 C.ar    1  UNL1        0.2626
     23 H          16.9976   70.4544  -10.3951 H       1  UNL1        0.1734
     24 O          21.9152   71.8947   -3.2589 O.3     1  UNL1       -0.2703
     25 P          23.3725   71.9353   -2.5603 P.3     1  UNL1        0.2208
     26 O          23.9623   73.3715   -3.0183 O.co2   1  UNL1       -0.4371
     27 O          24.2523   70.7679   -2.9025 O.2     1  UNL1       -0.5170
     28 O          23.0669   72.1043   -0.9853 O.3     1  UNL1       -0.2858
     29 O          24.3246   71.0146    0.6999 O.3     1  UNL1       -0.3226
     30 O          20.7874   71.8175    2.6776 O.3     1  UNL1       -0.3794
     31 O          20.7562   70.8494   -0.0786 O.3     1  UNL1       -0.3775
     32 O          23.1541   73.4186    3.2124 O.3     1  UNL1       -0.3792
     33 C          21.8345   72.0473    1.7348 C.3     1  UNL1        0.1718
     34 C          21.9083   70.8751    0.7561 C.3     1  UNL1        0.1968
     35 C          23.1479   72.1776    2.5093 C.3     1  UNL1        0.1723
     36 C          23.1570   70.9728   -0.1214 C.3     1  UNL1        0.2706
     37 C          24.3525   72.1412    1.5733 C.3     1  UNL1        0.1830
     38 H          19.9426   71.7314    2.2082 H       1  UNL1        0.2105
     39 H          19.9601   70.7878    0.4717 H       1  UNL1        0.2106
     40 H          22.3922   73.4546    3.8116 H       1  UNL1        0.2106
     41 O          26.0860   70.6774    2.1681 O.co2   1  UNL1       -0.5466
     42 O          26.1605   72.7847    3.0358 O.co2   1  UNL1       -0.5466
     43 C          25.6166   71.9375    2.3433 C.2     1  UNL1        0.0799
@<TRIPOS>UNITY_ATOM_ATTR
2 1
charge -1
26 1
charge -1
41 1
charge -1
@<TRIPOS>BOND
     1     1     4    1
     2     1    24    1
     3     1     2    1
     4     1     3    2
     5    25    28    1
     6    25    24    1
     7    25    26    1
     8    25    27    2
     9     6    11    1
    10     6    12    1
    11    29    36    1
    12    29    37    1
    13     7     9    1
    14     7    13    1
    15     8    10    1
    16     8    14    1
    17     4     5    1
    18    28    36    1
    19    30    33    1
    20    30    38    1
    21    31    34    1
    22    31    39    1
    23    32    35    1
    24    32    40    1
    25    41    43   ar
    26    15    19    2
    27    42    43   ar
    28    16    22    2
    29    17    12    1
    30    17    19   ar
    31    17    20   ar
    32    18    19   ar
    33    18    22   ar
    34    18    23    1
    35     9    10    1
    36     9    11    1
    37    10    12    1
    38    11     5    1
    39    33    34    1
    40    33    35    1
    41    34    36    1
    42    35    37    1
    43    37    43    1
    44    20    21   ar
    45    21    22   ar
@<TRIPOS>MOLECULE
*****
 43 45 0 0 0
SMALL
GASTEIGER

@<TRIPOS>ATOM
      1 P          21.4136   71.0133   -3.7469 P.3     1  UNL1        0.2189
      2 O          22.9732   70.8122   -3.3646 O.co2   1  UNL1       -0.4371
      3 O          20.6727   69.7493   -4.0711 O.2     1  UNL1       -0.5170
      4 O          21.4413   72.1312   -4.9164 O.3     1  UNL1       -0.3112
      5 C          21.2898   71.7088   -6.2592 C.3     1  UNL1        0.1811
      6 O          19.3213   72.0168   -7.6036 O.3     1  UNL1       -0.3308
      7 O          19.5110   74.9217   -6.8846 O.3     1  UNL1       -0.3794
      8 O          17.5613   74.0184   -5.2057 O.3     1  UNL1       -0.3779
      9 C          19.8122   73.7730   -6.0919 C.3     1  UNL1        0.1713
     10 C          18.5345   73.0943   -5.6458 C.3     1  UNL1        0.1895
     11 C          20.4297   72.7217   -7.0038 C.3     1  UNL1        0.1764
     12 C          18.1130   72.3565   -6.9051 C.3     1  UNL1        0.2383
     13 H          19.1153   75.6074   -6.3235 H       1  UNL1        0.2105
     14 H          17.8765   74.4616   -4.4018 H       1  UNL1        0.2106
     15 O          15.8991   71.4354   -8.3974 O.2     1  UNL1       -0.2464
     16 O          15.3998   67.7242   -5.7101 O.2     1  UNL1       -0.2670
     17 N          17.3858   71.1526   -6.6174 N.ar    1  UNL1       -0.2551
     18 N          15.6519   69.5884   -7.0569 N.ar    1  UNL1       -0.2743
     19 C          16.2884   70.7798   -7.4291 C.ar    1  UNL1        0.3323
     20 C          17.7619   70.3550   -5.5435 C.ar    1  UNL1        0.0869
     21 C          17.1456   69.2220   -5.2012 C.ar    1  UNL1        0.0795
     22 C          15.9889   68.7618   -5.9973 C.ar    1  UNL1        0.2626
     23 H          14.8838   69.3094   -7.6060 H       1  UNL1        0.1734
     24 O          20.8312   71.8287   -2.4785 O.3     1  UNL1       -0.2703
     25 P          21.5478   72.3288   -1.1183 P.3     1  UNL1        0.2208
     26 O          20.4518   71.9891    0.0235 O.co2   1  UNL1       -0.4371
     27 O          21.9877   73.7639   -1.1458 O.2     1  UNL1       -0.5170
     28 O          22.7377   71.2685   -0.8689 O.3     1  UNL1       -0.2858
     29 O          24.1971   72.4176    0.6003 O.3     1  UNL1       -0.3226
     30 O          20.7306   72.2247    2.8395 O.3     1  UNL1       -0.3794
     31 O          21.6231   69.9146    1.2900 O.3     1  UNL1       -0.3775
     32 O          21.5087   74.7199    1.5669 O.3     1  UNL1       -0.3792
     33 C          21.5071   72.3118    1.6447 C.3     1  UNL1        0.1718
     34 C          22.4047   71.0798    1.5268 C.3     1  UNL1        0.1968
     35 C          22.3556   73.5829    1.7238 C.3     1  UNL1        0.1723
     36 C          23.4120   71.2438    0.3879 C.3     1  UNL1        0.2706
     37 C          23.4187   73.6119    0.6296 C.3     1  UNL1        0.1830
     38 H          20.1831   71.4242    2.8119 H       1  UNL1        0.2105
     39 H          20.9815   69.8045    2.0087 H       1  UNL1        0.2106
     40 H          20.8274   74.7133    2.2573 H       1  UNL1        0.2106
     41 O          24.6728   75.4105   -0.2036 O.co2   1  UNL1       -0.5466
     42 O          24.9849   74.8500    1.9844 O.co2   1  UNL1       -0.5466
     43 C          24.4371   74.6694    0.9073 C.2     1  UNL1        0.0799
@<TRIPOS>UNITY_ATOM_ATTR
2 1
charge -1
26 1
charge -1
41 1
charge -1
@<TRIPOS>BOND
     1     1     4    1
     2     1    24    1
     3     1     2    1
     4     1     3    2
     5    25    28    1
     6    25    24    1
     7    25    26    1
     8    25    27    2
     9     6    11    1
    10     6    12    1
    11    29    36    1
    12    29    37    1
    13     7     9    1
    14     7    13    1
    15     8    10    1
    16     8    14    1
    17     4     5    1
    18    28    36    1
    19    30    33    1
    20    30    38    1
    21    31    34    1
    22    31    39    1
    23    32    35    1
    24    32    40    1
    25    41    43   ar
    26    15    19    2
    27    42    43   ar
    28    16    22    2
    29    17    12    1
    30    17    19   ar
    31    17    20   ar
    32    18    19   ar
    33    18    22   ar
    34    18    23    1
    35     9    10    1
    36     9    11    1
    37    10    12    1
    38    11     5    1
    39    33    34    1
    40    33    35    1
    41    34    36    1
    42    35    37    1
    43    37    43    1
    44    20    21   ar
    45    21    22   ar
@<TRIPOS>MOLECULE
*****
 43 45 0 0 0
SMALL
GASTEIGER

@<TRIPOS>ATOM
      1 P          23.0660   71.5956   -2.7428 P.3     1  UNL1        0.2189
      2 O          23.2106   73.1836   -2.4662 O.co2   1  UNL1       -0.4371
      3 O          24.3007   70.9306   -3.2766 O.2     1  UNL1       -0.5170
      4 O          21.7481   71.4820   -3.6745 O.3     1  UNL1       -0.3112
      5 C          21.5514   72.4503   -4.6885 C.3     1  UNL1        0.1811
      6 O          20.5789   70.5552   -5.8024 O.3     1  UNL1       -0.3308
      7 O          20.9594   72.0918   -8.3490 O.3     1  UNL1       -0.3794
      8 O          18.3085   72.4561   -7.8238 O.3     1  UNL1       -0.3779
      9 C          20.6106   72.5689   -7.0493 C.3     1  UNL1        0.1713
     10 C          19.1720   72.2198   -6.7315 C.3     1  UNL1        0.1895
     11 C          21.3733   71.7405   -6.0245 C.3     1  UNL1        0.1764
     12 C          19.2761   70.7464   -6.3764 C.3     1  UNL1        0.2383
     13 H          20.4842   72.6061   -9.0209 H       1  UNL1        0.2105
     14 H          18.2761   73.4080   -8.0103 H       1  UNL1        0.2106
     15 O          16.6774   69.8742   -7.0563 O.2     1  UNL1       -0.2464
     16 O          15.5449   69.2150   -2.6374 O.2     1  UNL1       -0.2670
     17 N          18.2819   70.3409   -5.4235 N.ar    1  UNL1       -0.2551
     18 N          16.1155   69.5477   -4.8547 N.ar    1  UNL1       -0.2743
     19 C          17.0069   69.9198   -5.8696 C.ar    1  UNL1        0.3323
     20 C          18.5741   70.3611   -4.0651 C.ar    1  UNL1        0.0869
     21 C          17.7141   70.0034   -3.1095 C.ar    1  UNL1        0.0795
     22 C          16.3599   69.5516   -3.4910 C.ar    1  UNL1        0.2626
     23 H          15.2207   69.2528   -5.1407 H       1  UNL1        0.1734
     24 O          22.5552   71.0244   -1.3196 O.3     1  UNL1       -0.2703
     25 P          21.5903   71.6768   -0.1985 P.3     1  UNL1        0.2208
     26 O          21.1542   70.4033    0.7006 O.co2   1  UNL1       -0.4371
     27 O          20.4394   72.4619   -0.7580 O.2     1  UNL1       -0.5170
     28 O          22.5810   72.5253    0.7506 O.3     1  UNL1       -0.2858
     29 O          21.6524   74.2492    2.0829 O.3     1  UNL1       -0.3226
     30 O          25.6848   75.1303    2.2591 O.3     1  UNL1       -0.3794
     31 O          24.4566   74.3121   -0.2621 O.3     1  UNL1       -0.3775
     32 O          24.3601   73.8964    4.5336 O.3     1  UNL1       -0.3792
     33 C          24.5387   74.2847    2.1625 C.3     1  UNL1        0.1718
     34 C          23.7345   74.6533    0.9155 C.3     1  UNL1        0.1968
     35 C          23.6927   74.4892    3.4212 C.3     1  UNL1        0.1723
     36 C          22.3868   73.9305    0.9003 C.3     1  UNL1        0.2706
     37 C          22.3166   73.8453    3.2782 C.3     1  UNL1        0.1830
     38 H          26.2376   75.0174    1.4698 H       1  UNL1        0.2105
     39 H          25.3130   74.7670   -0.2589 H       1  UNL1        0.2106
     40 H          25.2375   74.2973    4.6355 H       1  UNL1        0.2106
     41 O          22.0960   74.7816    5.4175 O.co2   1  UNL1       -0.5466
     42 O          20.1738   74.3056    4.2871 O.co2   1  UNL1       -0.5466
     43 C          21.3938   74.3219    4.3523 C.2     1  UNL1        0.0799
@<TRIPOS>UNITY_ATOM_ATTR
2 1
charge -1
26 1
charge -1
41 1
charge -1
@<TRIPOS>BOND
     1     1     4    1
     2     1    24    1
     3     1     2    1
     4     1     3    2
     5    25    28    1
     6    25    24    1
     7    25    26    1
     8    25    27    2
     9     6    11    1
    10     6    12    1
    11    29    36    1
    12    29    37    1
    13     7     9    1
    14     7    13    1
    15     8    10    1
    16     8    14    1
    17     4     5    1
    18    28    36    1
    19    30    33    1
    20    30    38    1
    21    31    34    1
    22    31    39    1
    23    32    35    1
    24    32    40    1
    25    41    43   ar
    26    15    19    2
    27    42    43   ar
    28    16    22    2
    29    17    12    1
    30    17    19   ar
    31    17    20   ar
    32    18    19   ar
    33    18    22   ar
    34    18    23    1
    35     9    10    1
    36     9    11    1
    37    10    12    1
    38    11     5    1
    39    33    34    1
    40    33    35    1
    41    34    36    1
    42    35    37    1
    43    37    43    1
    44    20    21   ar
    45    21    22   ar
@<TRIPOS>MOLECULE
*****
 43 45 0 0 0
SMALL
GASTEIGER

@<TRIPOS>ATOM
      1 P          22.7653   72.5761   -4.1790 P.3     1  UNL1        0.2189
      2 O          23.1603   73.5148   -5.4366 O.co2   1  UNL1       -0.4371
      3 O          23.8629   71.6773   -3.6899 O.2     1  UNL1       -0.5170
      4 O          21.4104   71.8333   -4.6591 O.3     1  UNL1       -0.3112
      5 C          20.8364   70.8577   -3.8086 C.3     1  UNL1        0.1811
      6 O          18.8365   71.7785   -4.7730 O.3     1  UNL1       -0.3308
      7 O          17.3654   70.4654   -2.5141 O.3     1  UNL1       -0.3794
      8 O          16.9250   68.7509   -4.5884 O.3     1  UNL1       -0.3779
      9 C          18.5084   70.0063   -3.2360 C.3     1  UNL1        0.1713
     10 C          18.1016   69.5316   -4.6149 C.3     1  UNL1        0.1895
     11 C          19.3769   71.2147   -3.5584 C.3     1  UNL1        0.1764
     12 C          17.9162   70.8436   -5.3581 C.3     1  UNL1        0.2383
     13 H          16.7952   69.7108   -2.2968 H       1  UNL1        0.2105
     14 H          17.0946   67.9268   -4.1046 H       1  UNL1        0.2106
     15 O          15.9542   70.4873   -7.3582 O.2     1  UNL1       -0.2464
     16 O          19.1213   70.3969  -10.7056 O.2     1  UNL1       -0.2670
     17 N          18.2003   70.7240   -6.7602 N.ar    1  UNL1       -0.2551
     18 N          17.5336   70.4416   -9.0234 N.ar    1  UNL1       -0.2743
     19 C          17.1417   70.5474   -7.6824 C.ar    1  UNL1        0.3323
     20 C          19.5140   70.7835   -7.2092 C.ar    1  UNL1        0.0869
     21 C          19.8719   70.6811   -8.4907 C.ar    1  UNL1        0.0795
     22 C          18.8266   70.4941   -9.5182 C.ar    1  UNL1        0.2626
     23 H          16.8142   70.3161   -9.6838 H       1  UNL1        0.1734
     24 O          22.2289   73.6398   -3.0865 O.3     1  UNL1       -0.2703
     25 P          23.0157   74.4952   -1.9627 P.3     1  UNL1        0.2208
     26 O          22.2683   75.9306   -2.0000 O.co2   1  UNL1       -0.4371
     27 O          24.5009   74.5658   -2.1704 O.2     1  UNL1       -0.5170
     28 O          22.5664   73.8385   -0.5594 O.3     1  UNL1       -0.2858
     29 O          23.6129   73.6282    1.5548 O.3     1  UNL1       -0.3226
     30 O          21.6610   70.0026    1.2185 O.3     1  UNL1       -0.3794
     31 O          23.0589   71.1502   -1.0757 O.3     1  UNL1       -0.3775
     32 O          20.5999   72.0751    2.9590 O.3     1  UNL1       -0.3792
     33 C          21.8543   71.4023    1.0151 C.3     1  UNL1        0.1718
     34 C          23.1626   71.6337    0.2586 C.3     1  UNL1        0.1968
     35 C          21.9068   72.0768    2.3878 C.3     1  UNL1        0.1723
     36 C          23.5186   73.1205    0.2233 C.3     1  UNL1        0.2706
     37 C          22.3907   73.5201    2.2812 C.3     1  UNL1        0.1830
     38 H          21.6245   69.5529    0.3596 H       1  UNL1        0.2105
     39 H          22.8329   70.2073   -1.0608 H       1  UNL1        0.2106
     40 H          20.2802   71.1623    3.0323 H       1  UNL1        0.2106
     41 O          22.0892   75.2171    3.8719 O.co2   1  UNL1       -0.5466
     42 O          23.5326   73.5349    4.4065 O.co2   1  UNL1       -0.5466
     43 C          22.7515   74.0594    3.6270 C.2     1  UNL1        0.0799
@<TRIPOS>UNITY_ATOM_ATTR
2 1
charge -1
26 1
charge -1
41 1
charge -1
@<TRIPOS>BOND
     1     1     4    1
     2     1    24    1
     3     1     2    1
     4     1     3    2
     5    25    28    1
     6    25    24    1
     7    25    26    1
     8    25    27    2
     9     6    11    1
    10     6    12    1
    11    29    36    1
    12    29    37    1
    13     7     9    1
    14     7    13    1
    15     8    10    1
    16     8    14    1
    17     4     5    1
    18    28    36    1
    19    30    33    1
    20    30    38    1
    21    31    34    1
    22    31    39    1
    23    32    35    1
    24    32    40    1
    25    41    43   ar
    26    15    19    2
    27    42    43   ar
    28    16    22    2
    29    17    12    1
    30    17    19   ar
    31    17    20   ar
    32    18    19   ar
    33    18    22   ar
    34    18    23    1
    35     9    10    1
    36     9    11    1
    37    10    12    1
    38    11     5    1
    39    33    34    1
    40    33    35    1
    41    34    36    1
    42    35    37    1
    43    37    43    1
    44    20    21   ar
    45    21    22   ar
@<TRIPOS>MOLECULE
*****
 43 45 0 0 0
SMALL
GASTEIGER

@<TRIPOS>ATOM
      1 P          22.7143   73.1085   -4.0148 P.3     1  UNL1        0.2189
      2 O          24.1656   72.5074   -4.4035 O.co2   1  UNL1       -0.4371
      3 O          22.6723   74.5980   -3.8372 O.2     1  UNL1       -0.5170
      4 O          22.2633   72.2348   -2.7299 O.3     1  UNL1       -0.3112
      5 C          21.3858   71.1418   -2.9297 C.3     1  UNL1        0.1811
      6 O          20.6852   70.5999   -0.6952 O.3     1  UNL1       -0.3308
      7 O          18.5347   72.6557   -1.0703 O.3     1  UNL1       -0.3794
      8 O          20.3862   73.9949    0.4179 O.3     1  UNL1       -0.3779
      9 C          19.8799   72.6576   -1.5487 C.3     1  UNL1        0.1713
     10 C          20.8394   72.9474   -0.4139 C.3     1  UNL1        0.1895
     11 C          20.2484   71.2277   -1.9201 C.3     1  UNL1        0.1764
     12 C          20.8906   71.6102    0.3051 C.3     1  UNL1        0.2383
     13 H          18.2766   73.5588   -0.8266 H       1  UNL1        0.2105
     14 H          20.3717   74.8245   -0.0857 H       1  UNL1        0.2106
     15 O          21.3626   71.9626    3.0673 O.2     1  UNL1       -0.2464
     16 O          25.7774   70.7027    2.6597 O.2     1  UNL1       -0.2670
     17 N          22.1540   71.3814    0.9473 N.ar    1  UNL1       -0.2551
     18 N          23.5612   71.3358    2.8615 N.ar    1  UNL1       -0.2743
     19 C          22.2851   71.5882    2.3409 C.ar    1  UNL1        0.3323
     20 C          23.2451   70.9556    0.1996 C.ar    1  UNL1        0.0869
     21 C          24.4552   70.7191    0.7099 C.ar    1  UNL1        0.0795
     22 C          24.6770   70.9119    2.1580 C.ar    1  UNL1        0.2626
     23 H          23.6775   71.4748    3.8292 H       1  UNL1        0.1734
     24 O          21.7606   72.5436   -5.1913 O.3     1  UNL1       -0.2703
     25 P          20.9781   73.3074   -6.3821 P.3     1  UNL1        0.2208
     26 O          21.9329   73.0656   -7.6667 O.co2   1  UNL1       -0.4371
     27 O          20.6797   74.7507   -6.0963 O.2     1  UNL1       -0.5170
     28 O          19.6762   72.3979   -6.6656 O.3     1  UNL1       -0.2858
     29 O          19.0903   70.2387   -5.8886 O.3     1  UNL1       -0.3226
     30 O          17.4539   70.2399   -9.6821 O.3     1  UNL1       -0.3794
     31 O          20.1072   71.3691   -9.2135 O.3     1  UNL1       -0.3775
     32 O          15.7414   70.5542   -7.3542 O.3     1  UNL1       -0.3792
     33 C          17.8745   70.8130   -8.4441 C.3     1  UNL1        0.1718
     34 C          19.3777   70.5987   -8.2654 C.3     1  UNL1        0.1968
     35 C          17.1010   70.1245   -7.3173 C.3     1  UNL1        0.1723
     36 C          19.8226   70.9919   -6.8560 C.3     1  UNL1        0.2706
     37 C          17.6844   70.4687   -5.9500 C.3     1  UNL1        0.1830
     38 H          17.9323   70.6619  -10.4131 H       1  UNL1        0.2105
     39 H          19.8297   71.1250  -10.1100 H       1  UNL1        0.2106
     40 H          15.3583   70.3411   -8.2194 H       1  UNL1        0.2106
     41 O          17.5318   69.9635   -3.6646 O.co2   1  UNL1       -0.5466
     42 O          16.4572   68.5678   -5.1123 O.co2   1  UNL1       -0.5466
     43 C          17.1484   69.5524   -4.8986 C.2     1  UNL1        0.0799
@<TRIPOS>UNITY_ATOM_ATTR
2 1
charge -1
26 1
charge -1
41 1
charge -1
@<TRIPOS>BOND
     1     1     4    1
     2     1    24    1
     3     1     2    1
     4     1     3    2
     5    25    28    1
     6    25    24    1
     7    25    26    1
     8    25    27    2
     9     6    11    1
    10     6    12    1
    11    29    36    1
    12    29    37    1
    13     7     9    1
    14     7    13    1
    15     8    10    1
    16     8    14    1
    17     4     5    1
    18    28    36    1
    19    30    33    1
    20    30    38    1
    21    31    34    1
    22    31    39    1
    23    32    35    1
    24    32    40    1
    25    41    43   ar
    26    15    19    2
    27    42    43   ar
    28    16    22    2
    29    17    12    1
    30    17    19   ar
    31    17    20   ar
    32    18    19   ar
    33    18    22   ar
    34    18    23    1
    35     9    10    1
    36     9    11    1
    37    10    12    1
    38    11     5    1
    39    33    34    1
    40    33    35    1
    41    34    36    1
    42    35    37    1
    43    37    43    1
    44    20    21   ar
    45    21    22   ar
@<TRIPOS>MOLECULE
*****
 43 45 0 0 0
SMALL
GASTEIGER

@<TRIPOS>ATOM
      1 P          21.9352   72.3768   -5.8452 P.3     1  UNL1        0.2189
      2 O          21.1517   73.7091   -5.3657 O.co2   1  UNL1       -0.4371
      3 O          23.1259   72.6238   -6.7245 O.2     1  UNL1       -0.5170
      4 O          20.7719   71.4499   -6.4819 O.3     1  UNL1       -0.3112
      5 C          20.1803   71.8515   -7.7039 C.3     1  UNL1        0.1811
      6 O          18.9091   69.8614   -7.2553 O.3     1  UNL1       -0.3308
      7 O          18.0465   69.9896  -10.1243 O.3     1  UNL1       -0.3794
      8 O          15.8882   71.0106   -8.8069 O.3     1  UNL1       -0.3779
      9 C          18.2866   71.0548   -9.2044 C.3     1  UNL1        0.1713
     10 C          17.1566   71.1453   -8.2008 C.3     1  UNL1        0.1895
     11 C          19.4639   70.6587   -8.3239 C.3     1  UNL1        0.1764
     12 C          17.4792   69.9982   -7.2584 C.3     1  UNL1        0.2383
     13 H          17.2983   70.2197  -10.6978 H       1  UNL1        0.2105
     14 H          15.7300   71.7649   -9.3968 H       1  UNL1        0.2106
     15 O          16.2082   68.0820   -5.6187 O.2     1  UNL1       -0.2464
     16 O          15.8028   71.0676   -2.1307 O.2     1  UNL1       -0.2670
     17 N          17.0312   70.2480   -5.9176 N.ar    1  UNL1       -0.2551
     18 N          16.0066   69.5711   -3.8834 N.ar    1  UNL1       -0.2743
     19 C          16.4039   69.2167   -5.1794 C.ar    1  UNL1        0.3323
     20 C          17.2159   71.5014   -5.3468 C.ar    1  UNL1        0.0869
     21 C          16.8319   71.8242   -4.1102 C.ar    1  UNL1        0.0795
     22 C          16.1680   70.8041   -3.2724 C.ar    1  UNL1        0.2626
     23 H          15.5657   68.8702   -3.3508 H       1  UNL1        0.1734
     24 O          22.2711   71.6316   -4.4507 O.3     1  UNL1       -0.2703
     25 P          23.4128   71.9177   -3.3424 P.3     1  UNL1        0.2208
     26 O          24.2707   73.1237   -3.9981 O.co2   1  UNL1       -0.4371
     27 O          24.2258   70.7117   -2.9703 O.2     1  UNL1       -0.5170
     28 O          22.6259   72.6006   -2.1109 O.3     1  UNL1       -0.2858
     29 O          23.1191   74.3889   -0.6385 O.3     1  UNL1       -0.3226
     30 O          21.2608   71.7041    1.8926 O.3     1  UNL1       -0.3794
     31 O          23.1938   70.7749   -0.0909 O.3     1  UNL1       -0.3775
     32 O          19.8332   74.0586    0.9602 O.3     1  UNL1       -0.3792
     33 C          21.5168   72.3628    0.6523 C.3     1  UNL1        0.1718
     34 C          22.9736   72.1398    0.2455 C.3     1  UNL1        0.1968
     35 C          21.2402   73.8557    0.8437 C.3     1  UNL1        0.1723
     36 C          23.3473   73.0145   -0.9520 C.3     1  UNL1        0.2706
     37 C          21.7548   74.6736   -0.3374 C.3     1  UNL1        0.1830
     38 H          21.4300   70.7538    1.7952 H       1  UNL1        0.2105
     39 H          22.9584   70.2141    0.6644 H       1  UNL1        0.2106
     40 H          19.4930   73.5433    1.7083 H       1  UNL1        0.2106
     41 O          22.5847   76.3604    1.0652 O.co2   1  UNL1       -0.5466
     42 O          21.1697   76.9990   -0.6049 O.co2   1  UNL1       -0.5466
     43 C          21.7817   76.1295   -0.0029 C.2     1  UNL1        0.0799
@<TRIPOS>UNITY_ATOM_ATTR
2 1
charge -1
26 1
charge -1
41 1
charge -1
@<TRIPOS>BOND
     1     1     4    1
     2     1    24    1
     3     1     2    1
     4     1     3    2
     5    25    28    1
     6    25    24    1
     7    25    26    1
     8    25    27    2
     9     6    11    1
    10     6    12    1
    11    29    36    1
    12    29    37    1
    13     7     9    1
    14     7    13    1
    15     8    10    1
    16     8    14    1
    17     4     5    1
    18    28    36    1
    19    30    33    1
    20    30    38    1
    21    31    34    1
    22    31    39    1
    23    32    35    1
    24    32    40    1
    25    41    43   ar
    26    15    19    2
    27    42    43   ar
    28    16    22    2
    29    17    12    1
    30    17    19   ar
    31    17    20   ar
    32    18    19   ar
    33    18    22   ar
    34    18    23    1
    35     9    10    1
    36     9    11    1
    37    10    12    1
    38    11     5    1
    39    33    34    1
    40    33    35    1
    41    34    36    1
    42    35    37    1
    43    37    43    1
    44    20    21   ar
    45    21    22   ar
@<TRIPOS>MOLECULE
*****
 43 45 0 0 0
SMALL
GASTEIGER

@<TRIPOS>ATOM
      1 P          20.1028   72.0670   -1.4731 P.3     1  UNL1        0.2189
      2 O          20.5101   70.6462   -0.8140 O.co2   1  UNL1       -0.4371
      3 O          18.9632   72.7741   -0.8001 O.2     1  UNL1       -0.5170
      4 O          19.8888   71.7216   -3.0393 O.3     1  UNL1       -0.3112
      5 C          19.2266   70.5179   -3.3818 C.3     1  UNL1        0.1811
      6 O          17.5072   71.4527   -4.7774 O.3     1  UNL1       -0.3308
      7 O          15.5670   69.8686   -3.1288 O.3     1  UNL1       -0.3794
      8 O          15.8128   68.3513   -5.3812 O.3     1  UNL1       -0.3779
      9 C          16.8893   69.5265   -3.5449 C.3     1  UNL1        0.1713
     10 C          16.9009   69.1749   -5.0175 C.3     1  UNL1        0.1895
     11 C          17.7341   70.7928   -3.5131 C.3     1  UNL1        0.1764
     12 C          16.8403   70.5457   -5.6696 C.3     1  UNL1        0.2383
     13 H          15.0084   69.0752   -3.1411 H       1  UNL1        0.2105
     14 H          15.8974   67.4906   -4.9408 H       1  UNL1        0.2106
     15 O          15.5031   70.5254   -8.1571 O.2     1  UNL1       -0.2464
     16 O          19.4713   70.6630  -10.4978 O.2     1  UNL1       -0.2670
     17 N          17.4995   70.5756   -6.9445 N.ar    1  UNL1       -0.2551
     18 N          17.4808   70.5929   -9.3205 N.ar    1  UNL1       -0.2743
     19 C          16.7348   70.5620   -8.1349 C.ar    1  UNL1        0.3323
     20 C          18.8870   70.6195   -7.0071 C.ar    1  UNL1        0.0869
     21 C          19.5839   70.6488   -8.1447 C.ar    1  UNL1        0.0795
     22 C          18.8610   70.6363   -9.4333 C.ar    1  UNL1        0.2626
     23 H          16.9704   70.5821  -10.1624 H       1  UNL1        0.1734
     24 O          21.4984   72.8826   -1.4683 O.3     1  UNL1       -0.2703
     25 P          22.8990   72.5853   -0.7177 P.3     1  UNL1        0.2208
     26 O          23.9142   73.6494   -1.3939 O.co2   1  UNL1       -0.4371
     27 O          23.3528   71.1568   -0.8039 O.2     1  UNL1       -0.5170
     28 O          22.6812   73.1290    0.7855 O.3     1  UNL1       -0.2858
     29 O          24.0272   74.6051    2.0577 O.3     1  UNL1       -0.3226
     30 O          22.4152   72.1918    4.9981 O.3     1  UNL1       -0.3794
     31 O          23.3602   71.0361    2.4870 O.3     1  UNL1       -0.3775
     32 O          21.4070   74.8907    4.6102 O.3     1  UNL1       -0.3792
     33 C          22.4391   72.8896    3.7529 C.3     1  UNL1        0.1718
     34 C          23.6002   72.3762    2.9008 C.3     1  UNL1        0.1968
     35 C          22.6152   74.3805    4.0495 C.3     1  UNL1        0.1723
     36 C          23.7992   73.2517    1.6628 C.3     1  UNL1        0.2706
     37 C          22.9346   75.1669    2.7814 C.3     1  UNL1        0.1830
     38 H          22.3042   71.2420    4.8346 H       1  UNL1        0.2105
     39 H          23.2327   70.4750    3.2675 H       1  UNL1        0.2106
     40 H          21.1923   74.3986    5.4180 H       1  UNL1        0.2106
     41 O          24.5000   76.8614    2.3573 O.co2   1  UNL1       -0.5466
     42 O          22.9276   77.2744    3.9561 O.co2   1  UNL1       -0.5466
     43 C          23.4240   76.5382    3.1167 C.2     1  UNL1        0.0799
@<TRIPOS>UNITY_ATOM_ATTR
2 1
charge -1
26 1
charge -1
41 1
charge -1
@<TRIPOS>BOND
     1     1     4    1
     2     1    24    1
     3     1     2    1
     4     1     3    2
     5    25    28    1
     6    25    24    1
     7    25    26    1
     8    25    27    2
     9     6    11    1
    10     6    12    1
    11    29    36    1
    12    29    37    1
    13     7     9    1
    14     7    13    1
    15     8    10    1
    16     8    14    1
    17     4     5    1
    18    28    36    1
    19    30    33    1
    20    30    38    1
    21    31    34    1
    22    31    39    1
    23    32    35    1
    24    32    40    1
    25    41    43   ar
    26    15    19    2
    27    42    43   ar
    28    16    22    2
    29    17    12    1
    30    17    19   ar
    31    17    20   ar
    32    18    19   ar
    33    18    22   ar
    34    18    23    1
    35     9    10    1
    36     9    11    1
    37    10    12    1
    38    11     5    1
    39    33    34    1
    40    33    35    1
    41    34    36    1
    42    35    37    1
    43    37    43    1
    44    20    21   ar
    45    21    22   ar
@<TRIPOS>MOLECULE
*****
 43 45 0 0 0
SMALL
GASTEIGER

@<TRIPOS>ATOM
      1 P          23.2811   72.1077   -3.2053 P.3     1  UNL1        0.2189
      2 O          24.2815   72.5757   -4.3882 O.co2   1  UNL1       -0.4371
      3 O          23.8390   71.0681   -2.2780 O.2     1  UNL1       -0.5170
      4 O          21.9232   71.6984   -3.9842 O.3     1  UNL1       -0.3112
      5 C          21.4524   72.5479   -5.0143 C.3     1  UNL1        0.1811
      6 O          20.5365   70.5356   -5.9574 O.3     1  UNL1       -0.3308
      7 O          20.7952   71.8877   -8.6213 O.3     1  UNL1       -0.3794
      8 O          18.1435   72.1833   -8.0581 O.3     1  UNL1       -0.3779
      9 C          20.4553   72.4479   -7.3528 C.3     1  UNL1        0.1713
     10 C          19.0402   72.0662   -6.9733 C.3     1  UNL1        0.1895
     11 C          21.2749   71.7317   -6.2881 C.3     1  UNL1        0.1764
     12 C          19.2144   70.6295   -6.5110 C.3     1  UNL1        0.2383
     13 H          20.2839   72.3295   -9.3177 H       1  UNL1        0.2105
     14 H          18.0667   73.1161   -8.3148 H       1  UNL1        0.2106
     15 O          16.5842   69.7557   -7.0544 O.2     1  UNL1       -0.2464
     16 O          15.6380   69.2300   -2.5742 O.2     1  UNL1       -0.2670
     17 N          18.2596   70.2579   -5.5054 N.ar    1  UNL1       -0.2551
     18 N          16.1151   69.4957   -4.8225 N.ar    1  UNL1       -0.2743
     19 C          16.9644   69.8329   -5.8846 C.ar    1  UNL1        0.3323
     20 C          18.6097   70.3148   -4.1619 C.ar    1  UNL1        0.0869
     21 C          17.7893   69.9901   -3.1607 C.ar    1  UNL1        0.0795
     22 C          16.4176   69.5367   -3.4711 C.ar    1  UNL1        0.2626
     23 H          15.2074   69.1988   -5.0616 H       1  UNL1        0.1734
     24 O          22.8845   73.5030   -2.4922 O.3     1  UNL1       -0.2703
     25 P          23.8036   74.6478   -1.8152 P.3     1  UNL1        0.2208
     26 O          22.7246   75.7615   -1.3505 O.co2   1  UNL1       -0.4371
     27 O          24.8895   75.1738   -2.7084 O.2     1  UNL1       -0.5170
     28 O          24.3286   73.9904   -0.4388 O.3     1  UNL1       -0.2858
     29 O          22.5908   73.4438    1.0746 O.3     1  UNL1       -0.3226
     30 O          25.9527   72.8097    3.3905 O.3     1  UNL1       -0.3794
     31 O          25.7806   75.1396    1.6366 O.3     1  UNL1       -0.3775
     32 O          24.4853   70.5500    2.2990 O.3     1  UNL1       -0.3792
     33 C          25.1899   72.8512    2.1846 C.3     1  UNL1        0.1718
     34 C          24.6918   74.2763    1.9429 C.3     1  UNL1        0.1968
     35 C          24.0068   71.8930    2.3401 C.3     1  UNL1        0.1723
     36 C          23.6854   74.3163    0.7920 C.3     1  UNL1        0.2706
     37 C          22.9863   72.0817    1.2214 C.3     1  UNL1        0.1830
     38 H          26.7102   73.4111    3.3150 H       1  UNL1        0.2105
     39 H          26.4232   75.1189    2.3626 H       1  UNL1        0.2106
     40 H          25.1358   70.4167    3.0060 H       1  UNL1        0.2106
     41 O          21.6993   70.1268    1.0690 O.co2   1  UNL1       -0.5466
     42 O          20.7783   71.8946    2.1761 O.co2   1  UNL1       -0.5466
     43 C          21.7023   71.3935    1.5531 C.2     1  UNL1        0.0799
@<TRIPOS>UNITY_ATOM_ATTR
2 1
charge -1
26 1
charge -1
41 1
charge -1
@<TRIPOS>BOND
     1     1     4    1
     2     1    24    1
     3     1     2    1
     4     1     3    2
     5    25    28    1
     6    25    24    1
     7    25    26    1
     8    25    27    2
     9     6    11    1
    10     6    12    1
    11    29    36    1
    12    29    37    1
    13     7     9    1
    14     7    13    1
    15     8    10    1
    16     8    14    1
    17     4     5    1
    18    28    36    1
    19    30    33    1
    20    30    38    1
    21    31    34    1
    22    31    39    1
    23    32    35    1
    24    32    40    1
    25    41    43   ar
    26    15    19    2
    27    42    43   ar
    28    16    22    2
    29    17    12    1
    30    17    19   ar
    31    17    20   ar
    32    18    19   ar
    33    18    22   ar
    34    18    23    1
    35     9    10    1
    36     9    11    1
    37    10    12    1
    38    11     5    1
    39    33    34    1
    40    33    35    1
    41    34    36    1
    42    35    37    1
    43    37    43    1
    44    20    21   ar
    45    21    22   ar
@<TRIPOS>MOLECULE
*****
 43 45 0 0 0
SMALL
GASTEIGER

@<TRIPOS>ATOM
      1 P          21.7797   71.2698    0.0426 P.3     1  UNL1        0.2189
      2 O          20.4326   72.0109   -0.4622 O.co2   1  UNL1       -0.4371
      3 O          21.5548   69.9998    0.8096 O.2     1  UNL1       -0.5170
      4 O          22.5908   72.4298    0.8266 O.3     1  UNL1       -0.3112
      5 C          21.8553   73.4730    1.4393 C.3     1  UNL1        0.1811
      6 O          22.2116   72.5590    3.6337 O.3     1  UNL1       -0.3308
      7 O          19.3528   73.2712    4.1916 O.3     1  UNL1       -0.3794
      8 O          20.7189   75.2948    5.4061 O.3     1  UNL1       -0.3779
      9 C          20.3213   73.9683    3.4075 C.3     1  UNL1        0.1713
     10 C          21.3293   74.6524    4.3064 C.3     1  UNL1        0.1895
     11 C          21.1810   72.9337    2.6942 C.3     1  UNL1        0.1764
     12 C          22.2166   73.4926    4.7254 C.3     1  UNL1        0.2383
     13 H          18.7915   73.9116    4.6569 H       1  UNL1        0.2105
     14 H          20.1652   76.0253    5.0873 H       1  UNL1        0.2106
     15 O          23.1762   74.3266    7.2473 O.2     1  UNL1       -0.2464
     16 O          27.4209   75.0414    5.5994 O.2     1  UNL1       -0.2670
     17 N          23.5681   73.9020    4.9835 N.ar    1  UNL1       -0.2551
     18 N          25.2891   74.6828    6.4239 N.ar    1  UNL1       -0.2743
     19 C          23.9475   74.3030    6.2864 C.ar    1  UNL1        0.3323
     20 C          24.5014   73.9022    3.9540 C.ar    1  UNL1        0.0869
     21 C          25.7767   74.2668    4.1005 C.ar    1  UNL1        0.0795
     22 C          26.2542   74.7002    5.4300 C.ar    1  UNL1        0.2626
     23 H          25.5763   74.9678    7.3215 H       1  UNL1        0.1734
     24 O          22.6286   71.0913   -1.3213 O.3     1  UNL1       -0.2703
     25 P          23.0104   72.1516   -2.4804 P.3     1  UNL1        0.2208
     26 O          24.1603   71.3826   -3.3211 O.co2   1  UNL1       -0.4371
     27 O          23.4176   73.5031   -1.9689 O.2     1  UNL1       -0.5170
     28 O          21.7294   72.1651   -3.4610 O.3     1  UNL1       -0.2858
     29 O          20.3939   70.5095   -4.5024 O.3     1  UNL1       -0.3226
     30 O          20.7608   73.3118   -7.5158 O.3     1  UNL1       -0.3794
     31 O          23.0630   72.6060   -5.8616 O.3     1  UNL1       -0.3775
     32 O          18.2754   73.0898   -6.0243 O.3     1  UNL1       -0.3792
     33 C          20.6689   72.8529   -6.1671 C.3     1  UNL1        0.1718
     34 C          21.8274   71.9003   -5.8706 C.3     1  UNL1        0.1968
     35 C          19.3301   72.1297   -6.0039 C.3     1  UNL1        0.1723
     36 C          21.6372   71.2120   -4.5182 C.3     1  UNL1        0.2706
     37 C          19.2675   71.3644   -4.6852 C.3     1  UNL1        0.1830
     38 H          21.6039   73.7747   -7.6433 H       1  UNL1        0.2105
     39 H          23.1900   73.0455   -6.7167 H       1  UNL1        0.2106
     40 H          18.3041   73.5840   -6.8585 H       1  UNL1        0.2106
     41 O          17.1536   70.8175   -5.5419 O.co2   1  UNL1       -0.5466
     42 O          18.0488   69.3988   -3.9976 O.co2   1  UNL1       -0.5466
     43 C          18.1178   70.4102   -4.6798 C.2     1  UNL1        0.0799
@<TRIPOS>UNITY_ATOM_ATTR
2 1
charge -1
26 1
charge -1
41 1
charge -1
@<TRIPOS>BOND
     1     1     4    1
     2     1    24    1
     3     1     2    1
     4     1     3    2
     5    25    28    1
     6    25    24    1
     7    25    26    1
     8    25    27    2
     9     6    11    1
    10     6    12    1
    11    29    36    1
    12    29    37    1
    13     7     9    1
    14     7    13    1
    15     8    10    1
    16     8    14    1
    17     4     5    1
    18    28    36    1
    19    30    33    1
    20    30    38    1
    21    31    34    1
    22    31    39    1
    23    32    35    1
    24    32    40    1
    25    41    43   ar
    26    15    19    2
    27    42    43   ar
    28    16    22    2
    29    17    12    1
    30    17    19   ar
    31    17    20   ar
    32    18    19   ar
    33    18    22   ar
    34    18    23    1
    35     9    10    1
    36     9    11    1
    37    10    12    1
    38    11     5    1
    39    33    34    1
    40    33    35    1
    41    34    36    1
    42    35    37    1
    43    37    43    1
    44    20    21   ar
    45    21    22   ar
@<TRIPOS>MOLECULE
*****
 43 45 0 0 0
SMALL
GASTEIGER

@<TRIPOS>ATOM
      1 P          22.7217   71.4530   -2.7941 P.3     1  UNL1        0.2189
      2 O          22.7030   73.0486   -2.5247 O.co2   1  UNL1       -0.4371
      3 O          24.0775   70.8733   -3.0726 O.2     1  UNL1       -0.5170
      4 O          21.6153   71.2421   -3.9557 O.3     1  UNL1       -0.3112
      5 C          20.4950   70.4210   -3.6813 C.3     1  UNL1        0.1811
      6 O          19.0655   71.9928   -4.8054 O.3     1  UNL1       -0.3308
      7 O          17.0315   71.3713   -2.6915 O.3     1  UNL1       -0.3794
      8 O          16.1600   69.8923   -4.8102 O.3     1  UNL1       -0.3779
      9 C          17.9785   70.5049   -3.3170 C.3     1  UNL1        0.1713
     10 C          17.5400   70.1816   -4.7295 C.3     1  UNL1        0.1895
     11 C          19.2563   71.2983   -3.5537 C.3     1  UNL1        0.1764
     12 C          17.9159   71.4509   -5.4748 C.3     1  UNL1        0.2383
     13 H          16.2066   70.8865   -2.5302 H       1  UNL1        0.2105
     14 H          15.9717   69.0757   -4.3207 H       1  UNL1        0.2106
     15 O          16.4801   72.4808   -7.6780 O.2     1  UNL1       -0.2464
     16 O          19.2886   70.4275  -10.7013 O.2     1  UNL1       -0.2670
     17 N          18.2501   71.2012   -6.8484 N.ar    1  UNL1       -0.2551
     18 N          17.8797   71.4564   -9.1817 N.ar    1  UNL1       -0.2743
     19 C          17.4636   71.7661   -7.8801 C.ar    1  UNL1        0.3323
     20 C          19.3462   70.4069   -7.1622 C.ar    1  UNL1        0.0869
     21 C          19.7305   70.1206   -8.4077 C.ar    1  UNL1        0.0795
     22 C          18.9620   70.6708   -9.5435 C.ar    1  UNL1        0.2626
     23 H          17.3464   71.8366   -9.9167 H       1  UNL1        0.1734
     24 O          21.9902   70.8550   -1.4826 O.3     1  UNL1       -0.2703
     25 P          22.2677   71.0984    0.0914 P.3     1  UNL1        0.2208
     26 O          23.8628   71.3679    0.1484 O.co2   1  UNL1       -0.4371
     27 O          21.7968   69.9832    0.9794 O.2     1  UNL1       -0.5170
     28 O          21.6009   72.5329    0.4075 O.3     1  UNL1       -0.2858
     29 O          20.9821   72.6125    2.6922 O.3     1  UNL1       -0.3226
     30 O          19.6711   76.2887    1.3377 O.3     1  UNL1       -0.3794
     31 O          19.2692   73.8867   -0.2758 O.3     1  UNL1       -0.3775
     32 O          22.0934   76.1009    2.9340 O.3     1  UNL1       -0.3792
     33 C          20.5216   75.1429    1.3794 C.3     1  UNL1        0.1718
     34 C          19.7031   73.8869    1.0793 C.3     1  UNL1        0.1968
     35 C          21.1324   75.0581    2.7800 C.3     1  UNL1        0.1723
     36 C          20.5247   72.6234    1.3394 C.3     1  UNL1        0.2706
     37 C          21.8267   73.7180    3.0048 C.3     1  UNL1        0.1830
     38 H          19.2715   76.3631    0.4567 H       1  UNL1        0.2105
     39 H          18.7475   74.6858   -0.4479 H       1  UNL1        0.2106
     40 H          21.6643   76.9594    2.7933 H       1  UNL1        0.2106
     41 O          22.6266   72.2701    4.6677 O.co2   1  UNL1       -0.5466
     42 O          21.9498   74.3438    5.3317 O.co2   1  UNL1       -0.5466
     43 C          22.1261   73.5122    4.4540 C.2     1  UNL1        0.0799
@<TRIPOS>UNITY_ATOM_ATTR
2 1
charge -1
26 1
charge -1
41 1
charge -1
@<TRIPOS>BOND
     1     1     4    1
     2     1    24    1
     3     1     2    1
     4     1     3    2
     5    25    28    1
     6    25    24    1
     7    25    26    1
     8    25    27    2
     9     6    11    1
    10     6    12    1
    11    29    36    1
    12    29    37    1
    13     7     9    1
    14     7    13    1
    15     8    10    1
    16     8    14    1
    17     4     5    1
    18    28    36    1
    19    30    33    1
    20    30    38    1
    21    31    34    1
    22    31    39    1
    23    32    35    1
    24    32    40    1
    25    41    43   ar
    26    15    19    2
    27    42    43   ar
    28    16    22    2
    29    17    12    1
    30    17    19   ar
    31    17    20   ar
    32    18    19   ar
    33    18    22   ar
    34    18    23    1
    35     9    10    1
    36     9    11    1
    37    10    12    1
    38    11     5    1
    39    33    34    1
    40    33    35    1
    41    34    36    1
    42    35    37    1
    43    37    43    1
    44    20    21   ar
    45    21    22   ar
@<TRIPOS>MOLECULE
*****
 43 45 0 0 0
SMALL
GASTEIGER

@<TRIPOS>ATOM
      1 P          21.8522   72.4738   -5.6967 P.3     1  UNL1        0.2189
      2 O          21.1444   73.8985   -5.4001 O.co2   1  UNL1       -0.4371
      3 O          23.1128   72.5491   -6.5072 O.2     1  UNL1       -0.5170
      4 O          20.6644   71.5737   -6.3268 O.3     1  UNL1       -0.3112
      5 C          20.1300   71.9439   -7.5845 C.3     1  UNL1        0.1811
      6 O          18.8943   69.9264   -7.1600 O.3     1  UNL1       -0.3308
      7 O          18.1195   70.0125  -10.0555 O.3     1  UNL1       -0.3794
      8 O          15.8966   70.9895   -8.8145 O.3     1  UNL1       -0.3779
      9 C          18.3045   71.0899   -9.1371 C.3     1  UNL1        0.1713
     10 C          17.1416   71.1598   -8.1701 C.3     1  UNL1        0.1895
     11 C          19.4628   70.7294   -8.2170 C.3     1  UNL1        0.1764
     12 C          17.4623   70.0279   -7.2089 C.3     1  UNL1        0.2383
     13 H          17.3844   70.2199  -10.6540 H       1  UNL1        0.2105
     14 H          15.7386   71.7354   -9.4150 H       1  UNL1        0.2106
     15 O          16.2990   68.0629   -5.5470 O.2     1  UNL1       -0.2464
     16 O          15.5940   71.0943   -2.1473 O.2     1  UNL1       -0.2670
     17 N          16.9664   70.2763   -5.8848 N.ar    1  UNL1       -0.2551
     18 N          15.9481   69.5748   -3.8557 N.ar    1  UNL1       -0.2743
     19 C          16.4002   69.2195   -5.1334 C.ar    1  UNL1        0.3323
     20 C          17.0447   71.5535   -5.3431 C.ar    1  UNL1        0.0869
     21 C          16.6096   71.8769   -4.1237 C.ar    1  UNL1        0.0795
     22 C          16.0038   70.8309   -3.2738 C.ar    1  UNL1        0.2626
     23 H          15.5481   68.8562   -3.3144 H       1  UNL1        0.1734
     24 O          22.0385   71.8464   -4.2187 O.3     1  UNL1       -0.2703
     25 P          23.2299   72.0107   -3.1383 P.3     1  UNL1        0.2208
     26 O          23.8926   73.4341   -3.5322 O.co2   1  UNL1       -0.4371
     27 O          24.1985   70.8640   -3.1107 O.2     1  UNL1       -0.5170
     28 O          22.4775   72.2854   -1.7380 O.3     1  UNL1       -0.2858
     29 O          23.1080   70.6891   -0.1060 O.3     1  UNL1       -0.3226
     30 O          20.1975   72.8324    1.8949 O.3     1  UNL1       -0.3794
     31 O          19.8298   72.0950   -0.9079 O.3     1  UNL1       -0.3775
     32 O          23.0056   73.2468    2.5227 O.3     1  UNL1       -0.3792
     33 C          21.2672   72.6365    0.9700 C.3     1  UNL1        0.1718
     34 C          20.8611   71.5898   -0.0678 C.3     1  UNL1        0.1968
     35 C          22.4906   72.1598    1.7561 C.3     1  UNL1        0.1723
     36 C          22.0554   71.1857   -0.9335 C.3     1  UNL1        0.2706
     37 C          23.5895   71.6559    0.8249 C.3     1  UNL1        0.1830
     38 H          19.4089   73.1356    1.4179 H       1  UNL1        0.2105
     39 H          19.0689   72.3537   -0.3651 H       1  UNL1        0.2106
     40 H          22.3159   73.5769    3.1195 H       1  UNL1        0.2106
     41 O          24.2074   70.6592    2.8562 O.co2   1  UNL1       -0.5466
     42 O          25.7046   70.5387    1.1407 O.co2   1  UNL1       -0.5466
     43 C          24.6264   70.8986    1.5889 C.2     1  UNL1        0.0799
@<TRIPOS>UNITY_ATOM_ATTR
2 1
charge -1
26 1
charge -1
41 1
charge -1
@<TRIPOS>BOND
     1     1     4    1
     2     1    24    1
     3     1     2    1
     4     1     3    2
     5    25    28    1
     6    25    24    1
     7    25    26    1
     8    25    27    2
     9     6    11    1
    10     6    12    1
    11    29    36    1
    12    29    37    1
    13     7     9    1
    14     7    13    1
    15     8    10    1
    16     8    14    1
    17     4     5    1
    18    28    36    1
    19    30    33    1
    20    30    38    1
    21    31    34    1
    22    31    39    1
    23    32    35    1
    24    32    40    1
    25    41    43   ar
    26    15    19    2
    27    42    43   ar
    28    16    22    2
    29    17    12    1
    30    17    19   ar
    31    17    20   ar
    32    18    19   ar
    33    18    22   ar
    34    18    23    1
    35     9    10    1
    36     9    11    1
    37    10    12    1
    38    11     5    1
    39    33    34    1
    40    33    35    1
    41    34    36    1
    42    35    37    1
    43    37    43    1
    44    20    21   ar
    45    21    22   ar
@<TRIPOS>MOLECULE
*****
 43 45 0 0 0
SMALL
GASTEIGER

@<TRIPOS>ATOM
      1 P          23.4559   72.2923   -3.5370 P.3     1  UNL1        0.2189
      2 O          24.1002   70.8352   -3.2533 O.co2   1  UNL1       -0.4371
      3 O          24.4308   73.3387   -3.9914 O.2     1  UNL1       -0.5170
      4 O          22.6454   72.6300   -2.1779 O.3     1  UNL1       -0.3112
      5 C          23.3720   72.7441   -0.9681 C.3     1  UNL1        0.1811
      6 O          24.3888   71.2532    0.6196 O.3     1  UNL1       -0.3308
      7 O          21.6233   70.2152    1.1354 O.3     1  UNL1       -0.3794
      8 O          22.0392   71.8811    3.2539 O.3     1  UNL1       -0.3779
      9 C          22.0492   71.5468    0.8455 C.3     1  UNL1        0.1713
     10 C          22.7313   72.1536    2.0533 C.3     1  UNL1        0.1895
     11 C          23.1911   71.4666   -0.1584 C.3     1  UNL1        0.1764
     12 C          24.1003   71.4968    2.0055 C.3     1  UNL1        0.2383
     13 H          20.8940   70.2407    1.7750 H       1  UNL1        0.2105
     14 H          21.1744   72.3213    3.2355 H       1  UNL1        0.2106
     15 O          26.7904   70.7047    2.3411 O.2     1  UNL1       -0.2464
     16 O          27.9603   74.7880    4.1304 O.2     1  UNL1       -0.2670
     17 N          25.1288   72.3330    2.5566 N.ar    1  UNL1       -0.2551
     18 N          27.3703   72.7388    3.2329 N.ar    1  UNL1       -0.2743
     19 C          26.4487   71.8387    2.6822 C.ar    1  UNL1        0.3323
     20 C          24.8268   73.6267    2.9640 C.ar    1  UNL1        0.0869
     21 C          25.7160   74.4731    3.4870 C.ar    1  UNL1        0.0795
     22 C          27.1172   74.0345    3.6533 C.ar    1  UNL1        0.2626
     23 H          28.2953   72.4166    3.3322 H       1  UNL1        0.1734
     24 O          22.2756   71.9679   -4.5928 O.3     1  UNL1       -0.2703
     25 P          21.5679   72.8957   -5.7117 P.3     1  UNL1        0.2208
     26 O          22.4643   72.6303   -7.0332 O.co2   1  UNL1       -0.4371
     27 O          21.4474   74.3417   -5.3263 O.2     1  UNL1       -0.5170
     28 O          20.1627   72.1655   -6.0196 O.3     1  UNL1       -0.2858
     29 O          19.4556   69.9847   -5.4252 O.3     1  UNL1       -0.3226
     30 O          17.4134   70.5952   -8.9643 O.3     1  UNL1       -0.3794
     31 O          20.2015   71.4271   -8.7009 O.3     1  UNL1       -0.3775
     32 O          16.0119   70.7641   -6.4230 O.3     1  UNL1       -0.3792
     33 C          18.0247   70.9727   -7.7306 C.3     1  UNL1        0.1718
     34 C          19.5097   70.6103   -7.7634 C.3     1  UNL1        0.1968
     35 C          17.3176   70.2186   -6.6023 C.3     1  UNL1        0.1723
     36 C          20.1464   70.7865   -6.3841 C.3     1  UNL1        0.2706
     37 C          18.0816   70.3398   -5.2869 C.3     1  UNL1        0.1830
     38 H          17.8466   71.0621   -9.6961 H       1  UNL1        0.2105
     39 H          19.8025   71.3204   -9.5783 H       1  UNL1        0.2106
     40 H          15.5151   70.6933   -7.2531 H       1  UNL1        0.2106
     41 O          18.5869   68.9189   -3.4905 O.co2   1  UNL1       -0.5466
     42 O          16.4187   68.9756   -4.1937 O.co2   1  UNL1       -0.5466
     43 C          17.5781   69.3495   -4.2878 C.2     1  UNL1        0.0799
@<TRIPOS>UNITY_ATOM_ATTR
2 1
charge -1
26 1
charge -1
41 1
charge -1
@<TRIPOS>BOND
     1     1     4    1
     2     1    24    1
     3     1     2    1
     4     1     3    2
     5    25    28    1
     6    25    24    1
     7    25    26    1
     8    25    27    2
     9     6    11    1
    10     6    12    1
    11    29    36    1
    12    29    37    1
    13     7     9    1
    14     7    13    1
    15     8    10    1
    16     8    14    1
    17     4     5    1
    18    28    36    1
    19    30    33    1
    20    30    38    1
    21    31    34    1
    22    31    39    1
    23    32    35    1
    24    32    40    1
    25    41    43   ar
    26    15    19    2
    27    42    43   ar
    28    16    22    2
    29    17    12    1
    30    17    19   ar
    31    17    20   ar
    32    18    19   ar
    33    18    22   ar
    34    18    23    1
    35     9    10    1
    36     9    11    1
    37    10    12    1
    38    11     5    1
    39    33    34    1
    40    33    35    1
    41    34    36    1
    42    35    37    1
    43    37    43    1
    44    20    21   ar
    45    21    22   ar
@<TRIPOS>MOLECULE
*****
 43 45 0 0 0
SMALL
GASTEIGER

@<TRIPOS>ATOM
      1 P          22.7469   71.1764    0.2504 P.3     1  UNL1        0.2189
      2 O          21.6655   70.2604    1.0316 O.co2   1  UNL1       -0.4371
      3 O          24.1813   70.8817    0.5778 O.2     1  UNL1       -0.5170
      4 O          22.2564   72.6905    0.5420 O.3     1  UNL1       -0.3112
      5 C          22.4090   73.2105    1.8499 C.3     1  UNL1        0.1811
      6 O          23.0341   75.2547    2.9492 O.3     1  UNL1       -0.3308
      7 O          25.5307   75.1652    1.2907 O.3     1  UNL1       -0.3794
      8 O          26.3879   74.2402    3.7085 O.3     1  UNL1       -0.3779
      9 C          24.7961   74.0903    1.8767 C.3     1  UNL1        0.1713
     10 C          25.0296   74.0495    3.3720 C.3     1  UNL1        0.1895
     11 C          23.3150   74.4339    1.7948 C.3     1  UNL1        0.1764
     12 C          24.1417   75.1811    3.8608 C.3     1  UNL1        0.2383
     13 H          26.4801   74.9685    1.3314 H       1  UNL1        0.2105
     14 H          26.9113   73.4937    3.3757 H       1  UNL1        0.2106
     15 O          22.9404   72.7724    4.7162 O.2     1  UNL1       -0.2464
     16 O          22.2563   74.4107    8.9696 O.2     1  UNL1       -0.2670
     17 N          23.6408   74.9511    5.1864 N.ar    1  UNL1       -0.2551
     18 N          22.5999   73.5910    6.8335 N.ar    1  UNL1       -0.2743
     19 C          23.0551   73.7052    5.5134 C.ar    1  UNL1        0.3323
     20 C          23.7336   75.9516    6.1462 C.ar    1  UNL1        0.0869
     21 C          23.2954   75.8279    7.4006 C.ar    1  UNL1        0.0795
     22 C          22.6696   74.5579    7.8234 C.ar    1  UNL1        0.2626
     23 H          22.1865   72.7334    7.0842 H       1  UNL1        0.1734
     24 O          22.3523   70.9593   -1.3021 O.3     1  UNL1       -0.2703
     25 P          22.9247   71.6463   -2.6489 P.3     1  UNL1        0.2208
     26 O          24.2379   70.7618   -2.9859 O.co2   1  UNL1       -0.4371
     27 O          23.1864   73.1195   -2.5253 O.2     1  UNL1       -0.5170
     28 O          21.8611   71.2491   -3.7949 O.3     1  UNL1       -0.2858
     29 O          20.7585   71.9088   -5.7844 O.3     1  UNL1       -0.3226
     30 O          17.6330   71.8090   -3.0845 O.3     1  UNL1       -0.3794
     31 O          20.2164   72.9374   -2.3181 O.3     1  UNL1       -0.3775
     32 O          17.9440   69.6770   -5.0361 O.3     1  UNL1       -0.3792
     33 C          18.8821   71.4080   -3.6473 C.3     1  UNL1        0.1718
     34 C          19.8471   72.5939   -3.6487 C.3     1  UNL1        0.1968
     35 C          18.6244   70.9299   -5.0781 C.3     1  UNL1        0.1723
     36 C          21.1100   72.2707   -4.4483 C.3     1  UNL1        0.2706
     37 C          19.9290   70.7509   -5.8491 C.3     1  UNL1        0.1830
     38 H          17.7719   72.1169   -2.1750 H       1  UNL1        0.2105
     39 H          19.4198   73.1434   -1.8049 H       1  UNL1        0.2106
     40 H          17.1119   69.7772   -4.5478 H       1  UNL1        0.2106
     41 O          18.3421   70.7487   -7.5763 O.co2   1  UNL1       -0.5466
     42 O          20.5176   70.3980   -8.1622 O.co2   1  UNL1       -0.5466
     43 C          19.6649   70.6088   -7.3128 C.2     1  UNL1        0.0799
@<TRIPOS>UNITY_ATOM_ATTR
2 1
charge -1
26 1
charge -1
41 1
charge -1
@<TRIPOS>BOND
     1     1     4    1
     2     1    24    1
     3     1     2    1
     4     1     3    2
     5    25    28    1
     6    25    24    1
     7    25    26    1
     8    25    27    2
     9     6    11    1
    10     6    12    1
    11    29    36    1
    12    29    37    1
    13     7     9    1
    14     7    13    1
    15     8    10    1
    16     8    14    1
    17     4     5    1
    18    28    36    1
    19    30    33    1
    20    30    38    1
    21    31    34    1
    22    31    39    1
    23    32    35    1
    24    32    40    1
    25    41    43   ar
    26    15    19    2
    27    42    43   ar
    28    16    22    2
    29    17    12    1
    30    17    19   ar
    31    17    20   ar
    32    18    19   ar
    33    18    22   ar
    34    18    23    1
    35     9    10    1
    36     9    11    1
    37    10    12    1
    38    11     5    1
    39    33    34    1
    40    33    35    1
    41    34    36    1
    42    35    37    1
    43    37    43    1
    44    20    21   ar
    45    21    22   ar
