@<TRIPOS>MOLECULE
UDP-glaA
 43 45 0 0 0
SMALL
GASTEIGER

@<TRIPOS>ATOM
      1 P          22.9414   71.6297   -2.4856 P.3     1  UNL1        0.2189
      2 O          23.3450   73.0943   -1.9294 O.3     1  UNL1       -0.4371
      3 O          24.0604   70.8682   -3.1337 O.2     1  UNL1       -0.5170
      4 O          21.6492   71.9091   -3.4172 O.3     1  UNL1       -0.3112
      5 C          20.8350   70.8113   -3.7931 C.3     1  UNL1        0.1811
      6 O          18.8410   71.7458   -4.7548 O.3     1  UNL1       -0.3308
      7 O          17.3595   70.4087   -2.5169 O.3     1  UNL1       -0.3794
      8 O          16.9254   68.7183   -4.6121 O.3     1  UNL1       -0.3779
      9 C          18.5045   69.9563   -3.2393 C.3     1  UNL1        0.1713
     10 C          18.1035   69.4977   -4.6255 C.3     1  UNL1        0.1895
     11 C          19.3763   71.1674   -3.5440 C.3     1  UNL1        0.1764
     12 C          17.9219   70.8181   -5.3546 C.3     1  UNL1        0.2383
     13 H          17.6698   70.7280   -1.6524 H       1  UNL1        0.2105
     14 H          17.0891   67.9502   -4.0380 H       1  UNL1        0.2106
     15 O          16.0358   70.0783   -7.3221 O.2     1  UNL1       -0.2464
     16 O          19.1444   70.4514  -10.7038 O.2     1  UNL1       -0.2670
     17 N          18.2108   70.7144   -6.7564 N.ar    1  UNL1       -0.2551
     18 N          17.5851   70.2640   -9.0047 N.ar    1  UNL1       -0.2743
     19 C          17.1925   70.3341   -7.6615 C.ar    1  UNL1        0.3323
     20 C          19.4921   70.9881   -7.2221 C.ar    1  UNL1        0.0869
     21 C          19.8506   70.9173   -8.5060 C.ar    1  UNL1        0.0795
     22 C          18.8468   70.5264   -9.5156 C.ar    1  UNL1        0.2626
     23 H          16.8695   69.9919   -9.6732 H       1  UNL1        0.1734
     24 O          22.3028   70.9115   -1.1849 O.3     1  UNL1       -0.2703
     25 P          21.4081   71.5065    0.0226 P.3     1  UNL1        0.2208
     26 O          21.4518   70.3298    1.1315 O.3     1  UNL1       -0.4371
     27 O          20.0240   71.9241   -0.3841 O.2     1  UNL1       -0.5170
     28 O          22.3048   72.6924    0.6500 O.3     1  UNL1       -0.2858
     29 O          23.5561   71.8105    2.4545 O.3     1  UNL1       -0.3226
     30 O          24.6798   75.8124    2.4889 O.3     1  UNL1       -0.3794
     31 O          21.9026   75.0573    2.0168 O.3     1  UNL1       -0.3775
     32 O          25.4747   73.4954    3.7654 O.3     1  UNL1       -0.3792
     33 C          24.2795   74.5543    1.9530 C.3     1  UNL1        0.1718
     34 C          22.9001   74.1589    2.4908 C.3     1  UNL1        0.1968
     35 C          25.3165   73.4974    2.3428 C.3     1  UNL1        0.1723
     36 C          22.5364   72.7333    2.0574 C.3     1  UNL1        0.2706
     37 C          24.8344   72.1176    1.9001 C.3     1  UNL1        0.1830
     38 H          25.5568   76.0209    2.1243 H       1  UNL1        0.2105
     39 H          21.0483   74.7623    2.3743 H       1  UNL1        0.2106
     40 H          24.6911   73.0793    4.1628 H       1  UNL1        0.2106
     41 O          25.0639   69.9035    2.6408 O.co2   1  UNL1       -0.5466
     42 O          26.9646   71.1546    2.5037 O.co2   1  UNL1       -0.5466
     43 C          25.7546   71.0382    2.3745 C.2     1  UNL1        0.0799
@<TRIPOS>UNITY_ATOM_ATTR
41 1
charge -1
@<TRIPOS>BOND
     1     1     4    1
     2     1    24    1
     3     1     2    1
     4     1     3    2
     5    25    28    1
     6    25    24    1
     7    25    26    1
     8    25    27    2
     9     6    11    1
    10     6    12    1
    11    29    36    1
    12    29    37    1
    13     7     9    1
    14     7    13    1
    15     8    10    1
    16     8    14    1
    17     4     5    1
    18    28    36    1
    19    30    33    1
    20    30    38    1
    21    31    34    1
    22    31    39    1
    23    32    35    1
    24    32    40    1
    25    41    43   ar
    26    15    19    2
    27    42    43   ar
    28    16    22    2
    29    17    12    1
    30    17    19   ar
    31    17    20   ar
    32    18    19   ar
    33    18    22   ar
    34    18    23    1
    35     9    10    1
    36     9    11    1
    37    10    12    1
    38    11     5    1
    39    33    34    1
    40    33    35    1
    41    34    36    1
    42    35    37    1
    43    37    43    1
    44    20    21   ar
    45    21    22   ar
@<TRIPOS>MOLECULE
UDP-glaA
 43 45 0 0 0
SMALL
GASTEIGER

@<TRIPOS>ATOM
      1 P          22.0744   73.1200   -4.7256 P.3     1  UNL1        0.2189
      2 O          21.9853   74.7351   -4.7592 O.3     1  UNL1       -0.4371
      3 O          22.9790   72.5144   -5.7586 O.2     1  UNL1       -0.5170
      4 O          20.5299   72.6433   -4.7774 O.3     1  UNL1       -0.3112
      5 C          19.5157   73.6060   -4.5453 C.3     1  UNL1        0.1811
      6 O          17.5366   72.5742   -5.4359 O.3     1  UNL1       -0.3308
      7 O          17.2524   71.2458   -2.7627 O.3     1  UNL1       -0.3794
      8 O          18.3207   69.2644   -4.3018 O.3     1  UNL1       -0.3779
      9 C          18.4374   71.5552   -3.4961 C.3     1  UNL1        0.1713
     10 C          18.5976   70.6021   -4.6616 C.3     1  UNL1        0.1895
     11 C          18.2188   72.8873   -4.2014 C.3     1  UNL1        0.1764
     12 C          17.5983   71.1565   -5.6626 C.3     1  UNL1        0.2383
     13 H          17.1712   71.9044   -2.0520 H       1  UNL1        0.2105
     14 H          18.9301   69.0224   -3.5833 H       1  UNL1        0.2106
     15 O          15.8163   70.4816   -7.7469 O.2     1  UNL1       -0.2464
     16 O          19.2273   70.2596  -10.8380 O.2     1  UNL1       -0.2670
     17 N          17.9932   70.9174   -7.0213 N.ar    1  UNL1       -0.2551
     18 N          17.5161   70.3710   -9.2847 N.ar    1  UNL1       -0.2743
     19 C          17.0198   70.5837   -7.9918 C.ar    1  UNL1        0.3323
     20 C          19.3329   71.0142   -7.3810 C.ar    1  UNL1        0.0869
     21 C          19.7902   70.8089   -8.6182 C.ar    1  UNL1        0.0795
     22 C          18.8390   70.4554   -9.6904 C.ar    1  UNL1        0.2626
     23 H          16.8342   70.1293   -9.9986 H       1  UNL1        0.1734
     24 O          22.4983   72.8123   -3.1956 O.3     1  UNL1       -0.2703
     25 P          22.7690   71.4141   -2.4311 P.3     1  UNL1        0.2208
     26 O          24.2118   70.9539   -2.9992 O.3     1  UNL1       -0.4371
     27 O          21.6797   70.3951   -2.6068 O.2     1  UNL1       -0.5170
     28 O          23.0485   71.8336   -0.8982 O.3     1  UNL1       -0.2858
     29 O          24.3678   70.9907    0.8761 O.3     1  UNL1       -0.3226
     30 O          20.8280   71.9812    2.8172 O.3     1  UNL1       -0.3794
     31 O          20.7732   70.7123    0.1918 O.3     1  UNL1       -0.3775
     32 O          23.3633   71.1735    3.5587 O.3     1  UNL1       -0.3792
     33 C          21.8883   72.0716    1.8697 C.3     1  UNL1        0.1718
     34 C          21.9394   70.8091    1.0026 C.3     1  UNL1        0.1968
     35 C          23.2109   72.2446    2.6215 C.3     1  UNL1        0.1723
     36 C          23.1782   70.8207    0.0985 C.3     1  UNL1        0.2706
     37 C          24.3732   72.2008    1.6320 C.3     1  UNL1        0.1830
     38 H          20.8350   72.7984    3.3442 H       1  UNL1        0.2105
     39 H          20.8547   69.9056   -0.3444 H       1  UNL1        0.2106
     40 H          23.5831   70.3631    3.0686 H       1  UNL1        0.2106
     41 O          26.2700   71.0105    2.3313 O.co2   1  UNL1       -0.5466
     42 O          26.1899   73.2303    2.8443 O.co2   1  UNL1       -0.5466
     43 C          25.6926   72.2362    2.3356 C.2     1  UNL1        0.0799
@<TRIPOS>UNITY_ATOM_ATTR
41 1
charge -1
@<TRIPOS>BOND
     1     1     4    1
     2     1    24    1
     3     1     2    1
     4     1     3    2
     5    25    28    1
     6    25    24    1
     7    25    26    1
     8    25    27    2
     9     6    11    1
    10     6    12    1
    11    29    36    1
    12    29    37    1
    13     7     9    1
    14     7    13    1
    15     8    10    1
    16     8    14    1
    17     4     5    1
    18    28    36    1
    19    30    33    1
    20    30    38    1
    21    31    34    1
    22    31    39    1
    23    32    35    1
    24    32    40    1
    25    41    43   ar
    26    15    19    2
    27    42    43   ar
    28    16    22    2
    29    17    12    1
    30    17    19   ar
    31    17    20   ar
    32    18    19   ar
    33    18    22   ar
    34    18    23    1
    35     9    10    1
    36     9    11    1
    37    10    12    1
    38    11     5    1
    39    33    34    1
    40    33    35    1
    41    34    36    1
    42    35    37    1
    43    37    43    1
    44    20    21   ar
    45    21    22   ar
@<TRIPOS>MOLECULE
UDP-glaA
 43 45 0 0 0
SMALL
GASTEIGER

@<TRIPOS>ATOM
      1 P          22.8836   72.2710   -3.2088 P.3     1  UNL1        0.2189
      2 O          23.7776   72.9371   -4.3812 O.3     1  UNL1       -0.4371
      3 O          23.5762   71.2029   -2.4141 O.2     1  UNL1       -0.5170
      4 O          21.5268   71.8175   -3.9633 O.3     1  UNL1       -0.3112
      5 C          20.6997   72.8194   -4.5301 C.3     1  UNL1        0.1811
      6 O          18.4457   72.5439   -5.3163 O.3     1  UNL1       -0.3308
      7 O          17.8716   71.2799   -2.6585 O.3     1  UNL1       -0.3794
      8 O          18.1317   69.1194   -4.3017 O.3     1  UNL1       -0.3779
      9 C          19.0519   71.2055   -3.4579 C.3     1  UNL1        0.1713
     10 C          18.8223   70.3013   -4.6505 C.3     1  UNL1        0.1895
     11 C          19.2565   72.5614   -4.1207 C.3     1  UNL1        0.1764
     12 C          18.0163   71.1972   -5.5755 C.3     1  UNL1        0.2383
     13 H          18.0531   71.8988   -1.9307 H       1  UNL1        0.2105
     14 H          18.6610   68.6592   -3.6277 H       1  UNL1        0.2106
     15 O          15.9631   70.9173   -7.4942 O.2     1  UNL1       -0.2464
     16 O          18.9812   70.0341  -10.8631 O.2     1  UNL1       -0.2670
     17 N          18.2370   70.8950   -6.9609 N.ar    1  UNL1       -0.2551
     18 N          17.4673   70.4772   -9.1704 N.ar    1  UNL1       -0.2743
     19 C          17.1368   70.7748   -7.8418 C.ar    1  UNL1        0.3323
     20 C          19.5326   70.7206   -7.4345 C.ar    1  UNL1        0.0869
     21 C          19.8314   70.4377   -8.7043 C.ar    1  UNL1        0.0795
     22 C          18.7402   70.2945   -9.6883 C.ar    1  UNL1        0.2626
     23 H          16.6922   70.3855   -9.8215 H       1  UNL1        0.1734
     24 O          22.4075   73.5519   -2.3441 O.3     1  UNL1       -0.2703
     25 P          23.2587   74.7343   -1.6442 P.3     1  UNL1        0.2208
     26 O          22.6660   76.0741   -2.3297 O.3     1  UNL1       -0.4371
     27 O          24.7472   74.5796   -1.7706 O.2     1  UNL1       -0.5170
     28 O          22.7201   74.7809   -0.1237 O.3     1  UNL1       -0.2858
     29 O          21.6947   72.6908    0.3000 O.3     1  UNL1       -0.3226
     30 O          21.2513   74.6340    3.9479 O.3     1  UNL1       -0.3794
     31 O          20.8511   76.0743    1.4436 O.3     1  UNL1       -0.3775
     32 O          20.8367   72.0838    2.9710 O.3     1  UNL1       -0.3792
     33 C          21.8534   74.2596    2.7119 C.3     1  UNL1        0.1718
     34 C          20.9537   74.6574    1.5369 C.3     1  UNL1        0.1968
     35 C          22.0790   72.7452    2.7097 C.3     1  UNL1        0.1723
     36 C          21.5090   74.1077    0.2171 C.3     1  UNL1        0.2706
     37 C          22.5916   72.3047    1.3403 C.3     1  UNL1        0.1830
     38 H          21.8527   74.3615    4.6617 H       1  UNL1        0.2105
     39 H          20.2816   76.2777    0.6825 H       1  UNL1        0.2106
     40 H          20.2805   72.1461    2.1761 H       1  UNL1        0.2106
     41 O          21.4929   70.2594    1.0035 O.co2   1  UNL1       -0.5466
     42 O          23.7402   70.1812    1.3783 O.co2   1  UNL1       -0.5466
     43 C          22.7032   70.8159    1.2507 C.2     1  UNL1        0.0799
@<TRIPOS>UNITY_ATOM_ATTR
41 1
charge -1
@<TRIPOS>BOND
     1     1     4    1
     2     1    24    1
     3     1     2    1
     4     1     3    2
     5    25    28    1
     6    25    24    1
     7    25    26    1
     8    25    27    2
     9     6    11    1
    10     6    12    1
    11    29    36    1
    12    29    37    1
    13     7     9    1
    14     7    13    1
    15     8    10    1
    16     8    14    1
    17     4     5    1
    18    28    36    1
    19    30    33    1
    20    30    38    1
    21    31    34    1
    22    31    39    1
    23    32    35    1
    24    32    40    1
    25    41    43   ar
    26    15    19    2
    27    42    43   ar
    28    16    22    2
    29    17    12    1
    30    17    19   ar
    31    17    20   ar
    32    18    19   ar
    33    18    22   ar
    34    18    23    1
    35     9    10    1
    36     9    11    1
    37    10    12    1
    38    11     5    1
    39    33    34    1
    40    33    35    1
    41    34    36    1
    42    35    37    1
    43    37    43    1
    44    20    21   ar
    45    21    22   ar
@<TRIPOS>MOLECULE
UDP-glaA
 43 45 0 0 0
SMALL
GASTEIGER

@<TRIPOS>ATOM
      1 P          23.3307   73.6832   -4.1572 P.3     1  UNL1        0.2189
      2 O          22.8138   75.2110   -4.0308 O.3     1  UNL1       -0.4371
      3 O          24.8207   73.5126   -4.1028 O.2     1  UNL1       -0.5170
      4 O          22.6091   73.1373   -5.4976 O.3     1  UNL1       -0.3112
      5 C          21.3668   72.4662   -5.3729 C.3     1  UNL1        0.1811
      6 O          20.4140   70.4242   -6.2076 O.3     1  UNL1       -0.3308
      7 O          20.5719   71.6808   -8.9256 O.3     1  UNL1       -0.3794
      8 O          17.9441   72.0029   -8.2724 O.3     1  UNL1       -0.3779
      9 C          20.2813   72.2865   -7.6660 C.3     1  UNL1        0.1713
     10 C          18.8814   71.9221   -7.2186 C.3     1  UNL1        0.1895
     11 C          21.1410   71.6066   -6.6085 C.3     1  UNL1        0.1764
     12 C          19.0710   70.5021   -6.7132 C.3     1  UNL1        0.2383
     13 H          21.4895   71.9093   -9.1522 H       1  UNL1        0.2105
     14 H          17.9623   72.9145   -8.6111 H       1  UNL1        0.2106
     15 O          16.3939   69.7006   -7.1210 O.2     1  UNL1       -0.2464
     16 O          15.6482   69.2475   -2.5958 O.2     1  UNL1       -0.2670
     17 N          18.1553   70.1682   -5.6600 N.ar    1  UNL1       -0.2551
     18 N          16.0242   69.4760   -4.8673 N.ar    1  UNL1       -0.2743
     19 C          16.8317   69.7784   -5.9717 C.ar    1  UNL1        0.3323
     20 C          18.5713   70.2289   -4.3346 C.ar    1  UNL1        0.0869
     21 C          17.7894   69.9370   -3.2928 C.ar    1  UNL1        0.0795
     22 C          16.3929   69.5221   -3.5318 C.ar    1  UNL1        0.2626
     23 H          15.0684   69.1939   -5.0675 H       1  UNL1        0.1734
     24 O          22.5229   72.9286   -2.9769 O.3     1  UNL1       -0.2703
     25 P          22.7640   71.4911   -2.2782 P.3     1  UNL1        0.2208
     26 O          24.1347   70.9715   -2.9619 O.3     1  UNL1       -0.4371
     27 O          21.6077   70.5414   -2.4080 O.2     1  UNL1       -0.5170
     28 O          23.1730   71.8394   -0.7566 O.3     1  UNL1       -0.2858
     29 O          24.4950   70.8665    0.9479 O.3     1  UNL1       -0.3226
     30 O          21.0818   71.9996    3.0326 O.3     1  UNL1       -0.3794
     31 O          20.8706   70.8184    0.3744 O.3     1  UNL1       -0.3775
     32 O          23.5870   71.0235    3.6663 O.3     1  UNL1       -0.3792
     33 C          22.1156   72.0578    2.0537 C.3     1  UNL1        0.1718
     34 C          22.0651   70.8221    1.1489 C.3     1  UNL1        0.1968
     35 C          23.4689   72.1304    2.7664 C.3     1  UNL1        0.1723
     36 C          23.2737   70.7901    0.2052 C.3     1  UNL1        0.2706
     37 C          24.5953   72.0501    1.7383 C.3     1  UNL1        0.1830
     38 H          21.1534   72.7982    3.5828 H       1  UNL1        0.2105
     39 H          20.8877   70.0255   -0.1876 H       1  UNL1        0.2106
     40 H          23.7432   70.2175    3.1456 H       1  UNL1        0.2106
     41 O          26.3263   73.2183    2.8072 O.co2   1  UNL1       -0.5466
     42 O          26.5931   70.9683    2.5557 O.co2   1  UNL1       -0.5466
     43 C          25.9356   71.9869    2.3989 C.2     1  UNL1        0.0799
@<TRIPOS>UNITY_ATOM_ATTR
41 1
charge -1
@<TRIPOS>BOND
     1     1     4    1
     2     1    24    1
     3     1     2    1
     4     1     3    2
     5    25    28    1
     6    25    24    1
     7    25    26    1
     8    25    27    2
     9     6    11    1
    10     6    12    1
    11    29    36    1
    12    29    37    1
    13     7     9    1
    14     7    13    1
    15     8    10    1
    16     8    14    1
    17     4     5    1
    18    28    36    1
    19    30    33    1
    20    30    38    1
    21    31    34    1
    22    31    39    1
    23    32    35    1
    24    32    40    1
    25    41    43   ar
    26    15    19    2
    27    42    43   ar
    28    16    22    2
    29    17    12    1
    30    17    19   ar
    31    17    20   ar
    32    18    19   ar
    33    18    22   ar
    34    18    23    1
    35     9    10    1
    36     9    11    1
    37    10    12    1
    38    11     5    1
    39    33    34    1
    40    33    35    1
    41    34    36    1
    42    35    37    1
    43    37    43    1
    44    20    21   ar
    45    21    22   ar
@<TRIPOS>MOLECULE
UDP-glaA
 43 45 0 0 0
SMALL
GASTEIGER

@<TRIPOS>ATOM
      1 P          23.5088   72.1523   -3.2527 P.3     1  UNL1        0.2189
      2 O          24.2246   72.9618   -4.4568 O.3     1  UNL1       -0.4371
      3 O          24.0699   70.7860   -2.9872 O.2     1  UNL1       -0.5170
      4 O          21.9365   72.2058   -3.6278 O.3     1  UNL1       -0.3112
      5 C          21.2146   70.9878   -3.6963 C.3     1  UNL1        0.1811
      6 O          19.0949   71.7747   -4.5098 O.3     1  UNL1       -0.3308
      7 O          17.8825   70.3827   -2.1468 O.3     1  UNL1       -0.3794
      8 O          17.3998   68.6324   -4.1812 O.3     1  UNL1       -0.3779
      9 C          18.9955   69.9932   -2.9513 C.3     1  UNL1        0.1713
     10 C          18.5193   69.4861   -4.2962 C.3     1  UNL1        0.1895
     11 C          19.7593   71.2529   -3.3379 C.3     1  UNL1        0.1764
     12 C          18.1952   70.7794   -5.0246 C.3     1  UNL1        0.2383
     13 H          18.2371   70.7361   -1.3131 H       1  UNL1        0.2105
     14 H          17.6577   67.8864   -3.6127 H       1  UNL1        0.2106
     15 O          16.2524   69.7843   -6.8165 O.2     1  UNL1       -0.2464
     16 O          19.0193   70.4070  -10.4490 O.2     1  UNL1       -0.2670
     17 N          18.3809   70.6708   -6.4434 N.ar    1  UNL1       -0.2551
     18 N          17.6317   70.0946   -8.6241 N.ar    1  UNL1       -0.2743
     19 C          17.3424   70.1568   -7.2546 C.ar    1  UNL1        0.3323
     20 C          19.5821   71.0714   -7.0179 C.ar    1  UNL1        0.0869
     21 C          19.8424   71.0063   -8.3254 C.ar    1  UNL1        0.0795
     22 C          18.8112   70.4805   -9.2418 C.ar    1  UNL1        0.2626
     23 H          16.8998   69.7277   -9.2265 H       1  UNL1        0.1734
     24 O          23.6205   73.1797   -2.0089 O.3     1  UNL1       -0.2703
     25 P          23.1063   73.0554   -0.4815 P.3     1  UNL1        0.2208
     26 O          23.9853   71.8320    0.1075 O.3     1  UNL1       -0.4371
     27 O          21.6217   72.8745   -0.3443 O.2     1  UNL1       -0.5170
     28 O          23.6888   74.3681    0.2542 O.3     1  UNL1       -0.2858
     29 O          22.0645   74.8073    1.9179 O.3     1  UNL1       -0.3226
     30 O          23.4420   71.0427    3.0178 O.3     1  UNL1       -0.3794
     31 O          25.3027   73.0896    2.0936 O.3     1  UNL1       -0.3775
     32 O          21.3946   72.7314    3.7836 O.3     1  UNL1       -0.3792
     33 C          23.0752   72.1197    2.1599 C.3     1  UNL1        0.1718
     34 C          23.9467   73.3482    2.4420 C.3     1  UNL1        0.1968
     35 C          21.6005   72.4588    2.3936 C.3     1  UNL1        0.1723
     36 C          23.4484   74.5617    1.6473 C.3     1  UNL1        0.2706
     37 C          21.2258   73.7011    1.5884 C.3     1  UNL1        0.1830
     38 H          22.8645   70.2895    2.8063 H       1  UNL1        0.2105
     39 H          25.8124   73.8960    2.2800 H       1  UNL1        0.2106
     40 H          21.7750   73.6027    3.9871 H       1  UNL1        0.2106
     41 O          19.7950   74.8910    3.0170 O.co2   1  UNL1       -0.5466
     42 O          18.8484   73.8798    1.2064 O.co2   1  UNL1       -0.5466
     43 C          19.8290   74.1455    1.8862 C.2     1  UNL1        0.0799
@<TRIPOS>UNITY_ATOM_ATTR
41 1
charge -1
@<TRIPOS>BOND
     1     1     4    1
     2     1    24    1
     3     1     2    1
     4     1     3    2
     5    25    28    1
     6    25    24    1
     7    25    26    1
     8    25    27    2
     9     6    11    1
    10     6    12    1
    11    29    36    1
    12    29    37    1
    13     7     9    1
    14     7    13    1
    15     8    10    1
    16     8    14    1
    17     4     5    1
    18    28    36    1
    19    30    33    1
    20    30    38    1
    21    31    34    1
    22    31    39    1
    23    32    35    1
    24    32    40    1
    25    41    43   ar
    26    15    19    2
    27    42    43   ar
    28    16    22    2
    29    17    12    1
    30    17    19   ar
    31    17    20   ar
    32    18    19   ar
    33    18    22   ar
    34    18    23    1
    35     9    10    1
    36     9    11    1
    37    10    12    1
    38    11     5    1
    39    33    34    1
    40    33    35    1
    41    34    36    1
    42    35    37    1
    43    37    43    1
    44    20    21   ar
    45    21    22   ar
@<TRIPOS>MOLECULE
UDP-glaA
 43 45 0 0 0
SMALL
GASTEIGER

@<TRIPOS>ATOM
      1 P          22.2871   72.7370   -1.7458 P.3     1  UNL1        0.2189
      2 O          20.9666   73.2741   -0.9807 O.3     1  UNL1       -0.4371
      3 O          23.4254   73.7132   -1.8049 O.2     1  UNL1       -0.5170
      4 O          21.7280   72.2218   -3.1732 O.3     1  UNL1       -0.3112
      5 C          21.0769   70.9641   -3.2318 C.3     1  UNL1        0.1811
      6 O          18.9851   71.7288   -4.1339 O.3     1  UNL1       -0.3308
      7 O          17.6785   70.1602   -1.9376 O.3     1  UNL1       -0.3794
      8 O          17.3875   68.5191   -4.0957 O.3     1  UNL1       -0.3779
      9 C          18.8529   69.8555   -2.6896 C.3     1  UNL1        0.1713
     10 C          18.4804   69.4140   -4.0892 C.3     1  UNL1        0.1895
     11 C          19.5934   71.1600   -2.9534 C.3     1  UNL1        0.1764
     12 C          18.1559   70.7370   -4.7618 C.3     1  UNL1        0.2383
     13 H          17.9673   70.4748   -1.0639 H       1  UNL1        0.2105
     14 H          17.6362   67.7494   -3.5554 H       1  UNL1        0.2106
     15 O          16.3823   69.7507   -6.7256 O.2     1  UNL1       -0.2464
     16 O          19.3295   70.7165  -10.1344 O.2     1  UNL1       -0.2670
     17 N          18.4337   70.7191   -6.1695 N.ar    1  UNL1       -0.2551
     18 N          17.8513   70.2318   -8.4217 N.ar    1  UNL1       -0.2743
     19 C          17.4757   70.2012   -7.0722 C.ar    1  UNL1        0.3323
     20 C          19.6449   71.2110   -6.6434 C.ar    1  UNL1        0.0869
     21 C          19.9879   71.2337   -7.9332 C.ar    1  UNL1        0.0795
     22 C          19.0442   70.7105   -8.9408 C.ar    1  UNL1        0.2626
     23 H          17.1782   69.8640   -9.0887 H       1  UNL1        0.1734
     24 O          22.6212   71.3591   -0.9679 O.3     1  UNL1       -0.2703
     25 P          22.5347   70.9793    0.6008 P.3     1  UNL1        0.2208
     26 O          23.9190   70.1865    0.8675 O.3     1  UNL1       -0.4371
     27 O          21.2992   70.2152    0.9822 O.2     1  UNL1       -0.5170
     28 O          22.7139   72.3851    1.3724 O.3     1  UNL1       -0.2858
     29 O          24.1749   73.1478    3.0704 O.3     1  UNL1       -0.3226
     30 O          20.5889   74.9663    4.1253 O.3     1  UNL1       -0.3794
     31 O          20.6285   72.2099    3.1732 O.3     1  UNL1       -0.3775
     32 O          23.2246   75.1077    4.9397 O.3     1  UNL1       -0.3792
     33 C          21.6044   74.4331    3.2799 C.3     1  UNL1        0.1718
     34 C          21.7933   72.9366    3.5499 C.3     1  UNL1        0.1968
     35 C          22.9131   75.1825    3.5446 C.3     1  UNL1        0.1723
     36 C          22.9969   72.3917    2.7710 C.3     1  UNL1        0.2706
     37 C          24.0458   74.5328    2.7528 C.3     1  UNL1        0.1830
     38 H          20.5055   75.9136    3.9221 H       1  UNL1        0.2105
     39 H          20.7982   71.2698    3.3530 H       1  UNL1        0.2106
     40 H          23.5330   74.2076    5.1395 H       1  UNL1        0.2106
     41 O          26.3770   74.2820    2.8334 O.co2   1  UNL1       -0.5466
     42 O          25.5243   76.2851    3.5097 O.co2   1  UNL1       -0.5466
     43 C          25.3675   75.1512    3.0806 C.2     1  UNL1        0.0799
@<TRIPOS>UNITY_ATOM_ATTR
41 1
charge -1
@<TRIPOS>BOND
     1     1     4    1
     2     1    24    1
     3     1     2    1
     4     1     3    2
     5    25    28    1
     6    25    24    1
     7    25    26    1
     8    25    27    2
     9     6    11    1
    10     6    12    1
    11    29    36    1
    12    29    37    1
    13     7     9    1
    14     7    13    1
    15     8    10    1
    16     8    14    1
    17     4     5    1
    18    28    36    1
    19    30    33    1
    20    30    38    1
    21    31    34    1
    22    31    39    1
    23    32    35    1
    24    32    40    1
    25    41    43   ar
    26    15    19    2
    27    42    43   ar
    28    16    22    2
    29    17    12    1
    30    17    19   ar
    31    17    20   ar
    32    18    19   ar
    33    18    22   ar
    34    18    23    1
    35     9    10    1
    36     9    11    1
    37    10    12    1
    38    11     5    1
    39    33    34    1
    40    33    35    1
    41    34    36    1
    42    35    37    1
    43    37    43    1
    44    20    21   ar
    45    21    22   ar
@<TRIPOS>MOLECULE
UDP-glaA
 43 45 0 0 0
SMALL
GASTEIGER

@<TRIPOS>ATOM
      1 P          23.1745   75.0092   -3.7804 P.3     1  UNL1        0.2189
      2 O          24.5594   74.8615   -4.6036 O.3     1  UNL1       -0.4371
      3 O          22.8046   76.4159   -3.4111 O.2     1  UNL1       -0.5170
      4 O          23.3437   73.9795   -2.5449 O.3     1  UNL1       -0.3112
      5 C          22.2602   73.8163   -1.6457 C.3     1  UNL1        0.1811
      6 O          23.2822   71.8033   -0.8227 O.3     1  UNL1       -0.3308
      7 O          20.4984   70.7208   -0.5573 O.3     1  UNL1       -0.3794
      8 O          21.1079   71.4311    2.0039 O.3     1  UNL1       -0.3779
      9 C          20.9751   72.0493   -0.3436 C.3     1  UNL1        0.1713
     10 C          21.7495   72.1268    0.9552 C.3     1  UNL1        0.1895
     11 C          22.0574   72.3319   -1.3773 C.3     1  UNL1        0.1764
     12 C          23.0792   71.5023    0.5678 C.3     1  UNL1        0.2383
     13 H          20.0439   70.7108   -1.4169 H       1  UNL1        0.2105
     14 H          20.2237   71.8209    2.1158 H       1  UNL1        0.2106
     15 O          24.9471   69.9306    1.9877 O.2     1  UNL1       -0.2464
     16 O          27.2457   73.6503    3.4434 O.2     1  UNL1       -0.2670
     17 N          24.1758   72.0336    1.3257 N.ar    1  UNL1       -0.2551
     18 N          26.0902   71.7839    2.7121 N.ar    1  UNL1       -0.2743
     19 C          25.0563   71.1580    2.0032 C.ar    1  UNL1        0.3323
     20 C          24.3704   73.4087    1.3927 C.ar    1  UNL1        0.0869
     21 C          25.3613   73.9901    2.0724 C.ar    1  UNL1        0.0795
     22 C          26.3241   73.1469    2.8083 C.ar    1  UNL1        0.2626
     23 H          26.7350   71.1740    3.2073 H       1  UNL1        0.1734
     24 O          22.1046   74.2597   -4.7338 O.3     1  UNL1       -0.2703
     25 P          22.2478   72.9390   -5.6546 P.3     1  UNL1        0.2208
     26 O          22.9721   71.8781   -4.6718 O.3     1  UNL1       -0.4371
     27 O          22.9641   73.1691   -6.9545 O.2     1  UNL1       -0.5170
     28 O          20.7403   72.3856   -5.8131 O.3     1  UNL1       -0.2858
     29 O          19.6851   70.2951   -5.4729 O.3     1  UNL1       -0.3226
     30 O          17.8688   71.6293   -8.9658 O.3     1  UNL1       -0.3794
     31 O          20.7308   72.0041   -8.5475 O.3     1  UNL1       -0.3775
     32 O          17.5119   69.5433   -7.1907 O.3     1  UNL1       -0.3792
     33 C          18.4805   71.7012   -7.6809 C.3     1  UNL1        0.1718
     34 C          19.9139   71.1626   -7.7404 C.3     1  UNL1        0.1968
     35 C          17.6520   70.8774   -6.6913 C.3     1  UNL1        0.1723
     36 C          20.5203   71.0756   -6.3343 C.3     1  UNL1        0.2706
     37 C          18.3667   70.8247   -5.3427 C.3     1  UNL1        0.1830
     38 H          16.9649   71.9773   -8.8803 H       1  UNL1        0.2105
     39 H          21.6278   71.6296   -8.5476 H       1  UNL1        0.2106
     40 H          18.3613   69.0826   -7.0834 H       1  UNL1        0.2106
     41 O          18.5156   69.4547   -3.4441 O.co2   1  UNL1       -0.5466
     42 O          16.4686   69.6446   -4.4294 O.co2   1  UNL1       -0.5466
     43 C          17.6580   69.9231   -4.3826 C.2     1  UNL1        0.0799
@<TRIPOS>UNITY_ATOM_ATTR
41 1
charge -1
@<TRIPOS>BOND
     1     1     4    1
     2     1    24    1
     3     1     2    1
     4     1     3    2
     5    25    28    1
     6    25    24    1
     7    25    26    1
     8    25    27    2
     9     6    11    1
    10     6    12    1
    11    29    36    1
    12    29    37    1
    13     7     9    1
    14     7    13    1
    15     8    10    1
    16     8    14    1
    17     4     5    1
    18    28    36    1
    19    30    33    1
    20    30    38    1
    21    31    34    1
    22    31    39    1
    23    32    35    1
    24    32    40    1
    25    41    43   ar
    26    15    19    2
    27    42    43   ar
    28    16    22    2
    29    17    12    1
    30    17    19   ar
    31    17    20   ar
    32    18    19   ar
    33    18    22   ar
    34    18    23    1
    35     9    10    1
    36     9    11    1
    37    10    12    1
    38    11     5    1
    39    33    34    1
    40    33    35    1
    41    34    36    1
    42    35    37    1
    43    37    43    1
    44    20    21   ar
    45    21    22   ar
@<TRIPOS>MOLECULE
UDP-glaA
 43 45 0 0 0
SMALL
GASTEIGER

@<TRIPOS>ATOM
      1 P          21.9180   72.4673   -5.7471 P.3     1  UNL1        0.2189
      2 O          21.3058   73.9069   -5.3346 O.3     1  UNL1       -0.4371
      3 O          23.1126   72.5237   -6.6537 O.2     1  UNL1       -0.5170
      4 O          20.6431   71.6497   -6.3143 O.3     1  UNL1       -0.3112
      5 C          20.1172   72.0084   -7.5807 C.3     1  UNL1        0.1811
      6 O          18.9208   69.9671   -7.1608 O.3     1  UNL1       -0.3308
      7 O          18.1460   70.0449  -10.0565 O.3     1  UNL1       -0.3794
      8 O          15.9042   70.9768   -8.8150 O.3     1  UNL1       -0.3779
      9 C          18.3096   71.1236   -9.1361 C.3     1  UNL1        0.1713
     10 C          17.1455   71.1699   -8.1689 C.3     1  UNL1        0.1895
     11 C          19.4748   70.7835   -8.2162 C.3     1  UNL1        0.1764
     12 C          17.4865   70.0418   -7.2101 C.3     1  UNL1        0.2383
     13 H          18.9318   70.0307  -10.6291 H       1  UNL1        0.2105
     14 H          15.8118   71.6749   -9.4860 H       1  UNL1        0.2106
     15 O          16.3134   68.0623   -5.5729 O.2     1  UNL1       -0.2464
     16 O          15.5959   71.0608   -2.1475 O.2     1  UNL1       -0.2670
     17 N          16.9852   70.2772   -5.8863 N.ar    1  UNL1       -0.2551
     18 N          15.9564   69.5569   -3.8685 N.ar    1  UNL1       -0.2743
     19 C          16.4138   69.2147   -5.1479 C.ar    1  UNL1        0.3323
     20 C          17.0622   71.5502   -5.3321 C.ar    1  UNL1        0.0869
     21 C          16.6221   71.8603   -4.1107 C.ar    1  UNL1        0.0795
     22 C          16.0109   70.8083   -3.2745 C.ar    1  UNL1        0.2626
     23 H          15.5412   68.8088   -3.3197 H       1  UNL1        0.1734
     24 O          22.1914   71.7662   -4.3156 O.3     1  UNL1       -0.2703
     25 P          23.4309   71.9033   -3.2874 P.3     1  UNL1        0.2208
     26 O          24.2131   73.2143   -3.8219 O.3     1  UNL1       -0.4371
     27 O          24.2842   70.6717   -3.1835 O.2     1  UNL1       -0.5170
     28 O          22.7585   72.3679   -1.8960 O.3     1  UNL1       -0.2858
     29 O          23.1052   70.8952   -0.0765 O.3     1  UNL1       -0.3226
     30 O          20.2281   73.4861    1.4361 O.3     1  UNL1       -0.3794
     31 O          20.0644   72.5339   -1.3157 O.3     1  UNL1       -0.3775
     32 O          21.8218   71.4598    2.4280 O.3     1  UNL1       -0.3792
     33 C          21.3545   73.0564    0.6766 C.3     1  UNL1        0.1718
     34 C          20.9387   71.9839   -0.3359 C.3     1  UNL1        0.1968
     35 C          22.4104   72.4937    1.6320 C.3     1  UNL1        0.1723
     36 C          22.1681   71.3932   -1.0372 C.3     1  UNL1        0.2706
     37 C          23.5644   71.8982    0.8283 C.3     1  UNL1        0.1830
     38 H          20.5377   74.1611    2.0639 H       1  UNL1        0.2105
     39 H          19.8366   71.8227   -1.9379 H       1  UNL1        0.2106
     40 H          21.6999   70.6725    1.8708 H       1  UNL1        0.2106
     41 O          25.3878   72.1289    2.2862 O.co2   1  UNL1       -0.5466
     42 O          24.6188   70.0158    1.9120 O.co2   1  UNL1       -0.5466
     43 C          24.5584   71.2211    1.7174 C.2     1  UNL1        0.0799
@<TRIPOS>UNITY_ATOM_ATTR
41 1
charge -1
@<TRIPOS>BOND
     1     1     4    1
     2     1    24    1
     3     1     2    1
     4     1     3    2
     5    25    28    1
     6    25    24    1
     7    25    26    1
     8    25    27    2
     9     6    11    1
    10     6    12    1
    11    29    36    1
    12    29    37    1
    13     7     9    1
    14     7    13    1
    15     8    10    1
    16     8    14    1
    17     4     5    1
    18    28    36    1
    19    30    33    1
    20    30    38    1
    21    31    34    1
    22    31    39    1
    23    32    35    1
    24    32    40    1
    25    41    43   ar
    26    15    19    2
    27    42    43   ar
    28    16    22    2
    29    17    12    1
    30    17    19   ar
    31    17    20   ar
    32    18    19   ar
    33    18    22   ar
    34    18    23    1
    35     9    10    1
    36     9    11    1
    37    10    12    1
    38    11     5    1
    39    33    34    1
    40    33    35    1
    41    34    36    1
    42    35    37    1
    43    37    43    1
    44    20    21   ar
    45    21    22   ar
@<TRIPOS>MOLECULE
UDP-glaA
 43 45 0 0 0
SMALL
GASTEIGER

@<TRIPOS>ATOM
      1 P          20.5281   72.9631   -4.2251 P.3     1  UNL1        0.2189
      2 O          19.8127   74.4126   -4.2928 O.3     1  UNL1       -0.4371
      3 O          20.6661   72.2631   -5.5453 O.2     1  UNL1       -0.5170
      4 O          19.6914   72.1682   -3.0921 O.3     1  UNL1       -0.3112
      5 C          19.0961   70.9283   -3.4347 C.3     1  UNL1        0.1811
      6 O          17.3293   71.7270   -4.8542 O.3     1  UNL1       -0.3308
      7 O          15.4770   70.0964   -3.1508 O.3     1  UNL1       -0.3794
      8 O          15.7997   68.5229   -5.3543 O.3     1  UNL1       -0.3779
      9 C          16.8146   69.8109   -3.5594 C.3     1  UNL1        0.1713
     10 C          16.8440   69.4136   -5.0202 C.3     1  UNL1        0.1895
     11 C          17.5922   71.1205   -3.5696 C.3     1  UNL1        0.1764
     12 C          16.7101   70.7576   -5.7157 C.3     1  UNL1        0.2383
     13 H          15.5125   70.3833   -2.2223 H       1  UNL1        0.2105
     14 H          15.8941   67.7363   -4.7899 H       1  UNL1        0.2106
     15 O          15.9499   72.4213   -7.8674 O.2     1  UNL1       -0.2464
     16 O          19.2942   70.7632  -10.5701 O.2     1  UNL1       -0.2670
     17 N          17.3648   70.7817   -6.9925 N.ar    1  UNL1       -0.2551
     18 N          17.6154   71.5942   -9.2120 N.ar    1  UNL1       -0.2743
     19 C          16.9039   71.6538   -8.0064 C.ar    1  UNL1        0.3323
     20 C          18.4512   69.9471   -7.2303 C.ar    1  UNL1        0.0869
     21 C          19.1193   69.9023   -8.3851 C.ar    1  UNL1        0.0795
     22 C          18.7014   70.7806   -9.4957 C.ar    1  UNL1        0.2626
     23 H          17.3013   72.2120   -9.9555 H       1  UNL1        0.1734
     24 O          21.9288   73.2846   -3.4836 O.3     1  UNL1       -0.2703
     25 P          23.0697   72.2998   -2.8994 P.3     1  UNL1        0.2208
     26 O          24.1948   72.3051   -4.0614 O.3     1  UNL1       -0.4371
     27 O          22.5713   70.9333   -2.5253 O.2     1  UNL1       -0.5170
     28 O          23.7360   73.1229   -1.6819 O.3     1  UNL1       -0.2858
     29 O          22.3900   72.9024    0.2518 O.3     1  UNL1       -0.3226
     30 O          25.3696   75.4914    1.5552 O.3     1  UNL1       -0.3794
     31 O          24.2164   75.7804   -1.1080 O.3     1  UNL1       -0.3775
     32 O          23.2827   74.0944    2.7056 O.3     1  UNL1       -0.3792
     33 C          24.7692   74.4219    0.8299 C.3     1  UNL1        0.1718
     34 C          23.6642   74.9535   -0.0891 C.3     1  UNL1        0.1968
     35 C          24.1842   73.4158    1.8248 C.3     1  UNL1        0.1723
     36 C          22.8985   73.7968   -0.7434 C.3     1  UNL1        0.2706
     37 C          23.4131   72.3358    1.0691 C.3     1  UNL1        0.1830
     38 H          26.0595   75.1091    2.1240 H       1  UNL1        0.2105
     39 H          23.4829   76.0847   -1.6686 H       1  UNL1        0.2106
     40 H          22.4686   74.3001    2.2157 H       1  UNL1        0.2106
     41 O          21.8366   70.6194    1.3379 O.co2   1  UNL1       -0.5466
     42 O          22.9083   71.3477    3.2135 O.co2   1  UNL1       -0.5466
     43 C          22.7155   71.4034    2.0077 C.2     1  UNL1        0.0799
@<TRIPOS>UNITY_ATOM_ATTR
41 1
charge -1
@<TRIPOS>BOND
     1     1     4    1
     2     1    24    1
     3     1     2    1
     4     1     3    2
     5    25    28    1
     6    25    24    1
     7    25    26    1
     8    25    27    2
     9     6    11    1
    10     6    12    1
    11    29    36    1
    12    29    37    1
    13     7     9    1
    14     7    13    1
    15     8    10    1
    16     8    14    1
    17     4     5    1
    18    28    36    1
    19    30    33    1
    20    30    38    1
    21    31    34    1
    22    31    39    1
    23    32    35    1
    24    32    40    1
    25    41    43   ar
    26    15    19    2
    27    42    43   ar
    28    16    22    2
    29    17    12    1
    30    17    19   ar
    31    17    20   ar
    32    18    19   ar
    33    18    22   ar
    34    18    23    1
    35     9    10    1
    36     9    11    1
    37    10    12    1
    38    11     5    1
    39    33    34    1
    40    33    35    1
    41    34    36    1
    42    35    37    1
    43    37    43    1
    44    20    21   ar
    45    21    22   ar
@<TRIPOS>MOLECULE
UDP-glaA
 43 45 0 0 0
SMALL
GASTEIGER

@<TRIPOS>ATOM
      1 P          23.4816   72.3891   -3.4606 P.3     1  UNL1        0.2189
      2 O          24.0887   70.9040   -3.2520 O.3     1  UNL1       -0.4371
      3 O          24.4758   73.4231   -3.9016 O.2     1  UNL1       -0.5170
      4 O          22.7179   72.6969   -2.0687 O.3     1  UNL1       -0.3112
      5 C          23.4846   72.7808   -0.8794 C.3     1  UNL1        0.1811
      6 O          24.4881   71.2789    0.7055 O.3     1  UNL1       -0.3308
      7 O          21.7140   70.2611    1.2150 O.3     1  UNL1       -0.3794
      8 O          22.1391   71.9191    3.3377 O.3     1  UNL1       -0.3779
      9 C          22.1501   71.5899    0.9289 C.3     1  UNL1        0.1713
     10 C          22.8354   72.1895    2.1386 C.3     1  UNL1        0.1895
     11 C          23.2928   71.5034   -0.0743 C.3     1  UNL1        0.1764
     12 C          24.1993   71.5221    2.0921 C.3     1  UNL1        0.2383
     13 H          21.3176   69.9048    0.4016 H       1  UNL1        0.2105
     14 H          21.2423   72.2838    3.2440 H       1  UNL1        0.2106
     15 O          26.8722   70.6936    2.4724 O.2     1  UNL1       -0.2464
     16 O          28.0806   74.7785    4.2309 O.2     1  UNL1       -0.2670
     17 N          25.2332   72.3485    2.6466 N.ar    1  UNL1       -0.2551
     18 N          27.4720   72.7281    3.3483 N.ar    1  UNL1       -0.2743
     19 C          26.5431   71.8362    2.7962 C.ar    1  UNL1        0.3323
     20 C          24.9447   73.6518    3.0360 C.ar    1  UNL1        0.0869
     21 C          25.8416   74.4900    3.5603 C.ar    1  UNL1        0.0795
     22 C          27.2323   74.0328    3.7510 C.ar    1  UNL1        0.2626
     23 H          28.4202   72.3811    3.4657 H       1  UNL1        0.1734
     24 O          22.2641   72.1407   -4.4956 O.3     1  UNL1       -0.2703
     25 P          20.8501   71.3809   -4.3065 P.3     1  UNL1        0.2208
     26 O          20.0774   72.2994   -3.2223 O.3     1  UNL1       -0.4371
     27 O          20.9746   69.9354   -3.9180 O.2     1  UNL1       -0.5170
     28 O          20.0617   71.6334   -5.6916 O.3     1  UNL1       -0.2858
     29 O          18.3154   70.0553   -5.4483 O.3     1  UNL1       -0.3226
     30 O          16.9921   72.3295   -8.6664 O.3     1  UNL1       -0.3794
     31 O          19.8006   71.5766   -8.4396 O.3     1  UNL1       -0.3775
     32 O          15.9519   70.3450   -7.0510 O.3     1  UNL1       -0.3792
     33 C          17.6371   72.0333   -7.4309 C.3     1  UNL1        0.1718
     34 C          18.7612   71.0142   -7.6457 C.3     1  UNL1        0.1968
     35 C          16.6009   71.4721   -6.4533 C.3     1  UNL1        0.1723
     36 C          19.3468   70.5603   -6.3028 C.3     1  UNL1        0.2706
     37 C          17.2973   71.0162   -5.1730 C.3     1  UNL1        0.1830
     38 H          16.2882   72.9747   -8.4826 H       1  UNL1        0.2105
     39 H          20.4915   70.9003   -8.5402 H       1  UNL1        0.2106
     40 H          16.5706   69.5951   -7.0485 H       1  UNL1        0.2106
     41 O          16.3560   69.0004   -4.4285 O.co2   1  UNL1       -0.5466
     42 O          15.6431   70.9151   -3.4171 O.co2   1  UNL1       -0.5466
     43 C          16.3418   70.3421   -4.2405 C.2     1  UNL1        0.0799
@<TRIPOS>UNITY_ATOM_ATTR
41 1
charge -1
@<TRIPOS>BOND
     1     1     4    1
     2     1    24    1
     3     1     2    1
     4     1     3    2
     5    25    28    1
     6    25    24    1
     7    25    26    1
     8    25    27    2
     9     6    11    1
    10     6    12    1
    11    29    36    1
    12    29    37    1
    13     7     9    1
    14     7    13    1
    15     8    10    1
    16     8    14    1
    17     4     5    1
    18    28    36    1
    19    30    33    1
    20    30    38    1
    21    31    34    1
    22    31    39    1
    23    32    35    1
    24    32    40    1
    25    41    43   ar
    26    15    19    2
    27    42    43   ar
    28    16    22    2
    29    17    12    1
    30    17    19   ar
    31    17    20   ar
    32    18    19   ar
    33    18    22   ar
    34    18    23    1
    35     9    10    1
    36     9    11    1
    37    10    12    1
    38    11     5    1
    39    33    34    1
    40    33    35    1
    41    34    36    1
    42    35    37    1
    43    37    43    1
    44    20    21   ar
    45    21    22   ar
@<TRIPOS>MOLECULE
UDP-glaA
 43 45 0 0 0
SMALL
GASTEIGER

@<TRIPOS>ATOM
      1 P          23.3258   72.2117   -3.4881 P.3     1  UNL1        0.2189
      2 O          23.6803   70.6374   -3.3726 O.3     1  UNL1       -0.4371
      3 O          24.3117   73.0265   -4.2731 O.2     1  UNL1       -0.5170
      4 O          23.0954   72.6728   -1.9552 O.3     1  UNL1       -0.3112
      5 C          23.2452   71.7079   -0.9277 C.3     1  UNL1        0.1811
      6 O          23.1697   71.6953    1.4740 O.3     1  UNL1       -0.3308
      7 O          21.2654   73.9997    1.2399 O.3     1  UNL1       -0.3794
      8 O          23.6173   75.2315    1.8619 O.3     1  UNL1       -0.3779
      9 C          22.4018   73.6818    0.4366 C.3     1  UNL1        0.1713
     10 C          23.6793   73.9916    1.1879 C.3     1  UNL1        0.1895
     11 C          22.4716   72.1665    0.3003 C.3     1  UNL1        0.1764
     12 C          23.7786   72.8130    2.1414 C.3     1  UNL1        0.2383
     13 H          20.4737   73.7488    0.7342 H       1  UNL1        0.2105
     14 H          23.4442   75.9186    1.1955 H       1  UNL1        0.2106
     15 O          24.9272   70.2591    1.7755 O.2     1  UNL1       -0.2464
     16 O          29.0016   71.6553    3.4151 O.2     1  UNL1       -0.2670
     17 N          25.1371   72.4813    2.4634 N.ar    1  UNL1       -0.2551
     18 N          26.9552   70.9559    2.5927 N.ar    1  UNL1       -0.2743
     19 C          25.6154   71.1686    2.2421 C.ar    1  UNL1        0.3323
     20 C          25.9807   73.4516    2.9929 C.ar    1  UNL1        0.0869
     21 C          27.2559   73.2332    3.3215 C.ar    1  UNL1        0.0795
     22 C          27.8329   71.8889    3.1226 C.ar    1  UNL1        0.2626
     23 H          27.3204   70.0193    2.4428 H       1  UNL1        0.1734
     24 O          21.8264   72.2021   -4.0937 O.3     1  UNL1       -0.2703
     25 P          21.2508   72.7315   -5.5082 P.3     1  UNL1        0.2208
     26 O          21.9925   71.7837   -6.5888 O.3     1  UNL1       -0.4371
     27 O          21.4426   74.2031   -5.7393 O.2     1  UNL1       -0.5170
     28 O          19.7113   72.2484   -5.5299 O.3     1  UNL1       -0.2858
     29 O          19.1893   70.0199   -4.9291 O.3     1  UNL1       -0.3226
     30 O          15.7265   71.2285   -6.8857 O.3     1  UNL1       -0.3794
     31 O          18.3495   71.9791   -7.9165 O.3     1  UNL1       -0.3775
     32 O          16.5314   69.0437   -5.3995 O.3     1  UNL1       -0.3792
     33 C          16.8963   71.3329   -6.0788 C.3     1  UNL1        0.1718
     34 C          18.1451   71.0009   -6.9025 C.3     1  UNL1        0.1968
     35 C          16.7730   70.3633   -4.9002 C.3     1  UNL1        0.1723
     36 C          19.3878   70.9425   -6.0054 C.3     1  UNL1        0.2706
     37 C          18.0756   70.3562   -4.1031 C.3     1  UNL1        0.1830
     38 H          14.9626   71.4442   -6.3242 H       1  UNL1        0.2105
     39 H          19.1537   71.7328   -8.4039 H       1  UNL1        0.2106
     40 H          17.3579   68.7012   -5.7798 H       1  UNL1        0.2106
     41 O          18.2547   68.0890   -3.5272 O.co2   1  UNL1       -0.5466
     42 O          17.8664   69.5632   -1.8322 O.co2   1  UNL1       -0.5466
     43 C          18.0475   69.3273   -3.0179 C.2     1  UNL1        0.0799
@<TRIPOS>UNITY_ATOM_ATTR
41 1
charge -1
@<TRIPOS>BOND
     1     1     4    1
     2     1    24    1
     3     1     2    1
     4     1     3    2
     5    25    28    1
     6    25    24    1
     7    25    26    1
     8    25    27    2
     9     6    11    1
    10     6    12    1
    11    29    36    1
    12    29    37    1
    13     7     9    1
    14     7    13    1
    15     8    10    1
    16     8    14    1
    17     4     5    1
    18    28    36    1
    19    30    33    1
    20    30    38    1
    21    31    34    1
    22    31    39    1
    23    32    35    1
    24    32    40    1
    25    41    43   ar
    26    15    19    2
    27    42    43   ar
    28    16    22    2
    29    17    12    1
    30    17    19   ar
    31    17    20   ar
    32    18    19   ar
    33    18    22   ar
    34    18    23    1
    35     9    10    1
    36     9    11    1
    37    10    12    1
    38    11     5    1
    39    33    34    1
    40    33    35    1
    41    34    36    1
    42    35    37    1
    43    37    43    1
    44    20    21   ar
    45    21    22   ar
@<TRIPOS>MOLECULE
UDP-glaA
 43 45 0 0 0
SMALL
GASTEIGER

@<TRIPOS>ATOM
      1 P          21.6311   71.7863   -1.0994 P.3     1  UNL1        0.2189
      2 O          23.1617   71.3473   -1.3859 O.3     1  UNL1       -0.4371
      3 O          20.6691   70.6483   -0.9214 O.2     1  UNL1       -0.5170
      4 O          21.2893   72.8144   -2.3001 O.3     1  UNL1       -0.3112
      5 C          20.5737   72.3300   -3.4236 C.3     1  UNL1        0.1811
      6 O          20.9142   70.7453   -5.1976 O.3     1  UNL1       -0.3308
      7 O          23.2457   72.4443   -6.0154 O.3     1  UNL1       -0.3794
      8 O          21.3132   73.1922   -7.7879 O.3     1  UNL1       -0.3779
      9 C          21.9841   72.8404   -5.4777 C.3     1  UNL1        0.1713
     10 C          20.9007   72.7067   -6.5270 C.3     1  UNL1        0.1895
     11 C          21.5632   71.7978   -4.4504 C.3     1  UNL1        0.1764
     12 C          20.6491   71.2085   -6.5319 C.3     1  UNL1        0.2383
     13 H          23.8995   72.5090   -5.2985 H       1  UNL1        0.2105
     14 H          21.5591   74.1266   -7.6756 H       1  UNL1        0.2106
     15 O          19.6993   70.9532   -9.1793 O.2     1  UNL1       -0.2464
     16 O          15.4353   69.9506   -7.7471 O.2     1  UNL1       -0.2670
     17 N          19.2959   70.8811   -6.8798 N.ar    1  UNL1       -0.2551
     18 N          17.5765   70.4546   -8.4643 N.ar    1  UNL1       -0.2743
     19 C          18.9212   70.7779   -8.2399 C.ar    1  UNL1        0.3323
     20 C          18.3554   70.6660   -5.8785 C.ar    1  UNL1        0.0869
     21 C          17.0772   70.3580   -6.1087 C.ar    1  UNL1        0.0795
     22 C          16.6042   70.2320   -7.5016 C.ar    1  UNL1        0.2626
     23 H          17.2844   70.3758   -9.4347 H       1  UNL1        0.1734
     24 O          21.7677   72.7599    0.1845 O.3     1  UNL1       -0.2703
     25 P          21.7837   72.4317    1.7671 P.3     1  UNL1        0.2208
     26 O          22.7321   71.1251    1.8656 O.3     1  UNL1       -0.4371
     27 O          20.4209   72.2557    2.3735 O.2     1  UNL1       -0.5170
     28 O          22.6565   73.6202    2.4225 O.3     1  UNL1       -0.2858
     29 O          24.8471   74.2117    3.0941 O.3     1  UNL1       -0.3226
     30 O          22.6945   74.6995    6.6166 O.3     1  UNL1       -0.3794
     31 O          22.1740   72.4265    4.8648 O.3     1  UNL1       -0.3775
     32 O          25.2518   75.2597    5.7354 O.3     1  UNL1       -0.3792
     33 C          22.9601   74.6991    5.2167 C.3     1  UNL1        0.1718
     34 C          23.3032   73.2843    4.7381 C.3     1  UNL1        0.1968
     35 C          24.1301   75.6457    4.9344 C.3     1  UNL1        0.1723
     36 C          23.7569   73.3015    3.2731 C.3     1  UNL1        0.2706
     37 C          24.5225   75.5516    3.4615 C.3     1  UNL1        0.1830
     38 H          22.4851   75.6132    6.8752 H       1  UNL1        0.2105
     39 H          22.4355   71.5477    4.5420 H       1  UNL1        0.2106
     40 H          25.6329   74.4470    5.3620 H       1  UNL1        0.2106
     41 O          26.8622   75.6082    3.3003 O.co2   1  UNL1       -0.5466
     42 O          25.7435   77.5424    2.8486 O.co2   1  UNL1       -0.5466
     43 C          25.7445   76.3624    3.1679 C.2     1  UNL1        0.0799
@<TRIPOS>UNITY_ATOM_ATTR
41 1
charge -1
@<TRIPOS>BOND
     1     1     4    1
     2     1    24    1
     3     1     2    1
     4     1     3    2
     5    25    28    1
     6    25    24    1
     7    25    26    1
     8    25    27    2
     9     6    11    1
    10     6    12    1
    11    29    36    1
    12    29    37    1
    13     7     9    1
    14     7    13    1
    15     8    10    1
    16     8    14    1
    17     4     5    1
    18    28    36    1
    19    30    33    1
    20    30    38    1
    21    31    34    1
    22    31    39    1
    23    32    35    1
    24    32    40    1
    25    41    43   ar
    26    15    19    2
    27    42    43   ar
    28    16    22    2
    29    17    12    1
    30    17    19   ar
    31    17    20   ar
    32    18    19   ar
    33    18    22   ar
    34    18    23    1
    35     9    10    1
    36     9    11    1
    37    10    12    1
    38    11     5    1
    39    33    34    1
    40    33    35    1
    41    34    36    1
    42    35    37    1
    43    37    43    1
    44    20    21   ar
    45    21    22   ar
@<TRIPOS>MOLECULE
UDP-glaA
 43 45 0 0 0
SMALL
GASTEIGER

@<TRIPOS>ATOM
      1 P          20.6971   73.6221   -2.4988 P.3     1  UNL1        0.2189
      2 O          20.5675   73.7171   -0.8890 O.3     1  UNL1       -0.4371
      3 O          21.2836   74.8354   -3.1593 O.2     1  UNL1       -0.5170
      4 O          19.2122   73.2055   -2.9855 O.3     1  UNL1       -0.3112
      5 C          19.0521   72.0035   -3.7195 C.3     1  UNL1        0.1811
      6 O          17.1591   71.8979   -5.1958 O.3     1  UNL1       -0.3308
      7 O          15.8752   70.1543   -3.1215 O.3     1  UNL1       -0.3794
      8 O          16.7326   68.3448   -4.9726 O.3     1  UNL1       -0.3779
      9 C          17.2442   70.2258   -3.5197 C.3     1  UNL1        0.1713
     10 C          17.4335   69.5670   -4.8698 C.3     1  UNL1        0.1895
     11 C          17.5684   71.6818   -3.8273 C.3     1  UNL1        0.1764
     12 C          16.8992   70.6281   -5.8166 C.3     1  UNL1        0.2383
     13 H          15.7955   70.6218   -2.2726 H       1  UNL1        0.2105
     14 H          17.0567   67.7611   -4.2652 H       1  UNL1        0.2106
     15 O          15.5351   70.6292   -8.2894 O.2     1  UNL1       -0.2464
     16 O          19.4775   70.4932  -10.6722 O.2     1  UNL1       -0.2670
     17 N          17.5439   70.5940   -7.0982 N.ar    1  UNL1       -0.2551
     18 N          17.4991   70.5609   -9.4743 N.ar    1  UNL1       -0.2743
     19 C          16.7670   70.5968   -8.2802 C.ar    1  UNL1        0.3323
     20 C          18.9318   70.5580   -7.1752 C.ar    1  UNL1        0.0869
     21 C          19.6151   70.5245   -8.3214 C.ar    1  UNL1        0.0795
     22 C          18.8791   70.5240   -9.6012 C.ar    1  UNL1        0.2626
     23 H          16.9613   70.5617  -10.3368 H       1  UNL1        0.1734
     24 O          21.5448   72.2619   -2.7145 O.3     1  UNL1       -0.2703
     25 P          23.0952   71.9196   -2.4117 P.3     1  UNL1        0.2208
     26 O          23.8885   73.1465   -3.1057 O.3     1  UNL1       -0.4371
     27 O          23.5279   70.5589   -2.8775 O.2     1  UNL1       -0.5170
     28 O          23.2666   72.1672   -0.8263 O.3     1  UNL1       -0.2858
     29 O          24.5681   71.1410    0.8626 O.3     1  UNL1       -0.3226
     30 O          20.9928   71.8839    2.8488 O.3     1  UNL1       -0.3794
     31 O          20.9859   70.9153    0.0979 O.3     1  UNL1       -0.3775
     32 O          23.5243   71.0164    3.5335 O.3     1  UNL1       -0.3792
     33 C          22.0656   72.0869    1.9332 C.3     1  UNL1        0.1718
     34 C          22.1397   70.9293    0.9318 C.3     1  UNL1        0.1968
     35 C          23.3759   72.1843    2.7193 C.3     1  UNL1        0.1723
     36 C          23.3910   71.0504    0.0532 C.3     1  UNL1        0.2706
     37 C          24.5524   72.2593    1.7485 C.3     1  UNL1        0.1830
     38 H          20.9854   72.6373    3.4636 H       1  UNL1        0.2105
     39 H          21.0820   70.1740   -0.5235 H       1  UNL1        0.2106
     40 H          23.7580   70.2673    2.9595 H       1  UNL1        0.2106
     41 O          26.3904   70.9782    2.4445 O.co2   1  UNL1       -0.5466
     42 O          26.3895   73.1862    3.0118 O.co2   1  UNL1       -0.5466
     43 C          25.8613   72.2252    2.4714 C.2     1  UNL1        0.0799
@<TRIPOS>UNITY_ATOM_ATTR
41 1
charge -1
@<TRIPOS>BOND
     1     1     4    1
     2     1    24    1
     3     1     2    1
     4     1     3    2
     5    25    28    1
     6    25    24    1
     7    25    26    1
     8    25    27    2
     9     6    11    1
    10     6    12    1
    11    29    36    1
    12    29    37    1
    13     7     9    1
    14     7    13    1
    15     8    10    1
    16     8    14    1
    17     4     5    1
    18    28    36    1
    19    30    33    1
    20    30    38    1
    21    31    34    1
    22    31    39    1
    23    32    35    1
    24    32    40    1
    25    41    43   ar
    26    15    19    2
    27    42    43   ar
    28    16    22    2
    29    17    12    1
    30    17    19   ar
    31    17    20   ar
    32    18    19   ar
    33    18    22   ar
    34    18    23    1
    35     9    10    1
    36     9    11    1
    37    10    12    1
    38    11     5    1
    39    33    34    1
    40    33    35    1
    41    34    36    1
    42    35    37    1
    43    37    43    1
    44    20    21   ar
    45    21    22   ar
@<TRIPOS>MOLECULE
UDP-glaA
 43 45 0 0 0
SMALL
GASTEIGER

@<TRIPOS>ATOM
      1 P          22.8870   71.3693   -2.4442 P.3     1  UNL1        0.2189
      2 O          22.6337   72.9659   -2.3785 O.3     1  UNL1       -0.4371
      3 O          24.1491   70.9569   -3.1435 O.2     1  UNL1       -0.5170
      4 O          21.5146   70.7823   -3.0665 O.3     1  UNL1       -0.3112
      5 C          20.8435   71.5382   -4.0602 C.3     1  UNL1        0.1811
      6 O          20.5659   70.9050   -6.3615 O.3     1  UNL1       -0.3308
      7 O          23.1942   72.2605   -6.8572 O.3     1  UNL1       -0.3794
      8 O          21.3939   74.1195   -7.7168 O.3     1  UNL1       -0.3779
      9 C          22.1474   72.6217   -5.9563 C.3     1  UNL1        0.1713
     10 C          20.9790   73.2108   -6.7180 C.3     1  UNL1        0.1895
     11 C          21.5477   71.3392   -5.3948 C.3     1  UNL1        0.1764
     12 C          20.3201   71.9695   -7.2952 C.3     1  UNL1        0.2383
     13 H          23.9025   71.8531   -6.3301 H       1  UNL1        0.2105
     14 H          21.8998   74.8253   -7.2785 H       1  UNL1        0.2106
     15 O          18.7464   70.4639   -9.0929 O.2     1  UNL1       -0.2464
     16 O          14.8930   72.6642   -7.8486 O.2     1  UNL1       -0.2670
     17 N          18.9035   72.1276   -7.4611 N.ar    1  UNL1       -0.2551
     18 N          16.8287   71.5609   -8.4725 N.ar    1  UNL1       -0.2743
     19 C          18.2069   71.3218   -8.3918 C.ar    1  UNL1        0.3323
     20 C          18.2185   73.0733   -6.7062 C.ar    1  UNL1        0.0869
     21 C          16.9041   73.2889   -6.7943 C.ar    1  UNL1        0.0795
     22 C          16.1032   72.4901   -7.7431 C.ar    1  UNL1        0.2626
     23 H          16.3076   70.9936   -9.1356 H       1  UNL1        0.1734
     24 O          22.8011   70.9247   -0.8917 O.3     1  UNL1       -0.2703
     25 P          21.7719   71.3533    0.2786 P.3     1  UNL1        0.2208
     26 O          21.6107   69.9976    1.1458 O.3     1  UNL1       -0.4371
     27 O          20.4770   71.9280   -0.2200 O.2     1  UNL1       -0.5170
     28 O          22.6208   72.3459    1.2263 O.3     1  UNL1       -0.2858
     29 O          24.2512   72.3368    2.9413 O.3     1  UNL1       -0.3226
     30 O          21.2112   74.6054    4.6417 O.3     1  UNL1       -0.3794
     31 O          20.5863   72.2174    3.0883 O.3     1  UNL1       -0.3775
     32 O          23.8214   73.9569    5.2713 O.3     1  UNL1       -0.3792
     33 C          22.0576   74.0758    3.6251 C.3     1  UNL1        0.1718
     34 C          21.8957   72.5547    3.5337 C.3     1  UNL1        0.1968
     35 C          23.5102   74.4291    3.9563 C.3     1  UNL1        0.1723
     36 C          22.9235   71.9562    2.5652 C.3     1  UNL1        0.2706
     37 C          24.4441   73.7504    2.9567 C.3     1  UNL1        0.1830
     38 H          21.3482   75.5678    4.6655 H       1  UNL1        0.2105
     39 H          20.5344   71.2481    3.0370 H       1  UNL1        0.2106
     40 H          23.9141   72.9897    5.2383 H       1  UNL1        0.2106
     41 O          26.0570   75.1824    3.8796 O.co2   1  UNL1       -0.5466
     42 O          26.7756   73.1496    3.1391 O.co2   1  UNL1       -0.5466
     43 C          25.8799   73.9620    3.3185 C.2     1  UNL1        0.0799
@<TRIPOS>UNITY_ATOM_ATTR
41 1
charge -1
@<TRIPOS>BOND
     1     1     4    1
     2     1    24    1
     3     1     2    1
     4     1     3    2
     5    25    28    1
     6    25    24    1
     7    25    26    1
     8    25    27    2
     9     6    11    1
    10     6    12    1
    11    29    36    1
    12    29    37    1
    13     7     9    1
    14     7    13    1
    15     8    10    1
    16     8    14    1
    17     4     5    1
    18    28    36    1
    19    30    33    1
    20    30    38    1
    21    31    34    1
    22    31    39    1
    23    32    35    1
    24    32    40    1
    25    41    43   ar
    26    15    19    2
    27    42    43   ar
    28    16    22    2
    29    17    12    1
    30    17    19   ar
    31    17    20   ar
    32    18    19   ar
    33    18    22   ar
    34    18    23    1
    35     9    10    1
    36     9    11    1
    37    10    12    1
    38    11     5    1
    39    33    34    1
    40    33    35    1
    41    34    36    1
    42    35    37    1
    43    37    43    1
    44    20    21   ar
    45    21    22   ar
@<TRIPOS>MOLECULE
UDP-glaA
 43 45 0 0 0
SMALL
GASTEIGER

@<TRIPOS>ATOM
      1 P          22.5947   72.5673   -4.3085 P.3     1  UNL1        0.2189
      2 O          24.2093   72.5213   -4.3992 O.3     1  UNL1       -0.4371
      3 O          22.0220   73.8869   -3.8812 O.2     1  UNL1       -0.5170
      4 O          22.2207   71.3025   -3.3725 O.3     1  UNL1       -0.3112
      5 C          22.6027   71.3334   -2.0078 C.3     1  UNL1        0.1811
      6 O          21.7767   71.0701    0.2333 O.3     1  UNL1       -0.3308
      7 O          19.1539   72.0769   -0.8148 O.3     1  UNL1       -0.3794
      8 O          20.1926   74.2820    0.4076 O.3     1  UNL1       -0.3779
      9 C          20.4795   72.4618   -1.1784 C.3     1  UNL1        0.1713
     10 C          21.0953   73.3163   -0.0906 C.3     1  UNL1        0.1895
     11 C          21.3569   71.2174   -1.1411 C.3     1  UNL1        0.1764
     12 C          21.4727   72.2772    0.9515 C.3     1  UNL1        0.2383
     13 H          18.8154   71.5006   -1.5211 H       1  UNL1        0.2105
     14 H          19.9165   74.8382   -0.3411 H       1  UNL1        0.2106
     15 O          21.3747   73.9230    3.2444 O.2     1  UNL1       -0.2464
     16 O          25.9411   73.6994    3.8243 O.2     1  UNL1       -0.2670
     17 N          22.6203   72.6644    1.7212 N.ar    1  UNL1       -0.2551
     18 N          23.6487   73.8110    3.5313 N.ar    1  UNL1       -0.2743
     19 C          22.4629   73.4949    2.8554 C.ar    1  UNL1        0.3323
     20 C          23.8852   72.2223    1.3499 C.ar    1  UNL1        0.0869
     21 C          25.0062   72.5320    2.0051 C.ar    1  UNL1        0.0795
     22 C          24.9292   73.3956    3.2001 C.ar    1  UNL1        0.2626
     23 H          23.5597   74.4074    4.3495 H       1  UNL1        0.1734
     24 O          22.1351   72.0784   -5.7799 O.3     1  UNL1       -0.2703
     25 P          20.9712   72.6205   -6.7618 P.3     1  UNL1        0.2208
     26 O          21.0569   71.6176   -8.0279 O.3     1  UNL1       -0.4371
     27 O          21.0909   74.0756   -7.1143 O.2     1  UNL1       -0.5170
     28 O          19.5936   72.2253   -6.0202 O.3     1  UNL1       -0.2858
     29 O          18.8256   70.0974   -5.3262 O.3     1  UNL1       -0.3226
     30 O          15.2704   72.0587   -6.2168 O.3     1  UNL1       -0.3794
     31 O          17.6076   72.3762   -7.9322 O.3     1  UNL1       -0.3775
     32 O          16.0018   69.6669   -5.0446 O.3     1  UNL1       -0.3792
     33 C          16.6124   71.8888   -5.7691 C.3     1  UNL1        0.1718
     34 C          17.4983   71.3868   -6.9144 C.3     1  UNL1        0.1968
     35 C          16.6261   70.8816   -4.6160 C.3     1  UNL1        0.1723
     36 C          18.9014   71.0377   -6.4029 C.3     1  UNL1        0.2706
     37 C          18.0685   70.5783   -4.2166 C.3     1  UNL1        0.1830
     38 H          14.7467   72.3743   -5.4606 H       1  UNL1        0.2105
     39 H          18.1833   72.0182   -8.6288 H       1  UNL1        0.2106
     40 H          16.6088   69.2031   -5.6460 H       1  UNL1        0.2106
     41 O          17.9410   68.2842   -3.7428 O.co2   1  UNL1       -0.5466
     42 O          18.3382   69.6859   -1.9893 O.co2   1  UNL1       -0.5466
     43 C          18.1346   69.5016   -3.1806 C.2     1  UNL1        0.0799
@<TRIPOS>UNITY_ATOM_ATTR
41 1
charge -1
@<TRIPOS>BOND
     1     1     4    1
     2     1    24    1
     3     1     2    1
     4     1     3    2
     5    25    28    1
     6    25    24    1
     7    25    26    1
     8    25    27    2
     9     6    11    1
    10     6    12    1
    11    29    36    1
    12    29    37    1
    13     7     9    1
    14     7    13    1
    15     8    10    1
    16     8    14    1
    17     4     5    1
    18    28    36    1
    19    30    33    1
    20    30    38    1
    21    31    34    1
    22    31    39    1
    23    32    35    1
    24    32    40    1
    25    41    43   ar
    26    15    19    2
    27    42    43   ar
    28    16    22    2
    29    17    12    1
    30    17    19   ar
    31    17    20   ar
    32    18    19   ar
    33    18    22   ar
    34    18    23    1
    35     9    10    1
    36     9    11    1
    37    10    12    1
    38    11     5    1
    39    33    34    1
    40    33    35    1
    41    34    36    1
    42    35    37    1
    43    37    43    1
    44    20    21   ar
    45    21    22   ar
@<TRIPOS>MOLECULE
UDP-glaA
 43 45 0 0 0
SMALL
GASTEIGER

@<TRIPOS>ATOM
      1 P          22.3421   73.1488   -7.1182 P.3     1  UNL1        0.2189
      2 O          23.2316   73.9242   -8.2250 O.3     1  UNL1       -0.4371
      3 O          23.1303   72.4462   -6.0518 O.2     1  UNL1       -0.5170
      4 O          21.3571   72.2132   -7.9957 O.3     1  UNL1       -0.3112
      5 C          19.9964   72.1143   -7.6112 C.3     1  UNL1        0.1811
      6 O          18.8876   70.0307   -7.1601 O.3     1  UNL1       -0.3308
      7 O          18.0772   70.0517  -10.0470 O.3     1  UNL1       -0.3794
      8 O          15.8142   70.9044   -8.7870 O.3     1  UNL1       -0.3779
      9 C          18.2080   71.1443   -9.1376 C.3     1  UNL1        0.1713
     10 C          17.0541   71.1526   -8.1572 C.3     1  UNL1        0.1895
     11 C          19.3964   70.8591   -8.2287 C.3     1  UNL1        0.1764
     12 C          17.4509   70.0476   -7.1931 C.3     1  UNL1        0.2383
     13 H          18.8563   70.0639  -10.6286 H       1  UNL1        0.2105
     14 H          15.6863   71.5923   -9.4627 H       1  UNL1        0.2106
     15 O          16.3009   68.0539   -5.5567 O.2     1  UNL1       -0.2464
     16 O          15.5831   71.0344   -2.1157 O.2     1  UNL1       -0.2670
     17 N          16.9558   70.2745   -5.8654 N.ar    1  UNL1       -0.2551
     18 N          15.9437   69.5395   -3.8445 N.ar    1  UNL1       -0.2743
     19 C          16.3959   69.2053   -5.1278 C.ar    1  UNL1        0.3323
     20 C          17.0274   71.5459   -5.3068 C.ar    1  UNL1        0.0869
     21 C          16.5924   71.8483   -4.0816 C.ar    1  UNL1        0.0795
     22 C          15.9932   70.7890   -3.2460 C.ar    1  UNL1        0.2626
     23 H          15.5368   68.7866   -3.2962 H       1  UNL1        0.1734
     24 O          21.3531   74.3061   -6.5726 O.3     1  UNL1       -0.2703
     25 P          21.6452   75.6055   -5.6567 P.3     1  UNL1        0.2208
     26 O          20.1831   76.2759   -5.4868 O.3     1  UNL1       -0.4371
     27 O          22.6900   76.5295   -6.2138 O.2     1  UNL1       -0.5170
     28 O          21.9926   75.0082   -4.1984 O.3     1  UNL1       -0.2858
     29 O          21.3925   72.8332   -3.4850 O.3     1  UNL1       -0.3226
     30 O          21.8219   74.8469    0.1261 O.3     1  UNL1       -0.3794
     31 O          20.5319   76.1404   -2.1473 O.3     1  UNL1       -0.3775
     32 O          21.4409   72.2322   -0.6788 O.3     1  UNL1       -0.3792
     33 C          22.0713   74.4973   -1.2325 C.3     1  UNL1        0.1718
     34 C          20.8239   74.7484   -2.0866 C.3     1  UNL1        0.1968
     35 C          22.4631   73.0186   -1.2995 C.3     1  UNL1        0.1723
     36 C          21.0248   74.2164   -3.5110 C.3     1  UNL1        0.2706
     37 C          22.5960   72.5885   -2.7588 C.3     1  UNL1        0.1830
     38 H          22.6354   74.6698    0.6286 H       1  UNL1        0.2105
     39 H          19.7430   76.2506   -2.7044 H       1  UNL1        0.2106
     40 H          20.6711   72.2025   -1.2718 H       1  UNL1        0.2106
     41 O          24.1791   70.8705   -2.9731 O.co2   1  UNL1       -0.5466
     42 O          21.9859   70.2555   -2.8789 O.co2   1  UNL1       -0.5466
     43 C          22.8509   71.1193   -2.8752 C.2     1  UNL1        0.0799
@<TRIPOS>UNITY_ATOM_ATTR
41 1
charge -1
@<TRIPOS>BOND
     1     1     4    1
     2     1    24    1
     3     1     2    1
     4     1     3    2
     5    25    28    1
     6    25    24    1
     7    25    26    1
     8    25    27    2
     9     6    11    1
    10     6    12    1
    11    29    36    1
    12    29    37    1
    13     7     9    1
    14     7    13    1
    15     8    10    1
    16     8    14    1
    17     4     5    1
    18    28    36    1
    19    30    33    1
    20    30    38    1
    21    31    34    1
    22    31    39    1
    23    32    35    1
    24    32    40    1
    25    41    43   ar
    26    15    19    2
    27    42    43   ar
    28    16    22    2
    29    17    12    1
    30    17    19   ar
    31    17    20   ar
    32    18    19   ar
    33    18    22   ar
    34    18    23    1
    35     9    10    1
    36     9    11    1
    37    10    12    1
    38    11     5    1
    39    33    34    1
    40    33    35    1
    41    34    36    1
    42    35    37    1
    43    37    43    1
    44    20    21   ar
    45    21    22   ar
@<TRIPOS>MOLECULE
UDP-glaA
 43 45 0 0 0
SMALL
GASTEIGER

@<TRIPOS>ATOM
      1 P          20.5882   73.2299   -4.4081 P.3     1  UNL1        0.2189
      2 O          20.0445   74.7536   -4.3971 O.3     1  UNL1       -0.4371
      3 O          20.6583   72.5926   -5.7649 O.2     1  UNL1       -0.5170
      4 O          19.6547   72.4752   -3.3243 O.3     1  UNL1       -0.3112
      5 C          19.1273   71.2016   -3.6546 C.3     1  UNL1        0.1811
      6 O          17.3750   71.7502   -5.2047 O.3     1  UNL1       -0.3308
      7 O          15.5299   70.2877   -3.3478 O.3     1  UNL1       -0.3794
      8 O          15.9612   68.4573   -5.3225 O.3     1  UNL1       -0.3779
      9 C          16.8864   69.9989   -3.6859 C.3     1  UNL1        0.1713
     10 C          16.9675   69.4192   -5.0823 C.3     1  UNL1        0.1895
     11 C          17.6223   71.3226   -3.8471 C.3     1  UNL1        0.1764
     12 C          16.8101   70.6577   -5.9480 C.3     1  UNL1        0.2383
     13 H          15.5314   70.6921   -2.4635 H       1  UNL1        0.2105
     14 H          16.0652   67.7532   -4.6595 H       1  UNL1        0.2106
     15 O          15.5591   70.8206   -8.4747 O.2     1  UNL1       -0.2464
     16 O          19.5490   70.1929  -10.6940 O.2     1  UNL1       -0.2670
     17 N          17.4977   70.5409   -7.2022 N.ar    1  UNL1       -0.2551
     18 N          17.5467   70.5074   -9.5782 N.ar    1  UNL1       -0.2743
     19 C          16.7762   70.6365   -8.4151 C.ar    1  UNL1        0.3323
     20 C          18.8725   70.3338   -7.2223 C.ar    1  UNL1        0.0869
     21 C          19.5929   70.2132   -8.3395 C.ar    1  UNL1        0.0795
     22 C          18.9156   70.3002   -9.6485 C.ar    1  UNL1        0.2626
     23 H          17.0489   70.5721  -10.4620 H       1  UNL1        0.1734
     24 O          22.0090   73.3467   -3.6446 O.3     1  UNL1       -0.2703
     25 P          22.6073   72.5268   -2.3868 P.3     1  UNL1        0.2208
     26 O          24.0872   73.1537   -2.2052 O.3     1  UNL1       -0.4371
     27 O          22.5826   71.0346   -2.5561 O.2     1  UNL1       -0.5170
     28 O          21.7759   73.0670   -1.1137 O.3     1  UNL1       -0.2858
     29 O          21.7933   71.5339    0.6887 O.3     1  UNL1       -0.3226
     30 O          19.1101   74.4151    2.0221 O.3     1  UNL1       -0.3794
     31 O          19.0781   73.5344   -0.7581 O.3     1  UNL1       -0.3775
     32 O          20.3704   72.2015    3.0904 O.3     1  UNL1       -0.3792
     33 C          20.2417   73.8705    1.3490 C.3     1  UNL1        0.1718
     34 C          19.7957   72.8705    0.2769 C.3     1  UNL1        0.1968
     35 C          21.1398   73.1733    2.3746 C.3     1  UNL1        0.1723
     36 C          21.0060   72.1531   -0.3338 C.3     1  UNL1        0.2706
     37 C          22.2837   72.4617    1.6553 C.3     1  UNL1        0.1830
     38 H          19.4391   75.0391    2.6914 H       1  UNL1        0.2105
     39 H          18.8256   72.8649   -1.4160 H       1  UNL1        0.2106
     40 H          20.2083   71.4430    2.5042 H       1  UNL1        0.2106
     41 O          22.9909   72.1371    3.8685 O.co2   1  UNL1       -0.5466
     42 O          23.8061   70.7009    2.2969 O.co2   1  UNL1       -0.5466
     43 C          23.1131   71.6592    2.6066 C.2     1  UNL1        0.0799
@<TRIPOS>UNITY_ATOM_ATTR
41 1
charge -1
@<TRIPOS>BOND
     1     1     4    1
     2     1    24    1
     3     1     2    1
     4     1     3    2
     5    25    28    1
     6    25    24    1
     7    25    26    1
     8    25    27    2
     9     6    11    1
    10     6    12    1
    11    29    36    1
    12    29    37    1
    13     7     9    1
    14     7    13    1
    15     8    10    1
    16     8    14    1
    17     4     5    1
    18    28    36    1
    19    30    33    1
    20    30    38    1
    21    31    34    1
    22    31    39    1
    23    32    35    1
    24    32    40    1
    25    41    43   ar
    26    15    19    2
    27    42    43   ar
    28    16    22    2
    29    17    12    1
    30    17    19   ar
    31    17    20   ar
    32    18    19   ar
    33    18    22   ar
    34    18    23    1
    35     9    10    1
    36     9    11    1
    37    10    12    1
    38    11     5    1
    39    33    34    1
    40    33    35    1
    41    34    36    1
    42    35    37    1
    43    37    43    1
    44    20    21   ar
    45    21    22   ar
@<TRIPOS>MOLECULE
UDP-glaA
 43 45 0 0 0
SMALL
GASTEIGER

@<TRIPOS>ATOM
      1 P          23.1851   73.2859   -3.3133 P.3     1  UNL1        0.2189
      2 O          24.1660   72.0184   -3.5338 O.3     1  UNL1       -0.4371
      3 O          23.8167   74.6251   -3.5579 O.2     1  UNL1       -0.5170
      4 O          22.5773   73.0553   -1.8324 O.3     1  UNL1       -0.3112
      5 C          23.4759   72.9302   -0.7433 C.3     1  UNL1        0.1811
      6 O          24.5284   71.1725    0.5125 O.3     1  UNL1       -0.3308
      7 O          21.7566   70.2624    1.2055 O.3     1  UNL1       -0.3794
      8 O          22.5270   71.5928    3.4576 O.3     1  UNL1       -0.3779
      9 C          22.2571   71.5892    1.0415 C.3     1  UNL1        0.1713
     10 C          23.1097   71.9795    2.2303 C.3     1  UNL1        0.1895
     11 C          23.2768   71.5701   -0.0896 C.3     1  UNL1        0.1764
     12 C          24.4078   71.2445    1.9428 C.3     1  UNL1        0.2383
     13 H          21.2506   70.0425    0.4047 H       1  UNL1        0.2105
     14 H          21.6548   72.0195    3.5149 H       1  UNL1        0.2106
     15 O          24.4087   73.9368    2.7953 O.2     1  UNL1       -0.2464
     16 O          28.8629   73.7561    3.9642 O.2     1  UNL1       -0.2670
     17 N          25.5532   71.9261    2.4745 N.ar    1  UNL1       -0.2551
     18 N          26.6269   73.8452    3.3763 N.ar    1  UNL1       -0.2743
     19 C          25.4481   73.2793    2.8729 C.ar    1  UNL1        0.3323
     20 C          26.7645   71.2545    2.5968 C.ar    1  UNL1        0.0869
     21 C          27.8794   71.8079    3.0792 C.ar    1  UNL1        0.0795
     22 C          27.8550   73.2177    3.5167 C.ar    1  UNL1        0.2626
     23 H          26.5750   74.8174    3.6684 H       1  UNL1        0.1734
     24 O          21.9318   72.9461   -4.2771 O.3     1  UNL1       -0.2703
     25 P          21.7550   73.0910   -5.8772 P.3     1  UNL1        0.2208
     26 O          23.1441   72.5011   -6.4590 O.3     1  UNL1       -0.4371
     27 O          21.4317   74.4836   -6.3376 O.2     1  UNL1       -0.5170
     28 O          20.6463   71.9855   -6.2679 O.3     1  UNL1       -0.2858
     29 O          19.0375   71.9828   -8.0031 O.3     1  UNL1       -0.3226
     30 O          17.0757   69.8920   -4.9933 O.3     1  UNL1       -0.3794
     31 O          18.6667   72.2534   -4.3621 O.3     1  UNL1       -0.3775
     32 O          16.6320   70.4547   -7.6610 O.3     1  UNL1       -0.3792
     33 C          18.1602   70.3553   -5.7929 C.3     1  UNL1        0.1718
     34 C          18.2926   71.8781   -5.6835 C.3     1  UNL1        0.1968
     35 C          17.9084   69.9546   -7.2491 C.3     1  UNL1        0.1723
     36 C          19.3428   72.4043   -6.6697 C.3     1  UNL1        0.2706
     37 C          18.9865   70.5638   -8.1428 C.3     1  UNL1        0.1830
     38 H          17.0280   68.9261   -5.0949 H       1  UNL1        0.2105
     39 H          18.7473   73.2219   -4.3440 H       1  UNL1        0.2106
     40 H          16.7032   71.4160   -7.7881 H       1  UNL1        0.2106
     41 O          19.5741   70.9928  -10.3732 O.co2   1  UNL1       -0.5466
     42 O          17.8245   69.5760  -10.0146 O.co2   1  UNL1       -0.5466
     43 C          18.7079   70.3063   -9.5895 C.2     1  UNL1        0.0799
@<TRIPOS>UNITY_ATOM_ATTR
41 1
charge -1
@<TRIPOS>BOND
     1     1     4    1
     2     1    24    1
     3     1     2    1
     4     1     3    2
     5    25    28    1
     6    25    24    1
     7    25    26    1
     8    25    27    2
     9     6    11    1
    10     6    12    1
    11    29    36    1
    12    29    37    1
    13     7     9    1
    14     7    13    1
    15     8    10    1
    16     8    14    1
    17     4     5    1
    18    28    36    1
    19    30    33    1
    20    30    38    1
    21    31    34    1
    22    31    39    1
    23    32    35    1
    24    32    40    1
    25    41    43   ar
    26    15    19    2
    27    42    43   ar
    28    16    22    2
    29    17    12    1
    30    17    19   ar
    31    17    20   ar
    32    18    19   ar
    33    18    22   ar
    34    18    23    1
    35     9    10    1
    36     9    11    1
    37    10    12    1
    38    11     5    1
    39    33    34    1
    40    33    35    1
    41    34    36    1
    42    35    37    1
    43    37    43    1
    44    20    21   ar
    45    21    22   ar
@<TRIPOS>MOLECULE
UDP-glaA
 43 45 0 0 0
SMALL
GASTEIGER

@<TRIPOS>ATOM
      1 P          20.4453   71.2346   -1.3178 P.3     1  UNL1        0.2189
      2 O          20.7461   70.5456    0.1147 O.3     1  UNL1       -0.4371
      3 O          20.0216   72.6728   -1.2519 O.2     1  UNL1       -0.5170
      4 O          19.3976   70.2249   -2.0237 O.3     1  UNL1       -0.3112
      5 C          19.1144   70.3972   -3.4018 C.3     1  UNL1        0.1811
      6 O          17.4625   71.4024   -4.8284 O.3     1  UNL1       -0.3308
      7 O          15.4332   69.8512   -3.2577 O.3     1  UNL1       -0.3794
      8 O          15.6971   68.3605   -5.5257 O.3     1  UNL1       -0.3779
      9 C          16.7556   69.4767   -3.6431 C.3     1  UNL1        0.1713
     10 C          16.7986   69.1466   -5.1202 C.3     1  UNL1        0.1895
     11 C          17.6357   70.7175   -3.5682 C.3     1  UNL1        0.1764
     12 C          16.7947   70.5278   -5.7527 C.3     1  UNL1        0.2383
     13 H          15.4627   70.0907   -2.3157 H       1  UNL1        0.2105
     14 H          15.7105   67.5435   -4.9980 H       1  UNL1        0.2106
     15 O          15.5265   70.5874   -8.2754 O.2     1  UNL1       -0.2464
     16 O          19.5593   70.6385  -10.5053 O.2     1  UNL1       -0.2670
     17 N          17.4885   70.5577   -7.0085 N.ar    1  UNL1       -0.2551
     18 N          17.5355   70.6123   -9.3841 N.ar    1  UNL1       -0.2743
     19 C          16.7576   70.5853   -8.2192 C.ar    1  UNL1        0.3323
     20 C          18.8788   70.5591   -7.0324 C.ar    1  UNL1        0.0869
     21 C          19.6061   70.5855   -8.1514 C.ar    1  UNL1        0.0795
     22 C          18.9198   70.6145   -9.4582 C.ar    1  UNL1        0.2626
     23 H          17.0312   70.6318  -10.2664 H       1  UNL1        0.1734
     24 O          21.8128   70.9724   -2.1403 O.3     1  UNL1       -0.2703
     25 P          23.3058   71.5539   -1.9280 P.3     1  UNL1        0.2208
     26 O          24.1939   70.6824   -2.9614 O.3     1  UNL1       -0.4371
     27 O          23.7877   71.5098   -0.5062 O.2     1  UNL1       -0.5170
     28 O          23.2640   73.0329   -2.5721 O.3     1  UNL1       -0.2858
     29 O          23.6846   73.0775   -4.9003 O.3     1  UNL1       -0.3226
     30 O          23.7452   77.1183   -3.9267 O.3     1  UNL1       -0.3794
     31 O          24.9874   75.1516   -2.1674 O.3     1  UNL1       -0.3775
     32 O          23.7869   75.6128   -6.2422 O.3     1  UNL1       -0.3792
     33 C          23.3578   75.7483   -3.8689 C.3     1  UNL1        0.1718
     34 C          24.5561   74.8694   -3.4945 C.3     1  UNL1        0.1968
     35 C          22.8088   75.3308   -5.2359 C.3     1  UNL1        0.1723
     36 C          24.1927   73.3829   -3.5974 C.3     1  UNL1        0.2706
     37 C          22.5208   73.8311   -5.2370 C.3     1  UNL1        0.1830
     38 H          22.9582   77.6357   -4.1687 H       1  UNL1        0.2105
     39 H          25.7389   74.5666   -1.9726 H       1  UNL1        0.2106
     40 H          24.5019   74.9580   -6.1700 H       1  UNL1        0.2106
     41 O          23.0828   72.6069   -7.1578 O.co2   1  UNL1       -0.5466
     42 O          21.0308   73.5994   -7.1228 O.co2   1  UNL1       -0.5466
     43 C          22.1048   73.3548   -6.5924 C.2     1  UNL1        0.0799
@<TRIPOS>UNITY_ATOM_ATTR
41 1
charge -1
@<TRIPOS>BOND
     1     1     4    1
     2     1    24    1
     3     1     2    1
     4     1     3    2
     5    25    28    1
     6    25    24    1
     7    25    26    1
     8    25    27    2
     9     6    11    1
    10     6    12    1
    11    29    36    1
    12    29    37    1
    13     7     9    1
    14     7    13    1
    15     8    10    1
    16     8    14    1
    17     4     5    1
    18    28    36    1
    19    30    33    1
    20    30    38    1
    21    31    34    1
    22    31    39    1
    23    32    35    1
    24    32    40    1
    25    41    43   ar
    26    15    19    2
    27    42    43   ar
    28    16    22    2
    29    17    12    1
    30    17    19   ar
    31    17    20   ar
    32    18    19   ar
    33    18    22   ar
    34    18    23    1
    35     9    10    1
    36     9    11    1
    37    10    12    1
    38    11     5    1
    39    33    34    1
    40    33    35    1
    41    34    36    1
    42    35    37    1
    43    37    43    1
    44    20    21   ar
    45    21    22   ar
@<TRIPOS>MOLECULE
UDP-glaA
 43 45 0 0 0
SMALL
GASTEIGER

@<TRIPOS>ATOM
      1 P          22.7169   74.7689   -1.6345 P.3     1  UNL1        0.2189
      2 O          24.1468   74.3697   -0.9916 O.3     1  UNL1       -0.4371
      3 O          22.6167   76.1831   -2.1265 O.2     1  UNL1       -0.5170
      4 O          21.6466   74.3418   -0.4998 O.3     1  UNL1       -0.3112
      5 C          22.0663   74.3214    0.8539 C.3     1  UNL1        0.1811
      6 O          22.6410   72.0834    1.5140 O.3     1  UNL1       -0.3308
      7 O          20.2442   72.1984    3.3123 O.3     1  UNL1       -0.3794
      8 O          22.3058   72.6555    5.0377 O.3     1  UNL1       -0.3779
      9 C          21.1663   73.2327    2.9691 C.3     1  UNL1        0.1713
     10 C          22.4837   73.0205    3.6847 C.3     1  UNL1        0.1895
     11 C          21.5620   73.0442    1.5105 C.3     1  UNL1        0.1764
     12 C          23.1166   71.9131    2.8594 C.3     1  UNL1        0.2383
     13 H          19.4314   72.3537    2.8017 H       1  UNL1        0.2105
     14 H          21.7997   73.3658    5.4684 H       1  UNL1        0.2106
     15 O          24.8145   69.7546    2.2008 O.2     1  UNL1       -0.2464
     16 O          28.6032   72.2839    2.8986 O.2     1  UNL1       -0.2670
     17 N          24.5500   71.9797    2.8601 N.ar    1  UNL1       -0.2551
     18 N          26.7000   71.0154    2.5492 N.ar    1  UNL1       -0.2743
     19 C          25.3106   70.8382    2.5146 C.ar    1  UNL1        0.3323
     20 C          25.1886   73.1669    3.2009 C.ar    1  UNL1        0.0869
     21 C          26.5143   73.3200    3.2287 C.ar    1  UNL1        0.0795
     22 C          27.3809   72.1761    2.8821 C.ar    1  UNL1        0.2626
     23 H          27.2668   70.2078    2.3050 H       1  UNL1        0.1734
     24 O          22.5055   73.6424   -2.7754 O.3     1  UNL1       -0.2703
     25 P          23.0575   72.1271   -2.8844 P.3     1  UNL1        0.2208
     26 O          23.5398   71.7985   -1.3759 O.3     1  UNL1       -0.4371
     27 O          24.1171   71.9313   -3.9306 O.2     1  UNL1       -0.5170
     28 O          21.7365   71.2250   -3.0965 O.3     1  UNL1       -0.2858
     29 O          20.2606   72.2267   -4.6514 O.3     1  UNL1       -0.3226
     30 O          18.0546   68.9573   -3.3383 O.3     1  UNL1       -0.3794
     31 O          19.6248   70.5376   -1.4560 O.3     1  UNL1       -0.3775
     32 O          17.8169   70.8742   -5.3129 O.3     1  UNL1       -0.3792
     33 C          19.2013   69.7196   -3.7050 C.3     1  UNL1        0.1718
     34 C          19.3447   70.9420   -2.7920 C.3     1  UNL1        0.1968
     35 C          19.0527   70.1681   -5.1615 C.3     1  UNL1        0.1723
     36 C          20.4717   71.8584   -3.2844 C.3     1  UNL1        0.2706
     37 C          20.2018   71.1040   -5.5299 C.3     1  UNL1        0.1830
     38 H          18.0021   68.1972   -3.9425 H       1  UNL1        0.2105
     39 H          19.7163   71.3426   -0.9190 H       1  UNL1        0.2106
     40 H          17.9097   71.7507   -4.9028 H       1  UNL1        0.2106
     41 O          19.3635   72.8497   -6.8542 O.co2   1  UNL1       -0.5466
     42 O          20.4293   71.1477   -7.9333 O.co2   1  UNL1       -0.5466
     43 C          20.0277   71.6699   -6.9035 C.2     1  UNL1        0.0799
@<TRIPOS>UNITY_ATOM_ATTR
41 1
charge -1
@<TRIPOS>BOND
     1     1     4    1
     2     1    24    1
     3     1     2    1
     4     1     3    2
     5    25    28    1
     6    25    24    1
     7    25    26    1
     8    25    27    2
     9     6    11    1
    10     6    12    1
    11    29    36    1
    12    29    37    1
    13     7     9    1
    14     7    13    1
    15     8    10    1
    16     8    14    1
    17     4     5    1
    18    28    36    1
    19    30    33    1
    20    30    38    1
    21    31    34    1
    22    31    39    1
    23    32    35    1
    24    32    40    1
    25    41    43   ar
    26    15    19    2
    27    42    43   ar
    28    16    22    2
    29    17    12    1
    30    17    19   ar
    31    17    20   ar
    32    18    19   ar
    33    18    22   ar
    34    18    23    1
    35     9    10    1
    36     9    11    1
    37    10    12    1
    38    11     5    1
    39    33    34    1
    40    33    35    1
    41    34    36    1
    42    35    37    1
    43    37    43    1
    44    20    21   ar
    45    21    22   ar
