@<TRIPOS>MOLECULE
*****
 43 45 0 0 0
SMALL
GASTEIGER

@<TRIPOS>ATOM
      1 P          22.9669   71.6590   -2.7228 P.3     1  UNL1        0.2189
      2 O          23.8016   72.9659   -3.1859 O.co2   1  UNL1       -0.4371
      3 O          23.4912   70.3541   -3.2463 O.2     1  UNL1       -0.5170
      4 O          21.4390   72.0128   -3.1205 O.3     1  UNL1       -0.3112
      5 C          20.5957   70.9651   -3.5629 C.3     1  UNL1        0.1811
      6 O          18.7289   71.9733   -4.6927 O.3     1  UNL1       -0.3308
      7 O          17.0208   70.7934   -2.5290 O.3     1  UNL1       -0.3794
      8 O          16.6405   69.0606   -4.6000 O.3     1  UNL1       -0.3779
      9 C          18.1868   70.2562   -3.1538 C.3     1  UNL1        0.1713
     10 C          17.8581   69.7744   -4.5510 C.3     1  UNL1        0.1895
     11 C          19.1440   71.4074   -3.4307 C.3     1  UNL1        0.1764
     12 C          17.8035   71.0779   -5.3293 C.3     1  UNL1        0.2383
     13 H          16.3942   70.0763   -2.3424 H       1  UNL1        0.2105
     14 H          16.7265   68.2392   -4.0901 H       1  UNL1        0.2106
     15 O          16.0116   70.4305   -7.4141 O.2     1  UNL1       -0.2464
     16 O          19.3766   70.4661  -10.5637 O.2     1  UNL1       -0.2670
     17 N          18.1845   70.9120   -6.7034 N.ar    1  UNL1       -0.2551
     18 N          17.6894   70.4479   -8.9806 N.ar    1  UNL1       -0.2743
     19 C          17.2065   70.5866   -7.6727 C.ar    1  UNL1        0.3323
     20 C          19.5126   71.0729   -7.0792 C.ar    1  UNL1        0.0869
     21 C          19.9579   70.9376   -8.3299 C.ar    1  UNL1        0.0795
     22 C          19.0005   70.5974   -9.4028 C.ar    1  UNL1        0.2626
     23 H          17.0274   70.2195   -9.6727 H       1  UNL1        0.1734
     24 O          22.9612   71.7845   -1.1112 O.3     1  UNL1       -0.2703
     25 P          22.4135   70.7786    0.0298 P.3     1  UNL1        0.2208
     26 O          23.6468   69.7516    0.2406 O.co2   1  UNL1       -0.4371
     27 O          21.1086   70.1171   -0.3073 O.2     1  UNL1       -0.5170
     28 O          22.3864   71.6646    1.3777 O.3     1  UNL1       -0.2858
     29 O          21.1557   72.3642    3.2764 O.3     1  UNL1       -0.3226
     30 O          21.3712   75.8569    1.0804 O.3     1  UNL1       -0.3794
     31 O          20.8321   73.3079   -0.2409 O.3     1  UNL1       -0.3775
     32 O          23.0527   75.5013    3.4250 O.3     1  UNL1       -0.3792
     33 C          21.8222   74.5917    1.5640 C.3     1  UNL1        0.1718
     34 C          20.8210   73.5062    1.1681 C.3     1  UNL1        0.1968
     35 C          21.9358   74.6809    3.0875 C.3     1  UNL1        0.1723
     36 C          21.1477   72.1820    1.8600 C.3     1  UNL1        0.2706
     37 C          22.1358   73.3034    3.7128 C.3     1  UNL1        0.1830
     38 H          21.2914   75.8242    0.1141 H       1  UNL1        0.2105
     39 H          20.6259   74.1442   -0.6863 H       1  UNL1        0.2106
     40 H          22.9379   76.3810    3.0329 H       1  UNL1        0.2106
     41 O          20.6377   73.7040    5.4726 O.co2   1  UNL1       -0.5466
     42 O          22.7675   73.1137    6.0336 O.co2   1  UNL1       -0.5466
     43 C          21.9171   73.3545    5.1899 C.2     1  UNL1        0.0799
@<TRIPOS>UNITY_ATOM_ATTR
2 1
charge -1
26 1
charge -1
41 1
charge -1
@<TRIPOS>BOND
     1     1     4    1
     2     1    24    1
     3     1     2    1
     4     1     3    2
     5    25    28    1
     6    25    24    1
     7    25    26    1
     8    25    27    2
     9     6    11    1
    10     6    12    1
    11    29    36    1
    12    29    37    1
    13     7     9    1
    14     7    13    1
    15     8    10    1
    16     8    14    1
    17     4     5    1
    18    28    36    1
    19    30    33    1
    20    30    38    1
    21    31    34    1
    22    31    39    1
    23    32    35    1
    24    32    40    1
    25    41    43   ar
    26    15    19    2
    27    42    43   ar
    28    16    22    2
    29    17    12    1
    30    17    19   ar
    31    17    20   ar
    32    18    19   ar
    33    18    22   ar
    34    18    23    1
    35     9    10    1
    36     9    11    1
    37    10    12    1
    38    11     5    1
    39    33    34    1
    40    33    35    1
    41    34    36    1
    42    35    37    1
    43    37    43    1
    44    20    21   ar
    45    21    22   ar
@<TRIPOS>MOLECULE
*****
 43 45 0 0 0
SMALL
GASTEIGER

@<TRIPOS>ATOM
      1 P          22.7725   71.7164   -2.1939 P.3     1  UNL1        0.2189
      2 O          23.3085   73.2287   -2.4046 O.co2   1  UNL1       -0.4371
      3 O          23.3977   70.6914   -3.0942 O.2     1  UNL1       -0.5170
      4 O          21.1640   71.8561   -2.2988 O.3     1  UNL1       -0.3112
      5 C          20.5358   71.5322   -3.5256 C.3     1  UNL1        0.1811
      6 O          18.5926   72.2939   -4.7178 O.3     1  UNL1       -0.3308
      7 O          16.9851   71.1119   -2.4794 O.3     1  UNL1       -0.3794
      8 O          16.7704   69.2195   -4.4310 O.3     1  UNL1       -0.3779
      9 C          18.1973   70.6405   -3.0683 C.3     1  UNL1        0.1713
     10 C          17.9196   70.0404   -4.4303 C.3     1  UNL1        0.1895
     11 C          19.0500   71.8515   -3.4215 C.3     1  UNL1        0.1764
     12 C          17.7535   71.2798   -5.2930 C.3     1  UNL1        0.2383
     13 H          16.4237   70.3559   -2.2452 H       1  UNL1        0.2105
     14 H          16.9264   68.4444   -3.8681 H       1  UNL1        0.2106
     15 O          16.0257   70.3827   -7.3391 O.2     1  UNL1       -0.2464
     16 O          19.4013   70.4646  -10.4764 O.2     1  UNL1       -0.2670
     17 N          18.1546   71.0583   -6.6535 N.ar    1  UNL1       -0.2551
     18 N          17.7088   70.4234   -8.8995 N.ar    1  UNL1       -0.2743
     19 C          17.2084   70.6067   -7.6037 C.ar    1  UNL1        0.3323
     20 C          19.4706   71.2893   -7.0350 C.ar    1  UNL1        0.0869
     21 C          19.9328   71.1102   -8.2740 C.ar    1  UNL1        0.0795
     22 C          19.0090   70.6391   -9.3267 C.ar    1  UNL1        0.2626
     23 H          17.0692   70.1074   -9.5780 H       1  UNL1        0.1734
     24 O          23.0131   71.4627   -0.6157 O.3     1  UNL1       -0.2703
     25 P          22.2285   70.5227    0.4400 P.3     1  UNL1        0.2208
     26 O          23.4268   69.8040    1.2571 O.co2   1  UNL1       -0.4371
     27 O          21.2520   69.5718   -0.1895 O.2     1  UNL1       -0.5170
     28 O          21.5748   71.5514    1.4968 O.3     1  UNL1       -0.2858
     29 O          22.2454   73.7745    1.0310 O.3     1  UNL1       -0.3226
     30 O          20.0784   74.2625    4.5144 O.3     1  UNL1       -0.3794
     31 O          21.9186   72.0130    4.2180 O.3     1  UNL1       -0.3775
     32 O          18.9266   75.0341    1.9592 O.3     1  UNL1       -0.3792
     33 C          20.4178   73.6633    3.2639 C.3     1  UNL1        0.1718
     34 C          21.8456   73.1203    3.3274 C.3     1  UNL1        0.1968
     35 C          20.3042   74.7365    2.1789 C.3     1  UNL1        0.1723
     36 C          22.3251   72.6792    1.9438 C.3     1  UNL1        0.2706
     37 C          20.9173   74.2657    0.8633 C.3     1  UNL1        0.1830
     38 H          20.1436   73.5991    5.2193 H       1  UNL1        0.2105
     39 H          21.6155   72.2858    5.0978 H       1  UNL1        0.2106
     40 H          18.5244   75.3349    2.7890 H       1  UNL1        0.2106
     41 O          21.7850   76.4178    0.5214 O.co2   1  UNL1       -0.5466
     42 O          20.6935   75.4463   -1.2290 O.co2   1  UNL1       -0.5466
     43 C          21.0999   75.4122   -0.0772 C.2     1  UNL1        0.0799
@<TRIPOS>UNITY_ATOM_ATTR
2 1
charge -1
26 1
charge -1
41 1
charge -1
@<TRIPOS>BOND
     1     1     4    1
     2     1    24    1
     3     1     2    1
     4     1     3    2
     5    25    28    1
     6    25    24    1
     7    25    26    1
     8    25    27    2
     9     6    11    1
    10     6    12    1
    11    29    36    1
    12    29    37    1
    13     7     9    1
    14     7    13    1
    15     8    10    1
    16     8    14    1
    17     4     5    1
    18    28    36    1
    19    30    33    1
    20    30    38    1
    21    31    34    1
    22    31    39    1
    23    32    35    1
    24    32    40    1
    25    41    43   ar
    26    15    19    2
    27    42    43   ar
    28    16    22    2
    29    17    12    1
    30    17    19   ar
    31    17    20   ar
    32    18    19   ar
    33    18    22   ar
    34    18    23    1
    35     9    10    1
    36     9    11    1
    37    10    12    1
    38    11     5    1
    39    33    34    1
    40    33    35    1
    41    34    36    1
    42    35    37    1
    43    37    43    1
    44    20    21   ar
    45    21    22   ar
@<TRIPOS>MOLECULE
*****
 43 45 0 0 0
SMALL
GASTEIGER

@<TRIPOS>ATOM
      1 P          21.9648   73.8957   -5.7148 P.3     1  UNL1        0.2189
      2 O          20.6558   74.4298   -4.9274 O.co2   1  UNL1       -0.4371
      3 O          23.0900   74.8833   -5.8164 O.2     1  UNL1       -0.5170
      4 O          21.3775   73.3527   -7.1213 O.3     1  UNL1       -0.3112
      5 C          20.2793   74.0313   -7.7025 C.3     1  UNL1        0.1811
      6 O          19.6325   71.7881   -8.2745 O.3     1  UNL1       -0.3308
      7 O          17.9125   73.0239  -10.3972 O.3     1  UNL1       -0.3794
      8 O          16.1139   72.4594   -8.4269 O.3     1  UNL1       -0.3779
      9 C          18.2104   73.5005   -9.0847 C.3     1  UNL1        0.1713
     10 C          17.4547   72.6938   -8.0501 C.3     1  UNL1        0.1895
     11 C          19.6572   73.1433   -8.7725 C.3     1  UNL1        0.1764
     12 C          18.2754   71.4171   -7.9844 C.3     1  UNL1        0.2383
     13 H          16.9930   73.2405  -10.6192 H       1  UNL1        0.2105
     14 H          15.6336   73.3023   -8.4540 H       1  UNL1        0.2106
     15 O          16.0605   69.9771   -6.9860 O.2     1  UNL1       -0.2464
     16 O          18.1996   69.0939   -3.0000 O.2     1  UNL1       -0.2670
     17 N          18.2267   70.8004   -6.6890 N.ar    1  UNL1       -0.2551
     18 N          17.1276   69.5395   -5.0013 N.ar    1  UNL1       -0.2743
     19 C          17.0658   70.1002   -6.2838 C.ar    1  UNL1        0.3323
     20 C          19.3201   70.8909   -5.8362 C.ar    1  UNL1        0.0869
     21 C          19.3642   70.3511   -4.6166 C.ar    1  UNL1        0.0795
     22 C          18.1919   69.6032   -4.1166 C.ar    1  UNL1        0.2626
     23 H          16.3304   69.0488   -4.6963 H       1  UNL1        0.1734
     24 O          22.3330   72.5343   -4.9249 O.3     1  UNL1       -0.2703
     25 P          23.1153   72.2946   -3.5305 P.3     1  UNL1        0.2208
     26 O          24.3836   73.2942   -3.6414 O.co2   1  UNL1       -0.4371
     27 O          23.4783   70.8620   -3.2665 O.2     1  UNL1       -0.5170
     28 O          22.1671   72.9626   -2.4093 O.3     1  UNL1       -0.2858
     29 O          21.4451   71.1452   -1.0734 O.3     1  UNL1       -0.3226
     30 O          19.8375   74.3676    0.9513 O.3     1  UNL1       -0.3794
     31 O          19.7451   74.2563   -1.9664 O.3     1  UNL1       -0.3775
     32 O          22.1950   73.0205    1.9898 O.3     1  UNL1       -0.3792
     33 C          20.7943   73.6814    0.1442 C.3     1  UNL1        0.1718
     34 C          20.1177   73.1691   -1.1275 C.3     1  UNL1        0.1968
     35 C          21.3493   72.5117    0.9600 C.3     1  UNL1        0.1723
     36 C          21.0479   72.2365   -1.9045 C.3     1  UNL1        0.2706
     37 C          22.1621   71.5597    0.0873 C.3     1  UNL1        0.1830
     38 H          19.4710   75.1153    0.4535 H       1  UNL1        0.2105
     39 H          19.1549   74.8522   -1.4797 H       1  UNL1        0.2106
     40 H          21.6898   73.6280    2.5524 H       1  UNL1        0.2106
     41 O          21.6128   69.2916    0.3224 O.co2   1  UNL1       -0.5466
     42 O          23.2375   70.1159    1.6935 O.co2   1  UNL1       -0.5466
     43 C          22.4173   70.2725    0.8015 C.2     1  UNL1        0.0799
@<TRIPOS>UNITY_ATOM_ATTR
2 1
charge -1
26 1
charge -1
41 1
charge -1
@<TRIPOS>BOND
     1     1     4    1
     2     1    24    1
     3     1     2    1
     4     1     3    2
     5    25    28    1
     6    25    24    1
     7    25    26    1
     8    25    27    2
     9     6    11    1
    10     6    12    1
    11    29    36    1
    12    29    37    1
    13     7     9    1
    14     7    13    1
    15     8    10    1
    16     8    14    1
    17     4     5    1
    18    28    36    1
    19    30    33    1
    20    30    38    1
    21    31    34    1
    22    31    39    1
    23    32    35    1
    24    32    40    1
    25    41    43   ar
    26    15    19    2
    27    42    43   ar
    28    16    22    2
    29    17    12    1
    30    17    19   ar
    31    17    20   ar
    32    18    19   ar
    33    18    22   ar
    34    18    23    1
    35     9    10    1
    36     9    11    1
    37    10    12    1
    38    11     5    1
    39    33    34    1
    40    33    35    1
    41    34    36    1
    42    35    37    1
    43    37    43    1
    44    20    21   ar
    45    21    22   ar
@<TRIPOS>MOLECULE
*****
 43 45 0 0 0
SMALL
GASTEIGER

@<TRIPOS>ATOM
      1 P          22.9334   72.0930   -3.1316 P.3     1  UNL1        0.2189
      2 O          23.7743   73.0177   -4.1595 O.co2   1  UNL1       -0.4371
      3 O          23.4945   70.7188   -2.9113 O.2     1  UNL1       -0.5170
      4 O          21.4214   72.1510   -3.7048 O.3     1  UNL1       -0.3112
      5 C          20.6294   70.9790   -3.6428 C.3     1  UNL1        0.1811
      6 O          18.7212   71.9299   -4.7529 O.3     1  UNL1       -0.3308
      7 O          17.0721   70.6966   -2.5732 O.3     1  UNL1       -0.3794
      8 O          16.7245   68.9541   -4.6417 O.3     1  UNL1       -0.3779
      9 C          18.2478   70.1960   -3.2101 C.3     1  UNL1        0.1713
     10 C          17.9200   69.7051   -4.6043 C.3     1  UNL1        0.1895
     11 C          19.1663   71.3763   -3.4956 C.3     1  UNL1        0.1764
     12 C          17.8174   71.0068   -5.3809 C.3     1  UNL1        0.2383
     13 H          16.4698   69.9605   -2.3808 H       1  UNL1        0.2105
     14 H          16.8410   68.1355   -4.1335 H       1  UNL1        0.2106
     15 O          16.0090   70.3966   -7.4627 O.2     1  UNL1       -0.2464
     16 O          19.3566   70.4421  -10.6307 O.2     1  UNL1       -0.2670
     17 N          18.1895   70.8535   -6.7589 N.ar    1  UNL1       -0.2551
     18 N          17.6782   70.4188   -9.0384 N.ar    1  UNL1       -0.2743
     19 C          17.2036   70.5465   -7.7263 C.ar    1  UNL1        0.3323
     20 C          19.5167   71.0085   -7.1404 C.ar    1  UNL1        0.0869
     21 C          19.9539   70.8838   -8.3950 C.ar    1  UNL1        0.0795
     22 C          18.9880   70.5631   -9.4663 C.ar    1  UNL1        0.2626
     23 H          17.0106   70.2033   -9.7292 H       1  UNL1        0.1734
     24 O          22.8533   73.0087   -1.8020 O.3     1  UNL1       -0.2703
     25 P          21.9403   74.2967   -1.4537 P.3     1  UNL1        0.2208
     26 O          20.4311   73.7243   -1.5764 O.co2   1  UNL1       -0.4371
     27 O          22.2177   75.4979   -2.3103 O.2     1  UNL1       -0.5170
     28 O          22.1574   74.5368    0.1267 O.3     1  UNL1       -0.2858
     29 O          23.7986   74.4078    1.8294 O.3     1  UNL1       -0.3226
     30 O          20.7855   72.0484    3.3856 O.3     1  UNL1       -0.3794
     31 O          21.4946   71.8701    0.5572 O.3     1  UNL1       -0.3775
     32 O          21.2217   74.7294    4.4213 O.3     1  UNL1       -0.3792
     33 C          21.3381   73.1247    2.6279 C.3     1  UNL1        0.1718
     34 C          22.2541   72.5663    1.5386 C.3     1  UNL1        0.1968
     35 C          22.1314   74.0179    3.5843 C.3     1  UNL1        0.1723
     36 C          23.0402   73.6872    0.8572 C.3     1  UNL1        0.2706
     37 C          22.9861   75.0276    2.8237 C.3     1  UNL1        0.1830
     38 H          20.2767   71.4672    2.7985 H       1  UNL1        0.2105
     39 H          20.9930   71.1576    0.9827 H       1  UNL1        0.2106
     40 H          20.6716   74.0982    4.9110 H       1  UNL1        0.2106
     41 O          24.6732   74.7176    4.4234 O.co2   1  UNL1       -0.5466
     42 O          24.1787   76.8646    3.8360 O.co2   1  UNL1       -0.5466
     43 C          23.9904   75.6620    3.7300 C.2     1  UNL1        0.0799
@<TRIPOS>UNITY_ATOM_ATTR
2 1
charge -1
26 1
charge -1
41 1
charge -1
@<TRIPOS>BOND
     1     1     4    1
     2     1    24    1
     3     1     2    1
     4     1     3    2
     5    25    28    1
     6    25    24    1
     7    25    26    1
     8    25    27    2
     9     6    11    1
    10     6    12    1
    11    29    36    1
    12    29    37    1
    13     7     9    1
    14     7    13    1
    15     8    10    1
    16     8    14    1
    17     4     5    1
    18    28    36    1
    19    30    33    1
    20    30    38    1
    21    31    34    1
    22    31    39    1
    23    32    35    1
    24    32    40    1
    25    41    43   ar
    26    15    19    2
    27    42    43   ar
    28    16    22    2
    29    17    12    1
    30    17    19   ar
    31    17    20   ar
    32    18    19   ar
    33    18    22   ar
    34    18    23    1
    35     9    10    1
    36     9    11    1
    37    10    12    1
    38    11     5    1
    39    33    34    1
    40    33    35    1
    41    34    36    1
    42    35    37    1
    43    37    43    1
    44    20    21   ar
    45    21    22   ar
@<TRIPOS>MOLECULE
*****
 43 45 0 0 0
SMALL
GASTEIGER

@<TRIPOS>ATOM
      1 P          22.8693   72.7327   -3.8009 P.3     1  UNL1        0.2189
      2 O          23.1472   73.3651   -5.2644 O.co2   1  UNL1       -0.4371
      3 O          23.5062   71.3961   -3.5570 O.2     1  UNL1       -0.5170
      4 O          21.2585   72.7804   -3.6566 O.3     1  UNL1       -0.3112
      5 C          20.5512   71.5572   -3.5671 C.3     1  UNL1        0.1811
      6 O          18.5795   72.2843   -4.7338 O.3     1  UNL1       -0.3308
      7 O          17.0228   71.0835   -2.4697 O.3     1  UNL1       -0.3794
      8 O          16.8109   69.1822   -4.4130 O.3     1  UNL1       -0.3779
      9 C          18.2340   70.6297   -3.0744 C.3     1  UNL1        0.1713
     10 C          17.9467   70.0213   -4.4307 C.3     1  UNL1        0.1895
     11 C          19.0621   71.8530   -3.4429 C.3     1  UNL1        0.1764
     12 C          17.7487   71.2553   -5.2944 C.3     1  UNL1        0.2383
     13 H          16.4769   70.3193   -2.2255 H       1  UNL1        0.2105
     14 H          16.9872   68.4113   -3.8502 H       1  UNL1        0.2106
     15 O          16.0132   70.3006   -7.3077 O.2     1  UNL1       -0.2464
     16 O          19.3357   70.4523  -10.4986 O.2     1  UNL1       -0.2670
     17 N          18.1340   71.0361   -6.6598 N.ar    1  UNL1       -0.2551
     18 N          17.6699   70.3761   -8.8948 N.ar    1  UNL1       -0.2743
     19 C          17.1853   70.5540   -7.5923 C.ar    1  UNL1        0.3323
     20 C          19.4374   71.2994   -7.0634 C.ar    1  UNL1        0.0869
     21 C          19.8845   71.1250   -8.3086 C.ar    1  UNL1        0.0795
     22 C          18.9571   70.6234   -9.3438 C.ar    1  UNL1        0.2626
     23 H          17.0283   70.0394   -9.5613 H       1  UNL1        0.1734
     24 O          23.3586   73.9043   -2.8004 O.3     1  UNL1       -0.2703
     25 P          22.5200   75.0043   -1.9635 P.3     1  UNL1        0.2208
     26 O          21.0809   75.0147   -2.7047 O.co2   1  UNL1       -0.4371
     27 O          23.1816   76.3493   -1.8787 O.2     1  UNL1       -0.5170
     28 O          22.2382   74.3056   -0.5370 O.3     1  UNL1       -0.2858
     29 O          21.4855   72.0622   -0.4405 O.3     1  UNL1       -0.3226
     30 O          20.5182   73.4365    3.3336 O.3     1  UNL1       -0.3794
     31 O          20.0527   75.1091    0.9841 O.3     1  UNL1       -0.3775
     32 O          22.8177   71.6979    2.9587 O.3     1  UNL1       -0.3792
     33 C          21.2833   73.3607    2.1307 C.3     1  UNL1        0.1718
     34 C          20.4004   73.7301    0.9385 C.3     1  UNL1        0.1968
     35 C          21.7986   71.9269    1.9875 C.3     1  UNL1        0.1723
     36 C          21.1150   73.4401   -0.3822 C.3     1  UNL1        0.2706
     37 C          22.3833   71.6811    0.5996 C.3     1  UNL1        0.1830
     38 H          20.1803   74.3390    3.4458 H       1  UNL1        0.2105
     39 H          19.5991   75.3003    1.8196 H       1  UNL1        0.2106
     40 H          22.4586   71.8511    3.8466 H       1  UNL1        0.2106
     41 O          21.3920   69.5633    0.4164 O.co2   1  UNL1       -0.5466
     42 O          23.6512   69.6822    0.1323 O.co2   1  UNL1       -0.5466
     43 C          22.5771   70.2197    0.3568 C.2     1  UNL1        0.0799
@<TRIPOS>UNITY_ATOM_ATTR
2 1
charge -1
26 1
charge -1
41 1
charge -1
@<TRIPOS>BOND
     1     1     4    1
     2     1    24    1
     3     1     2    1
     4     1     3    2
     5    25    28    1
     6    25    24    1
     7    25    26    1
     8    25    27    2
     9     6    11    1
    10     6    12    1
    11    29    36    1
    12    29    37    1
    13     7     9    1
    14     7    13    1
    15     8    10    1
    16     8    14    1
    17     4     5    1
    18    28    36    1
    19    30    33    1
    20    30    38    1
    21    31    34    1
    22    31    39    1
    23    32    35    1
    24    32    40    1
    25    41    43   ar
    26    15    19    2
    27    42    43   ar
    28    16    22    2
    29    17    12    1
    30    17    19   ar
    31    17    20   ar
    32    18    19   ar
    33    18    22   ar
    34    18    23    1
    35     9    10    1
    36     9    11    1
    37    10    12    1
    38    11     5    1
    39    33    34    1
    40    33    35    1
    41    34    36    1
    42    35    37    1
    43    37    43    1
    44    20    21   ar
    45    21    22   ar
@<TRIPOS>MOLECULE
*****
 43 45 0 0 0
SMALL
GASTEIGER

@<TRIPOS>ATOM
      1 P          21.7890   70.9001   -1.4975 P.3     1  UNL1        0.2189
      2 O          23.0715   70.4613   -2.3816 O.co2   1  UNL1       -0.4371
      3 O          20.8933   69.7718   -1.0773 O.2     1  UNL1       -0.5170
      4 O          21.0887   72.0623   -2.3789 O.3     1  UNL1       -0.3112
      5 C          20.4812   71.7060   -3.6071 C.3     1  UNL1        0.1811
      6 O          18.4993   72.3316   -4.8148 O.3     1  UNL1       -0.3308
      7 O          16.9586   71.1324   -2.5389 O.3     1  UNL1       -0.3794
      8 O          16.8396   69.1764   -4.4353 O.3     1  UNL1       -0.3779
      9 C          18.1928   70.7078   -3.1178 C.3     1  UNL1        0.1713
     10 C          17.9446   70.0555   -4.4613 C.3     1  UNL1        0.1895
     11 C          18.9810   71.9507   -3.5078 C.3     1  UNL1        0.1764
     12 C          17.7131   71.2594   -5.3584 C.3     1  UNL1        0.2383
     13 H          16.4375   70.3553   -2.2816 H       1  UNL1        0.2105
     14 H          17.0364   68.4269   -3.8510 H       1  UNL1        0.2106
     15 O          15.9558   70.5655   -7.4576 O.2     1  UNL1       -0.2464
     16 O          19.3972   70.3650  -10.5171 O.2     1  UNL1       -0.2670
     17 N          18.1232   71.0202   -6.7133 N.ar    1  UNL1       -0.2551
     18 N          17.6716   70.4653   -8.9792 N.ar    1  UNL1       -0.2743
     19 C          17.1606   70.6771   -7.6919 C.ar    1  UNL1        0.3323
     20 C          19.4641   71.1277   -7.0613 C.ar    1  UNL1        0.0869
     21 C          19.9362   70.9229   -8.2926 C.ar    1  UNL1        0.0795
     22 C          18.9964   70.5598   -9.3735 C.ar    1  UNL1        0.2626
     23 H          17.0207   70.2233   -9.6771 H       1  UNL1        0.1734
     24 O          22.4549   71.7222   -0.2754 O.3     1  UNL1       -0.2703
     25 P          21.7810   72.5507    0.9383 P.3     1  UNL1        0.2208
     26 O          21.7040   71.4605    2.1324 O.co2   1  UNL1       -0.4371
     27 O          20.4646   73.1853    0.5945 O.2     1  UNL1       -0.5170
     28 O          22.9225   73.5893    1.4083 O.3     1  UNL1       -0.2858
     29 O          23.4263   75.7902    2.1233 O.3     1  UNL1       -0.3226
     30 O          25.2625   75.6670   -1.5754 O.3     1  UNL1       -0.3794
     31 O          22.6093   74.5035   -1.1998 O.3     1  UNL1       -0.3775
     32 O          26.8538   75.4838    0.8505 O.3     1  UNL1       -0.3792
     33 C          24.7871   75.1366   -0.3382 C.3     1  UNL1        0.1718
     34 C          23.2728   75.3271   -0.2480 C.3     1  UNL1        0.1968
     35 C          25.4865   75.8866    0.7977 C.3     1  UNL1        0.1723
     36 C          22.7606   74.9831    1.1513 C.3     1  UNL1        0.2706
     37 C          24.8374   75.5869    2.1458 C.3     1  UNL1        0.1830
     38 H          24.8317   75.2055   -2.3121 H       1  UNL1        0.2105
     39 H          22.9297   74.7163   -2.0900 H       1  UNL1        0.2106
     40 H          27.2786   75.6690   -0.0017 H       1  UNL1        0.2106
     41 O          26.1934   77.4306    2.6590 O.co2   1  UNL1       -0.5466
     42 O          24.9269   76.5687    4.3479 O.co2   1  UNL1       -0.5466
     43 C          25.2996   76.5565    3.1843 C.2     1  UNL1        0.0799
@<TRIPOS>UNITY_ATOM_ATTR
2 1
charge -1
26 1
charge -1
41 1
charge -1
@<TRIPOS>BOND
     1     1     4    1
     2     1    24    1
     3     1     2    1
     4     1     3    2
     5    25    28    1
     6    25    24    1
     7    25    26    1
     8    25    27    2
     9     6    11    1
    10     6    12    1
    11    29    36    1
    12    29    37    1
    13     7     9    1
    14     7    13    1
    15     8    10    1
    16     8    14    1
    17     4     5    1
    18    28    36    1
    19    30    33    1
    20    30    38    1
    21    31    34    1
    22    31    39    1
    23    32    35    1
    24    32    40    1
    25    41    43   ar
    26    15    19    2
    27    42    43   ar
    28    16    22    2
    29    17    12    1
    30    17    19   ar
    31    17    20   ar
    32    18    19   ar
    33    18    22   ar
    34    18    23    1
    35     9    10    1
    36     9    11    1
    37    10    12    1
    38    11     5    1
    39    33    34    1
    40    33    35    1
    41    34    36    1
    42    35    37    1
    43    37    43    1
    44    20    21   ar
    45    21    22   ar
@<TRIPOS>MOLECULE
*****
 43 45 0 0 0
SMALL
GASTEIGER

@<TRIPOS>ATOM
      1 P          21.8311   71.0091   -1.3466 P.3     1  UNL1        0.2189
      2 O          23.1854   70.5255   -2.0887 O.co2   1  UNL1       -0.4371
      3 O          20.9378   69.9003   -0.8727 O.2     1  UNL1       -0.5170
      4 O          21.1655   72.0494   -2.3919 O.3     1  UNL1       -0.3112
      5 C          20.5061   71.5325   -3.5331 C.3     1  UNL1        0.1811
      6 O          18.5408   72.2714   -4.7033 O.3     1  UNL1       -0.3308
      7 O          16.9708   71.0219   -2.4751 O.3     1  UNL1       -0.3794
      8 O          16.7848   69.1556   -4.4545 O.3     1  UNL1       -0.3779
      9 C          18.1893   70.5851   -3.0775 C.3     1  UNL1        0.1713
     10 C          17.9166   70.0003   -4.4471 C.3     1  UNL1        0.1895
     11 C          19.0145   71.8189   -3.4164 C.3     1  UNL1        0.1764
     12 C          17.7199   71.2489   -5.2897 C.3     1  UNL1        0.2383
     13 H          16.4266   70.2508   -2.2496 H       1  UNL1        0.2105
     14 H          16.9601   68.3754   -3.9044 H       1  UNL1        0.2106
     15 O          16.0003   70.3459   -7.3401 O.2     1  UNL1       -0.2464
     16 O          19.3556   70.5479  -10.4936 O.2     1  UNL1       -0.2670
     17 N          18.1180   71.0567   -6.6556 N.ar    1  UNL1       -0.2551
     18 N          17.6733   70.4464   -8.9086 N.ar    1  UNL1       -0.2743
     19 C          17.1764   70.5993   -7.6075 C.ar    1  UNL1        0.3323
     20 C          19.4266   71.3218   -7.0404 C.ar    1  UNL1        0.0869
     21 C          19.8855   71.1714   -8.2845 C.ar    1  UNL1        0.0795
     22 C          18.9662   70.6965   -9.3393 C.ar    1  UNL1        0.2626
     23 H          17.0368   70.1271   -9.5884 H       1  UNL1        0.1734
     24 O          22.3845   71.9753   -0.1749 O.3     1  UNL1       -0.2703
     25 P          21.6145   72.7346    1.0269 P.3     1  UNL1        0.2208
     26 O          21.1895   71.5257    2.0160 O.co2   1  UNL1       -0.4371
     27 O          20.4708   73.5971    0.5776 O.2     1  UNL1       -0.5170
     28 O          22.7752   73.5231    1.8229 O.3     1  UNL1       -0.2858
     29 O          21.2997   74.7282    3.2300 O.3     1  UNL1       -0.3226
     30 O          24.8208   74.8693    5.3864 O.3     1  UNL1       -0.3794
     31 O          24.8404   75.2620    2.4916 O.3     1  UNL1       -0.3775
     32 O          22.6832   73.0743    6.1986 O.3     1  UNL1       -0.3792
     33 C          23.8612   74.3035    4.4937 C.3     1  UNL1        0.1718
     34 C          23.6666   75.2328    3.2954 C.3     1  UNL1        0.1968
     35 C          22.5454   74.1371    5.2573 C.3     1  UNL1        0.1723
     36 C          22.4859   74.7780    2.4363 C.3     1  UNL1        0.2706
     37 C          21.3920   73.8070    4.3144 C.3     1  UNL1        0.1830
     38 H          25.6653   74.9844    4.9230 H       1  UNL1        0.2105
     39 H          25.5936   75.5495    3.0304 H       1  UNL1        0.2106
     40 H          23.4143   73.2719    6.8047 H       1  UNL1        0.2106
     41 O          20.2586   74.3784    6.2868 O.co2   1  UNL1       -0.5466
     42 O          18.9863   73.7690    4.4954 O.co2   1  UNL1       -0.5466
     43 C          20.0779   73.9705    5.0062 C.2     1  UNL1        0.0799
@<TRIPOS>UNITY_ATOM_ATTR
2 1
charge -1
26 1
charge -1
41 1
charge -1
@<TRIPOS>BOND
     1     1     4    1
     2     1    24    1
     3     1     2    1
     4     1     3    2
     5    25    28    1
     6    25    24    1
     7    25    26    1
     8    25    27    2
     9     6    11    1
    10     6    12    1
    11    29    36    1
    12    29    37    1
    13     7     9    1
    14     7    13    1
    15     8    10    1
    16     8    14    1
    17     4     5    1
    18    28    36    1
    19    30    33    1
    20    30    38    1
    21    31    34    1
    22    31    39    1
    23    32    35    1
    24    32    40    1
    25    41    43   ar
    26    15    19    2
    27    42    43   ar
    28    16    22    2
    29    17    12    1
    30    17    19   ar
    31    17    20   ar
    32    18    19   ar
    33    18    22   ar
    34    18    23    1
    35     9    10    1
    36     9    11    1
    37    10    12    1
    38    11     5    1
    39    33    34    1
    40    33    35    1
    41    34    36    1
    42    35    37    1
    43    37    43    1
    44    20    21   ar
    45    21    22   ar
@<TRIPOS>MOLECULE
*****
 43 45 0 0 0
SMALL
GASTEIGER

@<TRIPOS>ATOM
      1 P          21.6176   74.8081   -7.0838 P.3     1  UNL1        0.2189
      2 O          20.8911   76.1843   -7.5275 O.co2   1  UNL1       -0.4371
      3 O          23.0347   74.9623   -6.6150 O.2     1  UNL1       -0.5170
      4 O          21.3999   73.8274   -8.3522 O.3     1  UNL1       -0.3112
      5 C          21.3109   72.4333   -8.1215 C.3     1  UNL1        0.1811
      6 O          19.6895   70.6717   -8.3344 O.3     1  UNL1       -0.3308
      7 O          18.3067   72.4377  -10.3246 O.3     1  UNL1       -0.3794
      8 O          16.8153   72.7986   -8.0704 O.3     1  UNL1       -0.3779
      9 C          19.0035   72.7945   -9.1305 C.3     1  UNL1        0.1713
     10 C          18.1732   72.4431   -7.9143 C.3     1  UNL1        0.1895
     11 C          20.1950   71.8580   -8.9843 C.3     1  UNL1        0.1764
     12 C          18.3769   70.9408   -7.8167 C.3     1  UNL1        0.2383
     13 H          17.5409   73.0226  -10.4395 H       1  UNL1        0.2105
     14 H          16.7384   73.7644   -8.1274 H       1  UNL1        0.2106
     15 O          16.1410   69.6113   -6.7167 O.2     1  UNL1       -0.2464
     16 O          18.1985   69.1566   -2.6174 O.2     1  UNL1       -0.2670
     17 N          18.3015   70.4642   -6.4647 N.ar    1  UNL1       -0.2551
     18 N          17.1675   69.3870   -4.6758 N.ar    1  UNL1       -0.2743
     19 C          17.1321   69.8091   -6.0113 C.ar    1  UNL1        0.3323
     20 C          19.3775   70.6457   -5.6043 C.ar    1  UNL1        0.0869
     21 C          19.3965   70.2377   -4.3339 C.ar    1  UNL1        0.0795
     22 C          18.2138   69.5452   -3.7815 C.ar    1  UNL1        0.2626
     23 H          16.3639   68.9302   -4.3369 H       1  UNL1        0.1734
     24 O          20.6048   74.2031   -5.9787 O.3     1  UNL1       -0.2703
     25 P          20.2522   74.6954   -4.4797 P.3     1  UNL1        0.2208
     26 O          18.6369   74.6024   -4.4302 O.co2   1  UNL1       -0.4371
     27 O          20.8049   76.0466   -4.1294 O.2     1  UNL1       -0.5170
     28 O          20.7585   73.4971   -3.5256 O.3     1  UNL1       -0.2858
     29 O          21.7546   73.4573   -1.3773 O.3     1  UNL1       -0.3226
     30 O          23.7236   70.3603   -3.2745 O.3     1  UNL1       -0.3794
     31 O          23.2104   72.8699   -4.6791 O.3     1  UNL1       -0.3775
     32 O          21.6421   69.7903   -1.3269 O.3     1  UNL1       -0.3792
     33 C          22.6253   71.2274   -2.9922 C.3     1  UNL1        0.1718
     34 C          23.0275   72.6737   -3.2817 C.3     1  UNL1        0.1968
     35 C          22.2597   71.0621   -1.5153 C.3     1  UNL1        0.1723
     36 C          21.9631   73.6490   -2.7770 C.3     1  UNL1        0.2706
     37 C          21.2906   72.1478   -1.0564 C.3     1  UNL1        0.1830
     38 H          23.9736   70.4482   -4.2078 H       1  UNL1        0.2105
     39 H          23.8843   72.2540   -5.0062 H       1  UNL1        0.2106
     40 H          22.2485   69.0904   -1.6153 H       1  UNL1        0.2106
     41 O          20.6895   73.3647    0.8565 O.co2   1  UNL1       -0.5466
     42 O          21.5304   71.2698    1.1781 O.co2   1  UNL1       -0.5466
     43 C          21.1982   72.1806    0.4345 C.2     1  UNL1        0.0799
@<TRIPOS>UNITY_ATOM_ATTR
2 1
charge -1
26 1
charge -1
41 1
charge -1
@<TRIPOS>BOND
     1     1     4    1
     2     1    24    1
     3     1     2    1
     4     1     3    2
     5    25    28    1
     6    25    24    1
     7    25    26    1
     8    25    27    2
     9     6    11    1
    10     6    12    1
    11    29    36    1
    12    29    37    1
    13     7     9    1
    14     7    13    1
    15     8    10    1
    16     8    14    1
    17     4     5    1
    18    28    36    1
    19    30    33    1
    20    30    38    1
    21    31    34    1
    22    31    39    1
    23    32    35    1
    24    32    40    1
    25    41    43   ar
    26    15    19    2
    27    42    43   ar
    28    16    22    2
    29    17    12    1
    30    17    19   ar
    31    17    20   ar
    32    18    19   ar
    33    18    22   ar
    34    18    23    1
    35     9    10    1
    36     9    11    1
    37    10    12    1
    38    11     5    1
    39    33    34    1
    40    33    35    1
    41    34    36    1
    42    35    37    1
    43    37    43    1
    44    20    21   ar
    45    21    22   ar
@<TRIPOS>MOLECULE
*****
 43 45 0 0 0
SMALL
GASTEIGER

@<TRIPOS>ATOM
      1 P          22.2268   70.9476   -2.8579 P.3     1  UNL1        0.2189
      2 O          23.7304   70.4970   -3.2519 O.co2   1  UNL1       -0.4371
      3 O          21.7289   72.1763   -3.5608 O.2     1  UNL1       -0.5170
      4 O          22.2554   71.0255   -1.2420 O.3     1  UNL1       -0.3112
      5 C          22.4843   72.2813   -0.6296 C.3     1  UNL1        0.1811
      6 O          20.5772   72.9781    0.6569 O.3     1  UNL1       -0.3308
      7 O          20.1971   75.1162   -1.4107 O.3     1  UNL1       -0.3794
      8 O          21.3885   76.4703    0.6345 O.3     1  UNL1       -0.3779
      9 C          21.4082   74.5724   -0.8853 C.3     1  UNL1        0.1713
     10 C          21.6482   75.0870    0.5182 C.3     1  UNL1        0.1895
     11 C          21.1902   73.0846   -0.6462 C.3     1  UNL1        0.1764
     12 C          20.6853   74.2407    1.3334 C.3     1  UNL1        0.2383
     13 H          20.3120   76.0663   -1.5716 H       1  UNL1        0.2105
     14 H          22.0279   76.9655    0.0979 H       1  UNL1        0.2106
     15 O          21.0357   71.6884    2.4908 O.2     1  UNL1       -0.2464
     16 O          22.4829   73.4936    6.4771 O.2     1  UNL1       -0.2670
     17 N          21.1524   74.0148    2.6719 N.ar    1  UNL1       -0.2551
     18 N          21.7552   72.5899    4.4754 N.ar    1  UNL1       -0.2743
     19 C          21.2932   72.6930    3.1567 C.ar    1  UNL1        0.3323
     20 C          21.4669   75.0944    3.4882 C.ar    1  UNL1        0.0869
     21 C          21.9062   74.9805    4.7431 C.ar    1  UNL1        0.0795
     22 C          22.0803   73.6340    5.3263 C.ar    1  UNL1        0.2626
     23 H          21.8593   71.6796    4.8358 H       1  UNL1        0.1734
     24 O          21.3616   69.6121   -3.1420 O.3     1  UNL1       -0.2703
     25 P          19.7812   69.4096   -3.4162 P.3     1  UNL1        0.2208
     26 O          19.0877   70.3350   -2.2836 O.co2   1  UNL1       -0.4371
     27 O          19.3327   67.9769   -3.4040 O.2     1  UNL1       -0.5170
     28 O          19.5036   70.1863   -4.8027 O.3     1  UNL1       -0.2858
     29 O          18.8543   72.2422   -5.7828 O.3     1  UNL1       -0.3226
     30 O          15.8202   69.7257   -7.0198 O.3     1  UNL1       -0.3794
     31 O          16.8376   69.5859   -4.2849 O.3     1  UNL1       -0.3775
     32 O          17.8997   70.5310   -8.8849 O.3     1  UNL1       -0.3792
     33 C          17.1520   70.0732   -6.6407 C.3     1  UNL1        0.1718
     34 C          17.1517   70.6183   -5.2123 C.3     1  UNL1        0.1968
     35 C          17.6591   71.1374   -7.6165 C.3     1  UNL1        0.1723
     36 C          18.5143   71.2127   -4.8533 C.3     1  UNL1        0.2706
     37 C          18.9572   71.7709   -7.1246 C.3     1  UNL1        0.1830
     38 H          15.4770   69.0505   -6.4135 H       1  UNL1        0.2105
     39 H          15.9743   69.2041   -4.5069 H       1  UNL1        0.2106
     40 H          17.0812   70.1239   -9.2091 H       1  UNL1        0.2106
     41 O          20.1493   72.7540   -8.8893 O.co2   1  UNL1       -0.5466
     42 O          18.7900   74.1161   -7.6662 O.co2   1  UNL1       -0.5466
     43 C          19.2657   73.0140   -7.8940 C.2     1  UNL1        0.0799
@<TRIPOS>UNITY_ATOM_ATTR
2 1
charge -1
26 1
charge -1
41 1
charge -1
@<TRIPOS>BOND
     1     1     4    1
     2     1    24    1
     3     1     2    1
     4     1     3    2
     5    25    28    1
     6    25    24    1
     7    25    26    1
     8    25    27    2
     9     6    11    1
    10     6    12    1
    11    29    36    1
    12    29    37    1
    13     7     9    1
    14     7    13    1
    15     8    10    1
    16     8    14    1
    17     4     5    1
    18    28    36    1
    19    30    33    1
    20    30    38    1
    21    31    34    1
    22    31    39    1
    23    32    35    1
    24    32    40    1
    25    41    43   ar
    26    15    19    2
    27    42    43   ar
    28    16    22    2
    29    17    12    1
    30    17    19   ar
    31    17    20   ar
    32    18    19   ar
    33    18    22   ar
    34    18    23    1
    35     9    10    1
    36     9    11    1
    37    10    12    1
    38    11     5    1
    39    33    34    1
    40    33    35    1
    41    34    36    1
    42    35    37    1
    43    37    43    1
    44    20    21   ar
    45    21    22   ar
@<TRIPOS>MOLECULE
*****
 43 45 0 0 0
SMALL
GASTEIGER

@<TRIPOS>ATOM
      1 P          21.5218   72.9395   -6.0672 P.3     1  UNL1        0.2189
      2 O          20.3854   73.9725   -5.5570 O.co2   1  UNL1       -0.4371
      3 O          22.7752   73.5817   -6.5853 O.2     1  UNL1       -0.5170
      4 O          20.7379   71.9846   -7.1121 O.3     1  UNL1       -0.3112
      5 C          19.6636   71.1967   -6.6331 C.3     1  UNL1        0.1811
      6 O          17.4244   70.9126   -7.4595 O.3     1  UNL1       -0.3308
      7 O          18.6474   70.7982  -10.1950 O.3     1  UNL1       -0.3794
      8 O          17.6969   73.3512  -10.0736 O.3     1  UNL1       -0.3779
      9 C          19.0299   71.5846   -9.0663 C.3     1  UNL1        0.1713
     10 C          18.0480   72.7186   -8.8607 C.3     1  UNL1        0.1895
     11 C          18.8142   70.7454   -7.8143 C.3     1  UNL1        0.1764
     12 C          16.8739   72.0054   -8.2119 C.3     1  UNL1        0.2383
     13 H          18.7765   71.3134  -11.0071 H       1  UNL1        0.2105
     14 H          18.4777   73.7907  -10.4467 H       1  UNL1        0.2106
     15 O          16.3964   71.4400   -5.4864 O.2     1  UNL1       -0.2464
     16 O          14.0333   75.3535   -4.9001 O.2     1  UNL1       -0.2670
     17 N          16.1368   72.8593   -7.3240 N.ar    1  UNL1       -0.2551
     18 N          15.2190   73.3892   -5.1972 N.ar    1  UNL1       -0.2743
     19 C          15.9538   72.4825   -5.9724 C.ar    1  UNL1        0.3323
     20 C          15.6060   74.0548   -7.7929 C.ar    1  UNL1        0.0869
     21 C          14.9079   74.9089   -7.0419 C.ar    1  UNL1        0.0795
     22 C          14.6707   74.5897   -5.6188 C.ar    1  UNL1        0.2626
     23 H          15.0767   73.1475   -4.2535 H       1  UNL1        0.1734
     24 O          21.7381   71.9767   -4.7870 O.3     1  UNL1       -0.2703
     25 P          22.8270   72.0269   -3.5931 P.3     1  UNL1        0.2208
     26 O          23.9040   73.1143   -4.1203 O.co2   1  UNL1       -0.4371
     27 O          23.4174   70.6920   -3.2416 O.2     1  UNL1       -0.5170
     28 O          22.0665   72.7639   -2.3762 O.3     1  UNL1       -0.2858
     29 O          21.4167   71.0172   -0.9147 O.3     1  UNL1       -0.3226
     30 O          20.2376   74.3648    1.1998 O.3     1  UNL1       -0.3794
     31 O          19.7873   74.1988   -1.6819 O.3     1  UNL1       -0.3775
     32 O          22.6292   72.9106    1.9848 O.3     1  UNL1       -0.3792
     33 C          21.0524   73.6101    0.3028 C.3     1  UNL1        0.1718
     34 C          20.2009   73.1101   -0.8644 C.3     1  UNL1        0.1968
     35 C          21.6396   72.4284    1.0778 C.3     1  UNL1        0.1723
     36 C          20.9799   72.1115   -1.7216 C.3     1  UNL1        0.2706
     37 C          22.2897   71.4151    0.1402 C.3     1  UNL1        0.1830
     38 H          19.8535   75.1213    0.7292 H       1  UNL1        0.2105
     39 H          19.2925   74.8365   -1.1444 H       1  UNL1        0.2106
     40 H          22.2285   73.5566    2.5871 H       1  UNL1        0.2106
     41 O          21.6495   69.1886    0.5067 O.co2   1  UNL1       -0.5466
     42 O          23.4777   69.9452    1.6400 O.co2   1  UNL1       -0.5466
     43 C          22.5613   70.1306    0.8533 C.2     1  UNL1        0.0799
@<TRIPOS>UNITY_ATOM_ATTR
2 1
charge -1
26 1
charge -1
41 1
charge -1
@<TRIPOS>BOND
     1     1     4    1
     2     1    24    1
     3     1     2    1
     4     1     3    2
     5    25    28    1
     6    25    24    1
     7    25    26    1
     8    25    27    2
     9     6    11    1
    10     6    12    1
    11    29    36    1
    12    29    37    1
    13     7     9    1
    14     7    13    1
    15     8    10    1
    16     8    14    1
    17     4     5    1
    18    28    36    1
    19    30    33    1
    20    30    38    1
    21    31    34    1
    22    31    39    1
    23    32    35    1
    24    32    40    1
    25    41    43   ar
    26    15    19    2
    27    42    43   ar
    28    16    22    2
    29    17    12    1
    30    17    19   ar
    31    17    20   ar
    32    18    19   ar
    33    18    22   ar
    34    18    23    1
    35     9    10    1
    36     9    11    1
    37    10    12    1
    38    11     5    1
    39    33    34    1
    40    33    35    1
    41    34    36    1
    42    35    37    1
    43    37    43    1
    44    20    21   ar
    45    21    22   ar
@<TRIPOS>MOLECULE
*****
 43 45 0 0 0
SMALL
GASTEIGER

@<TRIPOS>ATOM
      1 P          23.8577   75.0492   -3.8288 P.3     1  UNL1        0.2189
      2 O          24.6110   76.4229   -4.2343 O.co2   1  UNL1       -0.4371
      3 O          24.7046   73.8133   -3.9142 O.2     1  UNL1       -0.5170
      4 O          22.5244   75.0520   -4.7455 O.3     1  UNL1       -0.3112
      5 C          22.1923   73.8754   -5.4594 C.3     1  UNL1        0.1811
      6 O          21.6208   73.1072   -7.6642 O.3     1  UNL1       -0.3308
      7 O          22.3103   75.8701   -8.6036 O.3     1  UNL1       -0.3794
      8 O          19.5857   75.9349   -8.5107 O.3     1  UNL1       -0.3779
      9 C          21.6882   75.4585   -7.3861 C.3     1  UNL1        0.1713
     10 C          20.2553   75.0433   -7.6440 C.3     1  UNL1        0.1895
     11 C          22.3271   74.1463   -6.9523 C.3     1  UNL1        0.1764
     12 C          20.4315   73.6611   -8.2492 C.3     1  UNL1        0.2383
     13 H          21.9185   76.7067   -8.9005 H       1  UNL1        0.2105
     14 H          19.4982   76.8001   -8.0798 H       1  UNL1        0.2106
     15 O          18.1453   73.4054   -9.8875 O.2     1  UNL1       -0.2464
     16 O          16.2427   70.3009   -7.0616 O.2     1  UNL1       -0.2670
     17 N          19.3238   72.7932   -7.9653 N.ar    1  UNL1       -0.2551
     18 N          17.1994   71.8602   -8.4779 N.ar    1  UNL1       -0.2743
     19 C          18.2236   72.7394   -8.8535 C.ar    1  UNL1        0.3323
     20 C          19.3347   72.0066   -6.8198 C.ar    1  UNL1        0.0869
     21 C          18.3511   71.1732   -6.4753 C.ar    1  UNL1        0.0795
     22 C          17.1648   71.0582   -7.3487 C.ar    1  UNL1        0.2626
     23 H          16.4219   71.8071   -9.0797 H       1  UNL1        0.1734
     24 O          23.2843   75.3720   -2.3524 O.3     1  UNL1       -0.2703
     25 P          23.9137   75.1044   -0.8874 P.3     1  UNL1        0.2208
     26 O          23.1704   76.2029    0.0406 O.co2   1  UNL1       -0.4371
     27 O          25.4129   75.1679   -0.8404 O.2     1  UNL1       -0.5170
     28 O          23.2885   73.6909   -0.4253 O.3     1  UNL1       -0.2858
     29 O          21.4847   72.4406   -1.3152 O.3     1  UNL1       -0.3226
     30 O          21.2097   71.5630    2.7125 O.3     1  UNL1       -0.3794
     31 O          21.7687   74.2899    1.8258 O.3     1  UNL1       -0.3775
     32 O          22.2986   69.6023    0.8629 O.3     1  UNL1       -0.3792
     33 C          21.8751   71.8892    1.4922 C.3     1  UNL1        0.1718
     34 C          21.3581   73.2299    0.9699 C.3     1  UNL1        0.1968
     35 C          21.5836   70.7766    0.4827 C.3     1  UNL1        0.1723
     36 C          21.8747   73.5023   -0.4435 C.3     1  UNL1        0.2706
     37 C          22.0146   71.1754   -0.9257 C.3     1  UNL1        0.1830
     38 H          21.3805   72.2563    3.3694 H       1  UNL1        0.2105
     39 H          21.4446   74.1234    2.7244 H       1  UNL1        0.2106
     40 H          22.0336   69.3379    1.7577 H       1  UNL1        0.2106
     41 O          20.2365   69.7691   -1.5275 O.co2   1  UNL1       -0.5466
     42 O          21.9676   69.9456   -3.0010 O.co2   1  UNL1       -0.5466
     43 C          21.4378   70.2432   -1.9409 C.2     1  UNL1        0.0799
@<TRIPOS>UNITY_ATOM_ATTR
2 1
charge -1
26 1
charge -1
41 1
charge -1
@<TRIPOS>BOND
     1     1     4    1
     2     1    24    1
     3     1     2    1
     4     1     3    2
     5    25    28    1
     6    25    24    1
     7    25    26    1
     8    25    27    2
     9     6    11    1
    10     6    12    1
    11    29    36    1
    12    29    37    1
    13     7     9    1
    14     7    13    1
    15     8    10    1
    16     8    14    1
    17     4     5    1
    18    28    36    1
    19    30    33    1
    20    30    38    1
    21    31    34    1
    22    31    39    1
    23    32    35    1
    24    32    40    1
    25    41    43   ar
    26    15    19    2
    27    42    43   ar
    28    16    22    2
    29    17    12    1
    30    17    19   ar
    31    17    20   ar
    32    18    19   ar
    33    18    22   ar
    34    18    23    1
    35     9    10    1
    36     9    11    1
    37    10    12    1
    38    11     5    1
    39    33    34    1
    40    33    35    1
    41    34    36    1
    42    35    37    1
    43    37    43    1
    44    20    21   ar
    45    21    22   ar
@<TRIPOS>MOLECULE
*****
 43 45 0 0 0
SMALL
GASTEIGER

@<TRIPOS>ATOM
      1 P          22.4165   71.2509   -2.9815 P.3     1  UNL1        0.2189
      2 O          23.6216   71.9555   -3.8002 O.co2   1  UNL1       -0.4371
      3 O          22.0890   69.8521   -3.4150 O.2     1  UNL1       -0.5170
      4 O          21.2046   72.3185   -3.0786 O.3     1  UNL1       -0.3112
      5 C          20.1242   72.0375   -3.9493 C.3     1  UNL1        0.1811
      6 O          17.7614   72.2839   -3.5831 O.3     1  UNL1       -0.3308
      7 O          17.8973   69.6524   -2.1520 O.3     1  UNL1       -0.3794
      8 O          16.8952   68.9537   -4.5900 O.3     1  UNL1       -0.3779
      9 C          18.6164   70.0925   -3.3043 C.3     1  UNL1        0.1713
     10 C          17.7079   70.1064   -4.5153 C.3     1  UNL1        0.1895
     11 C          18.9310   71.5714   -3.1251 C.3     1  UNL1        0.1764
     12 C          16.9034   71.3755   -4.2916 C.3     1  UNL1        0.2383
     13 H          17.6850   68.7099   -2.2434 H       1  UNL1        0.2105
     14 H          17.4538   68.1731   -4.7331 H       1  UNL1        0.2106
     15 O          17.6060   70.4265   -6.8572 O.2     1  UNL1       -0.2464
     16 O          15.2646   73.8020   -8.9471 O.2     1  UNL1       -0.2670
     17 N          16.4911   71.9872   -5.5231 N.ar    1  UNL1       -0.2551
     18 N          16.4400   72.1092   -7.8956 N.ar    1  UNL1       -0.2743
     19 C          16.8991   71.4313   -6.7587 C.ar    1  UNL1        0.3323
     20 C          15.6908   73.1229   -5.4996 C.ar    1  UNL1        0.0869
     21 C          15.2610   73.7580   -6.5917 C.ar    1  UNL1        0.0795
     22 C          15.6432   73.2423   -7.9226 C.ar    1  UNL1        0.2626
     23 H          16.7128   71.7420   -8.7674 H       1  UNL1        0.1734
     24 O          22.8960   71.3843   -1.4436 O.3     1  UNL1       -0.2703
     25 P          22.3884   70.6338   -0.1046 P.3     1  UNL1        0.2208
     26 O          23.5591   69.5526    0.1798 O.co2   1  UNL1       -0.4371
     27 O          21.0131   70.0418   -0.2143 O.2     1  UNL1       -0.5170
     28 O          22.5537   71.7305    1.0669 O.3     1  UNL1       -0.2858
     29 O          21.7117   72.4676    3.1542 O.3     1  UNL1       -0.3226
     30 O          21.0573   75.7761    0.7681 O.3     1  UNL1       -0.3794
     31 O          20.5108   73.0901   -0.2424 O.3     1  UNL1       -0.3775
     32 O          23.2488   75.7650    2.6780 O.3     1  UNL1       -0.3792
     33 C          21.7371   74.6002    1.2074 C.3     1  UNL1        0.1718
     34 C          20.7941   73.4001    1.1171 C.3     1  UNL1        0.1968
     35 C          22.1786   74.8224    2.6557 C.3     1  UNL1        0.1723
     36 C          21.4064   72.1713    1.7910 C.3     1  UNL1        0.2706
     37 C          22.6589   73.5238    3.2972 C.3     1  UNL1        0.1830
     38 H          20.7673   75.6581   -0.1502 H       1  UNL1        0.2105
     39 H          20.1222   73.8655   -0.6762 H       1  UNL1        0.2106
     40 H          22.9562   76.5961    2.2724 H       1  UNL1        0.2106
     41 O          22.1850   72.6292    5.4130 O.co2   1  UNL1       -0.5466
     42 O          23.3188   74.6065    5.3499 O.co2   1  UNL1       -0.5466
     43 C          22.7722   73.6745    4.7793 C.2     1  UNL1        0.0799
@<TRIPOS>UNITY_ATOM_ATTR
2 1
charge -1
26 1
charge -1
41 1
charge -1
@<TRIPOS>BOND
     1     1     4    1
     2     1    24    1
     3     1     2    1
     4     1     3    2
     5    25    28    1
     6    25    24    1
     7    25    26    1
     8    25    27    2
     9     6    11    1
    10     6    12    1
    11    29    36    1
    12    29    37    1
    13     7     9    1
    14     7    13    1
    15     8    10    1
    16     8    14    1
    17     4     5    1
    18    28    36    1
    19    30    33    1
    20    30    38    1
    21    31    34    1
    22    31    39    1
    23    32    35    1
    24    32    40    1
    25    41    43   ar
    26    15    19    2
    27    42    43   ar
    28    16    22    2
    29    17    12    1
    30    17    19   ar
    31    17    20   ar
    32    18    19   ar
    33    18    22   ar
    34    18    23    1
    35     9    10    1
    36     9    11    1
    37    10    12    1
    38    11     5    1
    39    33    34    1
    40    33    35    1
    41    34    36    1
    42    35    37    1
    43    37    43    1
    44    20    21   ar
    45    21    22   ar
@<TRIPOS>MOLECULE
*****
 43 45 0 0 0
SMALL
GASTEIGER

@<TRIPOS>ATOM
      1 P          21.7193   73.6584   -5.2406 P.3     1  UNL1        0.2189
      2 O          23.1323   72.9017   -5.4633 O.co2   1  UNL1       -0.4371
      3 O          21.1670   73.5723   -3.8480 O.2     1  UNL1       -0.5170
      4 O          20.7719   73.0646   -6.4102 O.3     1  UNL1       -0.3112
      5 C          20.4427   73.9013   -7.5037 C.3     1  UNL1        0.1811
      6 O          19.7753   71.6850   -8.1520 O.3     1  UNL1       -0.3308
      7 O          18.1442   73.0039  -10.2948 O.3     1  UNL1       -0.3794
      8 O          16.2754   72.4234   -8.3957 O.3     1  UNL1       -0.3779
      9 C          18.4092   73.4423   -8.9621 C.3     1  UNL1        0.1713
     10 C          17.6076   72.6242   -7.9720 C.3     1  UNL1        0.1895
     11 C          19.8391   73.0515   -8.6145 C.3     1  UNL1        0.1764
     12 C          18.4037   71.3316   -7.9133 C.3     1  UNL1        0.2383
     13 H          17.2360   73.2425  -10.5395 H       1  UNL1        0.2105
     14 H          15.8108   73.2753   -8.4163 H       1  UNL1        0.2106
     15 O          16.0686   70.0757   -6.9403 O.2     1  UNL1       -0.2464
     16 O          18.1352   68.8788   -2.9981 O.2     1  UNL1       -0.2670
     17 N          18.3038   70.6840   -6.6360 N.ar    1  UNL1       -0.2551
     18 N          17.0998   69.4816   -4.9774 N.ar    1  UNL1       -0.2743
     19 C          17.0845   70.0835   -6.2425 C.ar    1  UNL1        0.3323
     20 C          19.4050   70.6467   -5.7893 C.ar    1  UNL1        0.0869
     21 C          19.4044   70.0691   -4.5863 C.ar    1  UNL1        0.0795
     22 C          18.1698   69.4195   -4.0993 C.ar    1  UNL1        0.2626
     23 H          16.2617   69.0587   -4.6807 H       1  UNL1        0.1734
     24 O          22.0279   75.1609   -5.7508 O.3     1  UNL1       -0.2703
     25 P          23.3453   76.0849   -5.5955 P.3     1  UNL1        0.2208
     26 O          22.7539   77.5894   -5.6798 O.co2   1  UNL1       -0.4371
     27 O          24.4265   75.7887   -6.5941 O.2     1  UNL1       -0.5170
     28 O          23.7901   75.9080   -4.0549 O.3     1  UNL1       -0.2858
     29 O          25.6318   74.4193   -4.0855 O.3     1  UNL1       -0.3226
     30 O          25.3862   75.3704   -0.0727 O.3     1  UNL1       -0.3794
     31 O          22.9652   74.8447   -1.6208 O.3     1  UNL1       -0.3775
     32 O          27.4678   76.5465   -1.7263 O.3     1  UNL1       -0.3792
     33 C          25.2659   75.6010   -1.4763 C.3     1  UNL1        0.1718
     34 C          24.2883   74.5916   -2.0789 C.3     1  UNL1        0.1968
     35 C          26.6525   75.4384   -2.1029 C.3     1  UNL1        0.1723
     36 C          24.3074   74.6565   -3.6067 C.3     1  UNL1        0.2706
     37 C          26.5731   75.3866   -3.6259 C.3     1  UNL1        0.1830
     38 H          24.5169   75.4683    0.3470 H       1  UNL1        0.2105
     39 H          22.9458   74.8053   -0.6521 H       1  UNL1        0.2106
     40 H          27.5264   76.5909   -0.7591 H       1  UNL1        0.2106
     41 O          28.7077   74.4992   -3.2288 O.co2   1  UNL1       -0.5466
     42 O          28.1241   74.8724   -5.4011 O.co2   1  UNL1       -0.5466
     43 C          27.8616   74.9039   -4.2082 C.2     1  UNL1        0.0799
@<TRIPOS>UNITY_ATOM_ATTR
2 1
charge -1
26 1
charge -1
41 1
charge -1
@<TRIPOS>BOND
     1     1     4    1
     2     1    24    1
     3     1     2    1
     4     1     3    2
     5    25    28    1
     6    25    24    1
     7    25    26    1
     8    25    27    2
     9     6    11    1
    10     6    12    1
    11    29    36    1
    12    29    37    1
    13     7     9    1
    14     7    13    1
    15     8    10    1
    16     8    14    1
    17     4     5    1
    18    28    36    1
    19    30    33    1
    20    30    38    1
    21    31    34    1
    22    31    39    1
    23    32    35    1
    24    32    40    1
    25    41    43   ar
    26    15    19    2
    27    42    43   ar
    28    16    22    2
    29    17    12    1
    30    17    19   ar
    31    17    20   ar
    32    18    19   ar
    33    18    22   ar
    34    18    23    1
    35     9    10    1
    36     9    11    1
    37    10    12    1
    38    11     5    1
    39    33    34    1
    40    33    35    1
    41    34    36    1
    42    35    37    1
    43    37    43    1
    44    20    21   ar
    45    21    22   ar
@<TRIPOS>MOLECULE
*****
 43 45 0 0 0
SMALL
GASTEIGER

@<TRIPOS>ATOM
      1 P          22.6532   71.5216   -2.7627 P.3     1  UNL1        0.2189
      2 O          23.0618   72.9843   -3.3217 O.co2   1  UNL1       -0.4371
      3 O          23.3874   70.3746   -3.3930 O.2     1  UNL1       -0.5170
      4 O          21.0419   71.4875   -2.9048 O.3     1  UNL1       -0.3112
      5 C          20.4462   72.1469   -4.0070 C.3     1  UNL1        0.1811
      6 O          18.5916   70.7370   -4.5988 O.3     1  UNL1       -0.3308
      7 O          19.8720   70.5026   -7.3001 O.3     1  UNL1       -0.3794
      8 O          17.9070   72.3438   -7.7299 O.3     1  UNL1       -0.3779
      9 C          19.8231   71.6238   -6.4175 C.3     1  UNL1        0.1713
     10 C          18.4391   72.2376   -6.4260 C.3     1  UNL1        0.1895
     11 C          19.9323   71.1036   -4.9907 C.3     1  UNL1        0.1764
     12 C          17.6593   71.2690   -5.5533 C.3     1  UNL1        0.2383
     13 H          19.8040   70.8100   -8.2180 H       1  UNL1        0.2105
     14 H          18.4379   72.9717   -8.2455 H       1  UNL1        0.2106
     15 O          16.8919   70.6471   -2.9074 O.2     1  UNL1       -0.2464
     16 O          13.5207   73.7898   -2.9523 O.2     1  UNL1       -0.2670
     17 N          16.5845   71.9093   -4.8492 N.ar    1  UNL1       -0.2551
     18 N          15.2129   72.2122   -2.9326 N.ar    1  UNL1       -0.2743
     19 C          16.2804   71.5226   -3.5225 C.ar    1  UNL1        0.3323
     20 C          15.8460   72.9087   -5.4712 C.ar    1  UNL1        0.0869
     21 C          14.8314   73.5571   -4.8960 C.ar    1  UNL1        0.0795
     22 C          14.4485   73.2126   -3.5110 C.ar    1  UNL1        0.2626
     23 H          14.9812   71.9589   -2.0099 H       1  UNL1        0.1734
     24 O          22.8744   71.6677   -1.1681 O.3     1  UNL1       -0.2703
     25 P          22.4477   70.7012    0.0556 P.3     1  UNL1        0.2208
     26 O          23.6768   69.6515    0.1438 O.co2   1  UNL1       -0.4371
     27 O          21.0989   70.0620   -0.1060 O.2     1  UNL1       -0.5170
     28 O          22.6002   71.6184    1.3739 O.3     1  UNL1       -0.2858
     29 O          21.6789   72.4016    3.4104 O.3     1  UNL1       -0.3226
     30 O          21.2819   75.7173    0.9780 O.3     1  UNL1       -0.3794
     31 O          20.6843   73.0480   -0.0479 O.3     1  UNL1       -0.3775
     32 O          23.3675   75.6332    3.0014 O.3     1  UNL1       -0.3792
     33 C          21.8908   74.5186    1.4581 C.3     1  UNL1        0.1718
     34 C          20.9075   73.3557    1.3233 C.3     1  UNL1        0.1968
     35 C          22.2637   74.7330    2.9267 C.3     1  UNL1        0.1723
     36 C          21.4346   72.1084    2.0342 C.3     1  UNL1        0.2706
     37 C          22.6581   73.4209    3.5986 C.3     1  UNL1        0.1830
     38 H          21.0363   75.6047    0.0462 H       1  UNL1        0.2105
     39 H          20.3500   73.8352   -0.5051 H       1  UNL1        0.2106
     40 H          23.1296   76.4724    2.5772 H       1  UNL1        0.2106
     41 O          23.8216   74.2345    5.4656 O.co2   1  UNL1       -0.5466
     42 O          21.8418   73.1726    5.8554 O.co2   1  UNL1       -0.5466
     43 C          22.6988   73.5768    5.0839 C.2     1  UNL1        0.0799
@<TRIPOS>UNITY_ATOM_ATTR
2 1
charge -1
26 1
charge -1
41 1
charge -1
@<TRIPOS>BOND
     1     1     4    1
     2     1    24    1
     3     1     2    1
     4     1     3    2
     5    25    28    1
     6    25    24    1
     7    25    26    1
     8    25    27    2
     9     6    11    1
    10     6    12    1
    11    29    36    1
    12    29    37    1
    13     7     9    1
    14     7    13    1
    15     8    10    1
    16     8    14    1
    17     4     5    1
    18    28    36    1
    19    30    33    1
    20    30    38    1
    21    31    34    1
    22    31    39    1
    23    32    35    1
    24    32    40    1
    25    41    43   ar
    26    15    19    2
    27    42    43   ar
    28    16    22    2
    29    17    12    1
    30    17    19   ar
    31    17    20   ar
    32    18    19   ar
    33    18    22   ar
    34    18    23    1
    35     9    10    1
    36     9    11    1
    37    10    12    1
    38    11     5    1
    39    33    34    1
    40    33    35    1
    41    34    36    1
    42    35    37    1
    43    37    43    1
    44    20    21   ar
    45    21    22   ar
@<TRIPOS>MOLECULE
*****
 43 45 0 0 0
SMALL
GASTEIGER

@<TRIPOS>ATOM
      1 P          22.4863   71.6777   -3.1283 P.3     1  UNL1        0.2189
      2 O          23.6471   72.7618   -3.4383 O.co2   1  UNL1       -0.4371
      3 O          22.8542   70.2534   -3.4244 O.2     1  UNL1       -0.5170
      4 O          21.1979   72.2502   -3.9222 O.3     1  UNL1       -0.3112
      5 C          20.3587   71.3330   -4.5997 C.3     1  UNL1        0.1811
      6 O          18.0870   71.9256   -4.0844 O.3     1  UNL1       -0.3308
      7 O          17.8854   69.2453   -2.7552 O.3     1  UNL1       -0.3794
      8 O          16.6565   68.8160   -5.1513 O.3     1  UNL1       -0.3779
      9 C          18.6015   69.6185   -3.9327 C.3     1  UNL1        0.1713
     10 C          17.6426   69.8249   -5.0860 C.3     1  UNL1        0.1895
     11 C          19.1533   71.0218   -3.7220 C.3     1  UNL1        0.1764
     12 C          17.0603   71.1923   -4.7710 C.3     1  UNL1        0.2383
     13 H          17.5234   68.3518   -2.8660 H       1  UNL1        0.2105
     14 H          17.0773   67.9653   -5.3544 H       1  UNL1        0.2106
     15 O          18.0875   70.6731   -7.3501 O.2     1  UNL1       -0.2464
     16 O          15.5423   74.0206   -9.2369 O.2     1  UNL1       -0.2670
     17 N          16.6833   71.9130   -5.9540 N.ar    1  UNL1       -0.2551
     18 N          16.8196   72.3415   -8.2872 N.ar    1  UNL1       -0.2743
     19 C          17.2589   71.5731   -7.2011 C.ar    1  UNL1        0.3323
     20 C          15.7528   72.9418   -5.8723 C.ar    1  UNL1        0.0869
     21 C          15.3439   73.6652   -6.9164 C.ar    1  UNL1        0.0795
     22 C          15.8971   73.3747   -8.2554 C.ar    1  UNL1        0.2626
     23 H          17.2078   72.1247   -9.1656 H       1  UNL1        0.1734
     24 O          22.1197   71.9708   -1.5815 O.3     1  UNL1       -0.2703
     25 P          20.7702   71.6859   -0.7381 P.3     1  UNL1        0.2208
     26 O          20.4418   70.1376   -1.0778 O.co2   1  UNL1       -0.4371
     27 O          19.6463   72.6359   -1.0350 O.2     1  UNL1       -0.5170
     28 O          21.2461   71.6725    0.8033 O.3     1  UNL1       -0.2858
     29 O          21.7043   73.9554    1.2364 O.3     1  UNL1       -0.3226
     30 O          22.0750   72.2945    5.0010 O.3     1  UNL1       -0.3794
     31 O          23.1739   70.9276    2.6647 O.3     1  UNL1       -0.3775
     32 O          19.7077   73.8349    4.3123 O.3     1  UNL1       -0.3792
     33 C          21.5531   72.4215    3.6783 C.3     1  UNL1        0.1718
     34 C          22.6861   72.2643    2.6639 C.3     1  UNL1        0.1968
     35 C          20.9147   73.8067    3.5528 C.3     1  UNL1        0.1723
     36 C          22.2117   72.6205    1.2543 C.3     1  UNL1        0.2706
     37 C          20.5849   74.1385    2.1004 C.3     1  UNL1        0.1830
     38 H          22.4859   71.4217    5.1043 H       1  UNL1        0.2105
     39 H          23.4764   70.6948    3.5561 H       1  UNL1        0.2106
     40 H          19.9037   73.6251    5.2389 H       1  UNL1        0.2106
     41 O          21.1652   76.1841    1.1102 O.co2   1  UNL1       -0.5466
     42 O          19.3501   76.1744    2.4902 O.co2   1  UNL1       -0.5466
     43 C          20.2758   75.5921    1.9454 C.2     1  UNL1        0.0799
@<TRIPOS>UNITY_ATOM_ATTR
2 1
charge -1
26 1
charge -1
41 1
charge -1
@<TRIPOS>BOND
     1     1     4    1
     2     1    24    1
     3     1     2    1
     4     1     3    2
     5    25    28    1
     6    25    24    1
     7    25    26    1
     8    25    27    2
     9     6    11    1
    10     6    12    1
    11    29    36    1
    12    29    37    1
    13     7     9    1
    14     7    13    1
    15     8    10    1
    16     8    14    1
    17     4     5    1
    18    28    36    1
    19    30    33    1
    20    30    38    1
    21    31    34    1
    22    31    39    1
    23    32    35    1
    24    32    40    1
    25    41    43   ar
    26    15    19    2
    27    42    43   ar
    28    16    22    2
    29    17    12    1
    30    17    19   ar
    31    17    20   ar
    32    18    19   ar
    33    18    22   ar
    34    18    23    1
    35     9    10    1
    36     9    11    1
    37    10    12    1
    38    11     5    1
    39    33    34    1
    40    33    35    1
    41    34    36    1
    42    35    37    1
    43    37    43    1
    44    20    21   ar
    45    21    22   ar
@<TRIPOS>MOLECULE
*****
 43 45 0 0 0
SMALL
GASTEIGER

@<TRIPOS>ATOM
      1 P          22.3823   74.2874   -6.7857 P.3     1  UNL1        0.2189
      2 O          23.5358   75.3957   -7.0301 O.co2   1  UNL1       -0.4371
      3 O          22.7652   72.8832   -7.1512 O.2     1  UNL1       -0.5170
      4 O          21.0952   74.8889   -7.5600 O.3     1  UNL1       -0.3112
      5 C          19.8220   74.3322   -7.2887 C.3     1  UNL1        0.1811
      6 O          19.6031   72.0198   -7.9071 O.3     1  UNL1       -0.3308
      7 O          17.9110   72.9824  -10.1878 O.3     1  UNL1       -0.3794
      8 O          16.0520   72.1147   -8.3914 O.3     1  UNL1       -0.3779
      9 C          18.0043   73.4877   -8.8556 C.3     1  UNL1        0.1713
     10 C          17.2961   72.5591   -7.8921 C.3     1  UNL1        0.1895
     11 C          19.4543   73.3661   -8.4076 C.3     1  UNL1        0.1764
     12 C          18.3030   71.4313   -7.7433 C.3     1  UNL1        0.2383
     13 H          16.9932   73.0497  -10.4959 H       1  UNL1        0.2105
     14 H          15.4461   72.8690   -8.4676 H       1  UNL1        0.2106
     15 O          16.1665   69.7998   -6.8772 O.2     1  UNL1       -0.2464
     16 O          18.1458   69.0683   -2.7795 O.2     1  UNL1       -0.2670
     17 N          18.2344   70.8019   -6.4549 N.ar    1  UNL1       -0.2551
     18 N          17.1539   69.4379   -4.8368 N.ar    1  UNL1       -0.2743
     19 C          17.1166   70.0021   -6.1187 C.ar    1  UNL1        0.3323
     20 C          19.2664   70.9778   -5.5412 C.ar    1  UNL1        0.0869
     21 C          19.2878   70.4335   -4.3230 C.ar    1  UNL1        0.0795
     22 C          18.1575   69.5845   -3.8929 C.ar    1  UNL1        0.2626
     23 H          16.3856   68.8786   -4.5793 H       1  UNL1        0.1734
     24 O          22.0010   74.4977   -5.2290 O.3     1  UNL1       -0.2703
     25 P          22.7275   73.9835   -3.8794 P.3     1  UNL1        0.2208
     26 O          23.5424   72.6751   -4.3735 O.co2   1  UNL1       -0.4371
     27 O          21.7908   73.7324   -2.7333 O.2     1  UNL1       -0.5170
     28 O          23.8677   75.0856   -3.5831 O.3     1  UNL1       -0.2858
     29 O          26.1203   74.9198   -4.2955 O.3     1  UNL1       -0.3226
     30 O          26.4520   77.4393   -1.0382 O.3     1  UNL1       -0.3794
     31 O          24.7032   75.1017   -0.9302 O.3     1  UNL1       -0.3775
     32 O          26.6250   78.5106   -3.7351 O.3     1  UNL1       -0.3792
     33 C          25.8172   76.8592   -2.1777 C.3     1  UNL1        0.1718
     34 C          25.6512   75.3549   -1.9606 C.3     1  UNL1        0.1968
     35 C          26.7005   77.1266   -3.3984 C.3     1  UNL1        0.1723
     36 C          25.1879   74.6648   -3.2443 C.3     1  UNL1        0.2706
     37 C          26.2490   76.3061   -4.6032 C.3     1  UNL1        0.1830
     38 H          25.9086   77.2819   -0.2500 H       1  UNL1        0.2105
     39 H          24.9907   75.5369   -0.1127 H       1  UNL1        0.2106
     40 H          26.9096   79.0439   -2.9765 H       1  UNL1        0.2106
     41 O          26.7462   76.0113   -6.8764 O.co2   1  UNL1       -0.5466
     42 O          28.4747   76.5676   -5.4973 O.co2   1  UNL1       -0.5466
     43 C          27.2918   76.3168   -5.6731 C.2     1  UNL1        0.0799
@<TRIPOS>UNITY_ATOM_ATTR
2 1
charge -1
26 1
charge -1
41 1
charge -1
@<TRIPOS>BOND
     1     1     4    1
     2     1    24    1
     3     1     2    1
     4     1     3    2
     5    25    28    1
     6    25    24    1
     7    25    26    1
     8    25    27    2
     9     6    11    1
    10     6    12    1
    11    29    36    1
    12    29    37    1
    13     7     9    1
    14     7    13    1
    15     8    10    1
    16     8    14    1
    17     4     5    1
    18    28    36    1
    19    30    33    1
    20    30    38    1
    21    31    34    1
    22    31    39    1
    23    32    35    1
    24    32    40    1
    25    41    43   ar
    26    15    19    2
    27    42    43   ar
    28    16    22    2
    29    17    12    1
    30    17    19   ar
    31    17    20   ar
    32    18    19   ar
    33    18    22   ar
    34    18    23    1
    35     9    10    1
    36     9    11    1
    37    10    12    1
    38    11     5    1
    39    33    34    1
    40    33    35    1
    41    34    36    1
    42    35    37    1
    43    37    43    1
    44    20    21   ar
    45    21    22   ar
@<TRIPOS>MOLECULE
*****
 43 45 0 0 0
SMALL
GASTEIGER

@<TRIPOS>ATOM
      1 P          21.7603   72.9213   -5.0533 P.3     1  UNL1        0.2189
      2 O          21.0067   74.3533   -5.0368 O.co2   1  UNL1       -0.4371
      3 O          23.2508   72.9916   -5.2129 O.2     1  UNL1       -0.5170
      4 O          20.9711   72.0801   -6.1880 O.3     1  UNL1       -0.3112
      5 C          21.1438   72.4472   -7.5444 C.3     1  UNL1        0.1811
      6 O          19.3874   70.8062   -7.5360 O.3     1  UNL1       -0.3308
      7 O          18.8663   71.6210  -10.3743 O.3     1  UNL1       -0.3794
      8 O          16.9049   72.9334   -9.0080 O.3     1  UNL1       -0.3779
      9 C          19.2684   72.4226   -9.2634 C.3     1  UNL1        0.1713
     10 C          18.1025   72.6354   -8.3213 C.3     1  UNL1        0.1895
     11 C          20.2216   71.5977   -8.4095 C.3     1  UNL1        0.1764
     12 C          18.0416   71.3055   -7.5895 C.3     1  UNL1        0.2383
     13 H          18.2566   72.1269  -10.9347 H       1  UNL1        0.2105
     14 H          16.9941   73.7891   -9.4571 H       1  UNL1        0.2106
     15 O          15.6412   72.6301   -6.9113 O.2     1  UNL1       -0.2464
     16 O          16.2135   71.7564   -2.4221 O.2     1  UNL1       -0.2670
     17 N          17.5396   71.4390   -6.2512 N.ar    1  UNL1       -0.2551
     18 N          15.9290   72.1945   -4.6759 N.ar    1  UNL1       -0.2743
     19 C          16.3234   72.1236   -6.0185 C.ar    1  UNL1        0.3323
     20 C          18.2481   70.8942   -5.1871 C.ar    1  UNL1        0.0869
     21 C          17.8594   70.9698   -3.9127 C.ar    1  UNL1        0.0795
     22 C          16.6001   71.6691   -3.5836 C.ar    1  UNL1        0.2626
     23 H          15.0864   72.6682   -4.4889 H       1  UNL1        0.1734
     24 O          21.2620   72.2331   -3.6783 O.3     1  UNL1       -0.2703
     25 P          21.7083   70.8563   -2.9579 P.3     1  UNL1        0.2208
     26 O          23.3098   70.8193   -3.1907 O.co2   1  UNL1       -0.4371
     27 O          20.9831   69.6388   -3.4537 O.2     1  UNL1       -0.5170
     28 O          21.5327   71.1441   -1.3804 O.3     1  UNL1       -0.2858
     29 O          23.2357   72.5883   -0.5908 O.3     1  UNL1       -0.3226
     30 O          21.2438   71.6477    2.9043 O.3     1  UNL1       -0.3794
     31 O          21.7876   69.5847    0.9086 O.3     1  UNL1       -0.3775
     32 O          20.8652   74.2494    1.6639 O.3     1  UNL1       -0.3792
     33 C          21.3725   71.8995    1.5050 C.3     1  UNL1        0.1718
     34 C          22.3464   70.8932    0.8914 C.3     1  UNL1        0.1968
     35 C          21.8985   73.3255    1.3274 C.3     1  UNL1        0.1723
     36 C          22.6864   71.2706   -0.5511 C.3     1  UNL1        0.2706
     37 C          22.3338   73.5836   -0.1122 C.3     1  UNL1        0.1830
     38 H          20.9109   70.7468    3.0416 H       1  UNL1        0.2105
     39 H          21.5692   69.3388    1.8209 H       1  UNL1        0.2106
     40 H          20.5791   74.0958    2.5778 H       1  UNL1        0.2106
     41 O          22.3521   75.9271   -0.0178 O.co2   1  UNL1       -0.5466
     42 O          24.3408   74.8868   -0.4201 O.co2   1  UNL1       -0.5466
     43 C          23.1388   74.8387   -0.2061 C.2     1  UNL1        0.0799
@<TRIPOS>UNITY_ATOM_ATTR
2 1
charge -1
26 1
charge -1
41 1
charge -1
@<TRIPOS>BOND
     1     1     4    1
     2     1    24    1
     3     1     2    1
     4     1     3    2
     5    25    28    1
     6    25    24    1
     7    25    26    1
     8    25    27    2
     9     6    11    1
    10     6    12    1
    11    29    36    1
    12    29    37    1
    13     7     9    1
    14     7    13    1
    15     8    10    1
    16     8    14    1
    17     4     5    1
    18    28    36    1
    19    30    33    1
    20    30    38    1
    21    31    34    1
    22    31    39    1
    23    32    35    1
    24    32    40    1
    25    41    43   ar
    26    15    19    2
    27    42    43   ar
    28    16    22    2
    29    17    12    1
    30    17    19   ar
    31    17    20   ar
    32    18    19   ar
    33    18    22   ar
    34    18    23    1
    35     9    10    1
    36     9    11    1
    37    10    12    1
    38    11     5    1
    39    33    34    1
    40    33    35    1
    41    34    36    1
    42    35    37    1
    43    37    43    1
    44    20    21   ar
    45    21    22   ar
@<TRIPOS>MOLECULE
*****
 43 45 0 0 0
SMALL
GASTEIGER

@<TRIPOS>ATOM
      1 P          22.4548   71.9404   -2.1016 P.3     1  UNL1        0.2189
      2 O          22.4722   70.3633   -2.4640 O.co2   1  UNL1       -0.4371
      3 O          22.7374   72.2632   -0.6637 O.2     1  UNL1       -0.5170
      4 O          21.0297   72.4540   -2.6701 O.3     1  UNL1       -0.3112
      5 C          20.3769   71.6786   -3.6586 C.3     1  UNL1        0.1811
      6 O          18.4104   72.3271   -4.8792 O.3     1  UNL1       -0.3308
      7 O          16.8412   71.1002   -2.6379 O.3     1  UNL1       -0.3794
      8 O          16.7378   69.1717   -4.5631 O.3     1  UNL1       -0.3779
      9 C          18.0805   70.6802   -3.2090 C.3     1  UNL1        0.1713
     10 C          17.8455   70.0478   -4.5643 C.3     1  UNL1        0.1895
     11 C          18.8764   71.9263   -3.5725 C.3     1  UNL1        0.1764
     12 C          17.6273   71.2650   -5.4468 C.3     1  UNL1        0.2383
     13 H          16.3150   70.3210   -2.3975 H       1  UNL1        0.2105
     14 H          16.9260   68.4134   -3.9874 H       1  UNL1        0.2106
     15 O          16.0082   71.7069   -7.7183 O.2     1  UNL1       -0.2464
     16 O          19.3603   70.3825  -10.5912 O.2     1  UNL1       -0.2670
     17 N          18.0518   71.0439   -6.8002 N.ar    1  UNL1       -0.2551
     18 N          17.6789   71.0459   -9.1469 N.ar    1  UNL1       -0.2743
     19 C          17.1605   71.2967   -7.8697 C.ar    1  UNL1        0.3323
     20 C          19.3374   70.5836   -7.0575 C.ar    1  UNL1        0.0869
     21 C          19.8174   70.3493   -8.2804 C.ar    1  UNL1        0.0795
     22 C          18.9501   70.5873   -9.4528 C.ar    1  UNL1        0.2626
     23 H          17.0763   71.2127   -9.9074 H       1  UNL1        0.1734
     24 O          23.5120   72.5658   -3.1524 O.3     1  UNL1       -0.2703
     25 P          23.6815   74.0703   -3.7192 P.3     1  UNL1        0.2208
     26 O          25.2842   74.2242   -3.8864 O.co2   1  UNL1       -0.4371
     27 O          23.0449   75.1264   -2.8627 O.2     1  UNL1       -0.5170
     28 O          23.1190   74.0045   -5.2297 O.3     1  UNL1       -0.2858
     29 O          23.2592   75.4827   -7.0748 O.3     1  UNL1       -0.3226
     30 O          19.4275   73.9923   -7.4809 O.3     1  UNL1       -0.3794
     31 O          20.4599   74.7256   -4.8482 O.3     1  UNL1       -0.3775
     32 O          21.5516   73.0523   -9.2288 O.3     1  UNL1       -0.3792
     33 C          20.8088   73.9557   -7.1223 C.3     1  UNL1        0.1718
     34 C          21.0964   75.0383   -6.0818 C.3     1  UNL1        0.1968
     35 C          21.6327   74.2019   -8.3883 C.3     1  UNL1        0.1723
     36 C          22.6001   75.1828   -5.8439 C.3     1  UNL1        0.2706
     37 C          23.0994   74.4613   -8.0567 C.3     1  UNL1        0.1830
     38 H          18.8843   73.8383   -6.6919 H       1  UNL1        0.2105
     39 H          19.5054   74.6322   -4.9919 H       1  UNL1        0.2106
     40 H          20.6231   72.8762   -9.4471 H       1  UNL1        0.2106
     41 O          25.1591   75.0285   -9.0249 O.co2   1  UNL1       -0.5466
     42 O          23.2855   75.4108  -10.2669 O.co2   1  UNL1       -0.5466
     43 C          23.8204   75.0185   -9.2408 C.2     1  UNL1        0.0799
@<TRIPOS>UNITY_ATOM_ATTR
2 1
charge -1
26 1
charge -1
41 1
charge -1
@<TRIPOS>BOND
     1     1     4    1
     2     1    24    1
     3     1     2    1
     4     1     3    2
     5    25    28    1
     6    25    24    1
     7    25    26    1
     8    25    27    2
     9     6    11    1
    10     6    12    1
    11    29    36    1
    12    29    37    1
    13     7     9    1
    14     7    13    1
    15     8    10    1
    16     8    14    1
    17     4     5    1
    18    28    36    1
    19    30    33    1
    20    30    38    1
    21    31    34    1
    22    31    39    1
    23    32    35    1
    24    32    40    1
    25    41    43   ar
    26    15    19    2
    27    42    43   ar
    28    16    22    2
    29    17    12    1
    30    17    19   ar
    31    17    20   ar
    32    18    19   ar
    33    18    22   ar
    34    18    23    1
    35     9    10    1
    36     9    11    1
    37    10    12    1
    38    11     5    1
    39    33    34    1
    40    33    35    1
    41    34    36    1
    42    35    37    1
    43    37    43    1
    44    20    21   ar
    45    21    22   ar
@<TRIPOS>MOLECULE
*****
 43 45 0 0 0
SMALL
GASTEIGER

@<TRIPOS>ATOM
      1 P          21.5359   74.7907   -2.7289 P.3     1  UNL1        0.2189
      2 O          22.3886   75.6148   -3.8301 O.co2   1  UNL1       -0.4371
      3 O          20.0480   74.8315   -2.9195 O.2     1  UNL1       -0.5170
      4 O          22.0787   75.3569   -1.3138 O.3     1  UNL1       -0.3112
      5 C          21.4833   74.8796   -0.1213 C.3     1  UNL1        0.1811
      6 O          23.1245   73.4998    0.9650 O.3     1  UNL1       -0.3308
      7 O          21.1924   71.2361    0.5986 O.3     1  UNL1       -0.3794
      8 O          20.8258   71.9150    3.2141 O.3     1  UNL1       -0.3779
      9 C          20.9307   72.6098    0.8864 C.3     1  UNL1        0.1713
     10 C          21.2757   72.9184    2.3279 C.3     1  UNL1        0.1895
     11 C          21.9487   73.4508    0.1281 C.3     1  UNL1        0.1764
     12 C          22.7909   73.0159    2.2757 C.3     1  UNL1        0.2383
     13 H          20.5544   70.6790    1.0722 H       1  UNL1        0.2105
     14 H          19.8555   71.8930    3.2118 H       1  UNL1        0.2106
     15 O          24.5836   75.1213    1.7016 O.2     1  UNL1       -0.2464
     16 O          24.7391   76.4365    6.1164 O.2     1  UNL1       -0.2670
     17 N          23.3157   73.9236    3.2561 N.ar    1  UNL1       -0.2551
     18 N          24.6602   75.7737    3.9012 N.ar    1  UNL1       -0.2743
     19 C          24.2104   74.9470    2.8632 C.ar    1  UNL1        0.3323
     20 C          22.9429   73.7967    4.5887 C.ar    1  UNL1        0.0869
     21 C          23.3800   74.5924    5.5668 C.ar    1  UNL1        0.0795
     22 C          24.3183   75.6863    5.2410 C.ar    1  UNL1        0.2626
     23 H          25.2855   76.4923    3.6523 H       1  UNL1        0.1734
     24 O          22.1836   73.3115   -2.8010 O.3     1  UNL1       -0.2703
     25 P          22.2629   72.2454   -4.0138 P.3     1  UNL1        0.2208
     26 O          23.2444   71.0967   -3.4329 O.co2   1  UNL1       -0.4371
     27 O          22.7056   72.8332   -5.3224 O.2     1  UNL1       -0.5170
     28 O          20.8049   71.5559   -4.0486 O.3     1  UNL1       -0.2858
     29 O          18.8958   71.8170   -2.6717 O.3     1  UNL1       -0.3226
     30 O          18.7305   67.7909   -3.5831 O.3     1  UNL1       -0.3794
     31 O          21.2796   69.0566   -2.9242 O.3     1  UNL1       -0.3775
     32 O          16.9259   69.6581   -4.8900 O.3     1  UNL1       -0.3792
     33 C          19.0255   69.1683   -3.8145 C.3     1  UNL1        0.1718
     34 C          20.0059   69.6671   -2.7525 C.3     1  UNL1        0.1968
     35 C          17.7135   69.9524   -3.7378 C.3     1  UNL1        0.1723
     36 C          20.1674   71.1860   -2.8274 C.3     1  UNL1        0.2706
     37 C          17.9654   71.4566   -3.6903 C.3     1  UNL1        0.1830
     38 H          19.5496   67.2728   -3.6270 H       1  UNL1        0.2105
     39 H          21.1846   68.0926   -2.8781 H       1  UNL1        0.2106
     40 H          16.7586   68.7036   -4.9321 H       1  UNL1        0.2106
     41 O          17.0070   73.1184   -2.3408 O.co2   1  UNL1       -0.5466
     42 O          15.6125   71.9875   -3.7463 O.co2   1  UNL1       -0.5466
     43 C          16.7270   72.1894   -3.2881 C.2     1  UNL1        0.0799
@<TRIPOS>UNITY_ATOM_ATTR
2 1
charge -1
26 1
charge -1
41 1
charge -1
@<TRIPOS>BOND
     1     1     4    1
     2     1    24    1
     3     1     2    1
     4     1     3    2
     5    25    28    1
     6    25    24    1
     7    25    26    1
     8    25    27    2
     9     6    11    1
    10     6    12    1
    11    29    36    1
    12    29    37    1
    13     7     9    1
    14     7    13    1
    15     8    10    1
    16     8    14    1
    17     4     5    1
    18    28    36    1
    19    30    33    1
    20    30    38    1
    21    31    34    1
    22    31    39    1
    23    32    35    1
    24    32    40    1
    25    41    43   ar
    26    15    19    2
    27    42    43   ar
    28    16    22    2
    29    17    12    1
    30    17    19   ar
    31    17    20   ar
    32    18    19   ar
    33    18    22   ar
    34    18    23    1
    35     9    10    1
    36     9    11    1
    37    10    12    1
    38    11     5    1
    39    33    34    1
    40    33    35    1
    41    34    36    1
    42    35    37    1
    43    37    43    1
    44    20    21   ar
    45    21    22   ar
@<TRIPOS>MOLECULE
*****
 43 45 0 0 0
SMALL
GASTEIGER

@<TRIPOS>ATOM
      1 P          20.1808   70.1579   -2.1946 P.3     1  UNL1        0.2189
      2 O          21.4771   69.6201   -3.0002 O.co2   1  UNL1       -0.4371
      3 O          18.9847   69.2530   -2.2426 O.2     1  UNL1       -0.5170
      4 O          19.9554   71.6516   -2.7740 O.3     1  UNL1       -0.3112
      5 C          19.0970   71.8228   -3.8869 C.3     1  UNL1        0.1811
      6 O          19.7940   73.3475   -5.6094 O.3     1  UNL1       -0.3308
      7 O          17.8714   75.3035   -4.3974 O.3     1  UNL1       -0.3794
      8 O          16.4857   74.3610   -6.5485 O.3     1  UNL1       -0.3779
      9 C          17.7556   73.8867   -4.5300 C.3     1  UNL1        0.1713
     10 C          17.4581   73.5174   -5.9679 C.3     1  UNL1        0.1895
     11 C          19.1375   73.2812   -4.3249 C.3     1  UNL1        0.1764
     12 C          18.8227   73.6628   -6.6196 C.3     1  UNL1        0.2383
     13 H          17.0007   75.7127   -4.5244 H       1  UNL1        0.2105
     14 H          15.6352   74.2311   -6.0993 H       1  UNL1        0.2106
     15 O          20.2808   74.2900   -8.9557 O.2     1  UNL1       -0.2464
     16 O          19.4270   70.1608  -10.8170 O.2     1  UNL1       -0.2670
     17 N          18.9974   72.7702   -7.7302 N.ar    1  UNL1       -0.2551
     18 N          19.8533   72.2332   -9.8809 N.ar    1  UNL1       -0.2743
     19 C          19.7482   73.1830   -8.8563 C.ar    1  UNL1        0.3323
     20 C          18.4305   71.5020   -7.6966 C.ar    1  UNL1        0.0869
     21 C          18.5394   70.6075   -8.6809 C.ar    1  UNL1        0.0795
     22 C          19.3068   70.9601   -9.8935 C.ar    1  UNL1        0.2626
     23 H          20.3696   72.4985  -10.6761 H       1  UNL1        0.1734
     24 O          20.7619   70.4276   -0.7106 O.3     1  UNL1       -0.2703
     25 P          22.2449   70.2276   -0.0988 P.3     1  UNL1        0.2208
     26 O          23.2065   70.8186   -1.2592 O.co2   1  UNL1       -0.4371
     27 O          22.5591   68.8163    0.3054 O.2     1  UNL1       -0.5170
     28 O          22.3425   71.3044    1.0985 O.3     1  UNL1       -0.2858
     29 O          21.0492   72.4410    2.7247 O.3     1  UNL1       -0.3226
     30 O          22.7704   75.5857    0.6713 O.3     1  UNL1       -0.3794
     31 O          21.7268   73.2695   -0.7711 O.3     1  UNL1       -0.3775
     32 O          23.7670   74.8383    3.2979 O.3     1  UNL1       -0.3792
     33 C          22.6992   74.2675    1.2149 C.3     1  UNL1        0.1718
     34 C          21.5052   73.5285    0.6103 C.3     1  UNL1        0.1968
     35 C          22.5372   74.3897    2.7317 C.3     1  UNL1        0.1723
     36 C          21.2596   72.2029    1.3324 C.3     1  UNL1        0.2706
     37 C          22.1700   73.0495    3.3624 C.3     1  UNL1        0.1830
     38 H          22.8735   75.5332   -0.2920 H       1  UNL1        0.2105
     39 H          21.8837   74.1063   -1.2354 H       1  UNL1        0.2106
     40 H          24.0122   75.6905    2.9048 H       1  UNL1        0.2106
     41 O          22.7042   73.0128    5.6460 O.co2   1  UNL1       -0.5466
     42 O          20.5596   73.5498    5.0881 O.co2   1  UNL1       -0.5466
     43 C          21.6961   73.2364    4.7670 C.2     1  UNL1        0.0799
@<TRIPOS>UNITY_ATOM_ATTR
2 1
charge -1
26 1
charge -1
41 1
charge -1
@<TRIPOS>BOND
     1     1     4    1
     2     1    24    1
     3     1     2    1
     4     1     3    2
     5    25    28    1
     6    25    24    1
     7    25    26    1
     8    25    27    2
     9     6    11    1
    10     6    12    1
    11    29    36    1
    12    29    37    1
    13     7     9    1
    14     7    13    1
    15     8    10    1
    16     8    14    1
    17     4     5    1
    18    28    36    1
    19    30    33    1
    20    30    38    1
    21    31    34    1
    22    31    39    1
    23    32    35    1
    24    32    40    1
    25    41    43   ar
    26    15    19    2
    27    42    43   ar
    28    16    22    2
    29    17    12    1
    30    17    19   ar
    31    17    20   ar
    32    18    19   ar
    33    18    22   ar
    34    18    23    1
    35     9    10    1
    36     9    11    1
    37    10    12    1
    38    11     5    1
    39    33    34    1
    40    33    35    1
    41    34    36    1
    42    35    37    1
    43    37    43    1
    44    20    21   ar
    45    21    22   ar
