@<TRIPOS>MOLECULE
*****
 43 45 0 0 0
SMALL
GASTEIGER

@<TRIPOS>ATOM
      1 P          20.7690   70.9863   -3.2368 P.3     1  UNL1        0.2189
      2 O          21.3429   69.6413   -3.9300 O.co2   1  UNL1       -0.4371
      3 O          20.3923   70.8428   -1.7913 O.2     1  UNL1       -0.5170
      4 O          19.5812   71.4583   -4.2289 O.3     1  UNL1       -0.3112
      5 C          18.6910   72.4663   -3.7862 C.3     1  UNL1        0.1811
      6 O          16.8664   72.0236   -5.2870 O.3     1  UNL1       -0.3308
      7 O          15.7557   70.2703   -3.1228 O.3     1  UNL1       -0.3794
      8 O          16.8834   68.4676   -4.8300 O.3     1  UNL1       -0.3779
      9 C          17.1153   70.4895   -3.4994 C.3     1  UNL1        0.1713
     10 C          17.4217   69.7729   -4.7975 C.3     1  UNL1        0.1895
     11 C          17.2620   71.9511   -3.9001 C.3     1  UNL1        0.1764
     12 C          16.7846   70.6939   -5.8241 C.3     1  UNL1        0.2383
     13 H          15.6374   69.3430   -2.8626 H       1  UNL1        0.2105
     14 H          17.3216   67.9204   -4.1587 H       1  UNL1        0.2106
     15 O          15.4857   70.6420   -8.3314 O.2     1  UNL1       -0.2464
     16 O          19.4915   70.5583  -10.6097 O.2     1  UNL1       -0.2670
     17 N          17.4638   70.6583   -7.0883 N.ar    1  UNL1       -0.2551
     18 N          17.4821   70.5993   -9.4637 N.ar    1  UNL1       -0.2743
     19 C          16.7174   70.6342   -8.2902 C.ar    1  UNL1        0.3323
     20 C          18.8528   70.6494   -7.1294 C.ar    1  UNL1        0.0869
     21 C          19.5676   70.6162   -8.2558 C.ar    1  UNL1        0.0795
     22 C          18.8645   70.5885   -9.5551 C.ar    1  UNL1        0.2626
     23 H          16.9845   70.5800  -10.3131 H       1  UNL1        0.1734
     24 O          21.9345   72.0686   -3.5246 O.3     1  UNL1       -0.2703
     25 P          23.5075   72.0593   -3.1512 P.3     1  UNL1        0.2208
     26 O          24.1866   72.8480   -4.3909 O.co2   1  UNL1       -0.4371
     27 O          24.0736   70.6909   -2.9041 O.2     1  UNL1       -0.5170
     28 O          23.6379   73.0731   -1.9031 O.3     1  UNL1       -0.2858
     29 O          22.8488   72.0823    0.0981 O.3     1  UNL1       -0.3226
     30 O          23.6592   75.9406    1.3329 O.3     1  UNL1       -0.3794
     31 O          22.3577   75.4506   -1.2362 O.3     1  UNL1       -0.3775
     32 O          25.4642   73.7735    2.0377 O.3     1  UNL1       -0.3792
     33 C          23.8380   74.7563    0.5562 C.3     1  UNL1        0.1718
     34 C          22.5610   74.4634   -0.2318 C.3     1  UNL1        0.1968
     35 C          24.1479   73.6043    1.5148 C.3     1  UNL1        0.1723
     36 C          22.6302   73.0864   -0.8936 C.3     1  UNL1        0.2706
     37 C          24.0743   72.2548    0.8063 C.3     1  UNL1        0.1830
     38 H          23.4611   76.6864    0.7448 H       1  UNL1        0.2105
     39 H          22.3131   76.3269   -0.8233 H       1  UNL1        0.2106
     40 H          25.5245   74.6288    2.4911 H       1  UNL1        0.2106
     41 O          24.5132   69.9914    1.2372 O.co2   1  UNL1       -0.5466
     42 O          23.6685   71.2322    2.9536 O.co2   1  UNL1       -0.5466
     43 C          24.0497   71.1364    1.7967 C.2     1  UNL1        0.0799
@<TRIPOS>UNITY_ATOM_ATTR
2 1
charge -1
26 1
charge -1
41 1
charge -1
@<TRIPOS>BOND
     1     1     4    1
     2     1    24    1
     3     1     2    1
     4     1     3    2
     5    25    28    1
     6    25    24    1
     7    25    26    1
     8    25    27    2
     9     6    11    1
    10     6    12    1
    11    29    36    1
    12    29    37    1
    13     7     9    1
    14     7    13    1
    15     8    10    1
    16     8    14    1
    17     4     5    1
    18    28    36    1
    19    30    33    1
    20    30    38    1
    21    31    34    1
    22    31    39    1
    23    32    35    1
    24    32    40    1
    25    41    43   ar
    26    15    19    2
    27    42    43   ar
    28    16    22    2
    29    17    12    1
    30    17    19   ar
    31    17    20   ar
    32    18    19   ar
    33    18    22   ar
    34    18    23    1
    35     9    10    1
    36     9    11    1
    37    10    12    1
    38    11     5    1
    39    33    34    1
    40    33    35    1
    41    34    36    1
    42    35    37    1
    43    37    43    1
    44    20    21   ar
    45    21    22   ar
@<TRIPOS>MOLECULE
*****
 43 45 0 0 0
SMALL
GASTEIGER

@<TRIPOS>ATOM
      1 P          22.9041   71.4227   -2.2839 P.3     1  UNL1        0.2189
      2 O          22.5132   72.9650   -2.5799 O.co2   1  UNL1       -0.4371
      3 O          24.1705   70.9534   -2.9377 O.2     1  UNL1       -0.5170
      4 O          21.5658   70.6011   -2.6737 O.3     1  UNL1       -0.3112
      5 C          20.9177   70.9049   -3.8952 C.3     1  UNL1        0.1811
      6 O          18.8799   71.7806   -4.8218 O.3     1  UNL1       -0.3308
      7 O          17.4886   70.4912   -2.4995 O.3     1  UNL1       -0.3794
      8 O          17.0160   68.7320   -4.5287 O.3     1  UNL1       -0.3779
      9 C          18.6179   70.0337   -3.2436 C.3     1  UNL1        0.1713
     10 C          18.1806   69.5276   -4.6019 C.3     1  UNL1        0.1895
     11 C          19.4606   71.2471   -3.6120 C.3     1  UNL1        0.1764
     12 C          17.9571   70.8226   -5.3640 C.3     1  UNL1        0.2383
     13 H          16.9350   69.7333   -2.2528 H       1  UNL1        0.2105
     14 H          17.2100   67.9195   -4.0345 H       1  UNL1        0.2106
     15 O          15.9377   70.5475   -7.3192 O.2     1  UNL1       -0.2464
     16 O          19.0238   70.2831  -10.7323 O.2     1  UNL1       -0.2670
     17 N          18.2049   70.6802   -6.7709 N.ar    1  UNL1       -0.2551
     18 N          17.4767   70.4150   -9.0171 N.ar    1  UNL1       -0.2743
     19 C          17.1194   70.5485   -7.6690 C.ar    1  UNL1        0.3323
     20 C          19.5099   70.6737   -7.2481 C.ar    1  UNL1        0.0869
     21 C          19.8348   70.5458   -8.5361 C.ar    1  UNL1        0.0795
     22 C          18.7598   70.4022   -9.5397 C.ar    1  UNL1        0.2626
     23 H          16.7381   70.3198   -9.6611 H       1  UNL1        0.1734
     24 O          22.9147   71.3547   -0.6689 O.3     1  UNL1       -0.2703
     25 P          21.7262   71.5492    0.4095 P.3     1  UNL1        0.2208
     26 O          21.5735   70.0755    1.0616 O.co2   1  UNL1       -0.4371
     27 O          20.4563   72.1048   -0.1672 O.2     1  UNL1       -0.5170
     28 O          22.3787   72.4469    1.5803 O.3     1  UNL1       -0.2858
     29 O          24.1639   71.4552    2.7798 O.3     1  UNL1       -0.3226
     30 O          23.3031   74.7472    5.1229 O.3     1  UNL1       -0.3794
     31 O          21.1487   73.1414    3.9763 O.3     1  UNL1       -0.3775
     32 O          25.6512   74.7498    3.4090 O.3     1  UNL1       -0.3792
     33 C          23.4147   74.0055    3.9082 C.3     1  UNL1        0.1718
     34 C          22.5214   72.7668    3.9810 C.3     1  UNL1        0.1968
     35 C          24.8793   73.5961    3.7370 C.3     1  UNL1        0.1723
     36 C          22.7863   71.8311    2.8007 C.3     1  UNL1        0.2706
     37 C          25.0433   72.5665    2.6227 C.3     1  UNL1        0.1830
     38 H          22.3806   75.0181    5.2529 H       1  UNL1        0.2105
     39 H          20.9735   73.7355    4.7225 H       1  UNL1        0.2106
     40 H          25.5553   75.4131    4.1102 H       1  UNL1        0.2106
     41 O          27.2754   72.7427    3.3214 O.co2   1  UNL1       -0.5466
     42 O          26.6788   70.8399    2.2159 O.co2   1  UNL1       -0.5466
     43 C          26.3960   71.9345    2.6794 C.2     1  UNL1        0.0799
@<TRIPOS>UNITY_ATOM_ATTR
2 1
charge -1
26 1
charge -1
41 1
charge -1
@<TRIPOS>BOND
     1     1     4    1
     2     1    24    1
     3     1     2    1
     4     1     3    2
     5    25    28    1
     6    25    24    1
     7    25    26    1
     8    25    27    2
     9     6    11    1
    10     6    12    1
    11    29    36    1
    12    29    37    1
    13     7     9    1
    14     7    13    1
    15     8    10    1
    16     8    14    1
    17     4     5    1
    18    28    36    1
    19    30    33    1
    20    30    38    1
    21    31    34    1
    22    31    39    1
    23    32    35    1
    24    32    40    1
    25    41    43   ar
    26    15    19    2
    27    42    43   ar
    28    16    22    2
    29    17    12    1
    30    17    19   ar
    31    17    20   ar
    32    18    19   ar
    33    18    22   ar
    34    18    23    1
    35     9    10    1
    36     9    11    1
    37    10    12    1
    38    11     5    1
    39    33    34    1
    40    33    35    1
    41    34    36    1
    42    35    37    1
    43    37    43    1
    44    20    21   ar
    45    21    22   ar
@<TRIPOS>MOLECULE
*****
 43 45 0 0 0
SMALL
GASTEIGER

@<TRIPOS>ATOM
      1 P          23.4966   72.5841   -3.7867 P.3     1  UNL1        0.2189
      2 O          24.0339   71.1441   -3.2803 O.co2   1  UNL1       -0.4371
      3 O          24.5627   73.6175   -4.0041 O.2     1  UNL1       -0.5170
      4 O          22.3515   72.9716   -2.7113 O.3     1  UNL1       -0.3112
      5 C          21.1420   72.2356   -2.7167 C.3     1  UNL1        0.1811
      6 O          20.6329   72.0463   -0.3752 O.3     1  UNL1       -0.3308
      7 O          19.2364   74.6850   -0.6558 O.3     1  UNL1       -0.3794
      8 O          21.6164   75.3876    0.4748 O.3     1  UNL1       -0.3779
      9 C          20.4256   74.2196   -1.2943 C.3     1  UNL1        0.1713
     10 C          21.5800   74.2172   -0.3147 C.3     1  UNL1        0.1895
     11 C          20.2521   72.7353   -1.5859 C.3     1  UNL1        0.1764
     12 C          21.2971   72.9686    0.5031 C.3     1  UNL1        0.2383
     13 H          19.3236   75.6313   -0.4595 H       1  UNL1        0.2105
     14 H          21.7998   76.1541   -0.0916 H       1  UNL1        0.2106
     15 O          21.5577   70.2195    1.0955 O.2     1  UNL1       -0.2464
     16 O          25.9447   70.7325    2.4128 O.2     1  UNL1       -0.2670
     17 N          22.4962   72.3571    1.0022 N.ar    1  UNL1       -0.2551
     18 N          23.7421   70.4778    1.7520 N.ar    1  UNL1       -0.2743
     19 C          22.5220   70.9675    1.2677 C.ar    1  UNL1        0.3323
     20 C          23.6295   73.1305    1.2219 C.ar    1  UNL1        0.0869
     21 C          24.7854   72.6494    1.6838 C.ar    1  UNL1        0.0795
     22 C          24.8961   71.2075    1.9872 C.ar    1  UNL1        0.2626
     23 H          23.7838   69.5135    1.9461 H       1  UNL1        0.1734
     24 O          22.6430   72.2090   -5.1072 O.3     1  UNL1       -0.2703
     25 P          21.7748   73.1351   -6.1083 P.3     1  UNL1        0.2208
     26 O          22.5229   72.9441   -7.5310 O.co2   1  UNL1       -0.4371
     27 O          21.6421   74.5637   -5.6662 O.2     1  UNL1       -0.5170
     28 O          20.3736   72.3536   -6.2769 O.3     1  UNL1       -0.2858
     29 O          19.7757   70.1733   -5.5711 O.3     1  UNL1       -0.3226
     30 O          17.4697   70.6186   -8.9698 O.3     1  UNL1       -0.3794
     31 O          20.2434   71.5347   -8.9318 O.3     1  UNL1       -0.3775
     32 O          16.2481   70.8265   -6.3401 O.3     1  UNL1       -0.3792
     33 C          18.1557   71.0504   -7.7947 C.3     1  UNL1        0.1718
     34 C          19.6447   70.7282   -7.9239 C.3     1  UNL1        0.1968
     35 C          17.5533   70.3120   -6.5973 C.3     1  UNL1        0.1723
     36 C          20.3724   70.9641   -6.5997 C.3     1  UNL1        0.2706
     37 C          18.4051   70.4944   -5.3444 C.3     1  UNL1        0.1830
     38 H          17.8356   71.0747   -9.7441 H       1  UNL1        0.2105
     39 H          19.7864   71.3902   -9.7748 H       1  UNL1        0.2106
     40 H          15.6958   70.7166   -7.1299 H       1  UNL1        0.2106
     41 O          18.8289   69.6148   -3.2117 O.co2   1  UNL1       -0.5466
     42 O          17.0617   68.7474   -4.3623 O.co2   1  UNL1       -0.5466
     43 C          18.0036   69.5217   -4.2838 C.2     1  UNL1        0.0799
@<TRIPOS>UNITY_ATOM_ATTR
2 1
charge -1
26 1
charge -1
41 1
charge -1
@<TRIPOS>BOND
     1     1     4    1
     2     1    24    1
     3     1     2    1
     4     1     3    2
     5    25    28    1
     6    25    24    1
     7    25    26    1
     8    25    27    2
     9     6    11    1
    10     6    12    1
    11    29    36    1
    12    29    37    1
    13     7     9    1
    14     7    13    1
    15     8    10    1
    16     8    14    1
    17     4     5    1
    18    28    36    1
    19    30    33    1
    20    30    38    1
    21    31    34    1
    22    31    39    1
    23    32    35    1
    24    32    40    1
    25    41    43   ar
    26    15    19    2
    27    42    43   ar
    28    16    22    2
    29    17    12    1
    30    17    19   ar
    31    17    20   ar
    32    18    19   ar
    33    18    22   ar
    34    18    23    1
    35     9    10    1
    36     9    11    1
    37    10    12    1
    38    11     5    1
    39    33    34    1
    40    33    35    1
    41    34    36    1
    42    35    37    1
    43    37    43    1
    44    20    21   ar
    45    21    22   ar
@<TRIPOS>MOLECULE
*****
 43 45 0 0 0
SMALL
GASTEIGER

@<TRIPOS>ATOM
      1 P          23.0800   71.6719   -2.5926 P.3     1  UNL1        0.2189
      2 O          23.3155   73.2277   -2.2147 O.co2   1  UNL1       -0.4371
      3 O          24.2548   70.9899   -3.2302 O.2     1  UNL1       -0.5170
      4 O          21.7172   71.6860   -3.4647 O.3     1  UNL1       -0.3112
      5 C          21.6147   72.5963   -4.5442 C.3     1  UNL1        0.1811
      6 O          20.8022   70.6145   -5.6350 O.3     1  UNL1       -0.3308
      7 O          21.3578   72.0331   -8.2177 O.3     1  UNL1       -0.3794
      8 O          18.6611   72.3302   -7.9429 O.3     1  UNL1       -0.3779
      9 C          20.8817   72.5626   -6.9802 C.3     1  UNL1        0.1713
     10 C          19.4322   72.1798   -6.7693 C.3     1  UNL1        0.1895
     11 C          21.5765   71.8142   -5.8508 C.3     1  UNL1        0.1764
     12 C          19.5496   70.7307   -6.3285 C.3     1  UNL1        0.2383
     13 H          20.9279   72.4958   -8.9545 H       1  UNL1        0.2105
     14 H          18.6161   73.2697   -8.1820 H       1  UNL1        0.2106
     15 O          17.0117   69.8329   -7.1827 O.2     1  UNL1       -0.2464
     16 O          15.5549   69.2549   -2.8483 O.2     1  UNL1       -0.2670
     17 N          18.4884   70.3392   -5.4444 N.ar    1  UNL1       -0.2551
     18 N          16.2882   69.5468   -5.0231 N.ar    1  UNL1       -0.2743
     19 C          17.2516   69.9033   -5.9759 C.ar    1  UNL1        0.3323
     20 C          18.6784   70.3873   -4.0687 C.ar    1  UNL1        0.0869
     21 C          17.7507   70.0442   -3.1730 C.ar    1  UNL1        0.0795
     22 C          16.4302   69.5786   -3.6453 C.ar    1  UNL1        0.2626
     23 H          15.4183   69.2421   -5.3691 H       1  UNL1        0.1734
     24 O          22.6064   71.0252   -1.1889 O.3     1  UNL1       -0.2703
     25 P          21.6410   71.6011   -0.0269 P.3     1  UNL1        0.2208
     26 O          21.1302   70.2627    0.7267 O.co2   1  UNL1       -0.4371
     27 O          20.5381   72.4888   -0.5265 O.2     1  UNL1       -0.5170
     28 O          22.6415   72.3041    1.0253 O.3     1  UNL1       -0.2858
     29 O          24.3952   71.6501    2.4766 O.3     1  UNL1       -0.3226
     30 O          22.1770   74.1458    4.9096 O.3     1  UNL1       -0.3794
     31 O          20.8486   72.2288    3.1504 O.3     1  UNL1       -0.3775
     32 O          24.6845   75.0725    3.7673 O.3     1  UNL1       -0.3792
     33 C          22.7235   73.6755    3.6775 C.3     1  UNL1        0.1718
     34 C          22.2460   72.2464    3.4182 C.3     1  UNL1        0.1968
     35 C          24.2491   73.7144    3.7914 C.3     1  UNL1        0.1723
     36 C          22.9882   71.6282    2.2326 C.3     1  UNL1        0.2706
     37 C          24.9132   72.9688    2.6375 C.3     1  UNL1        0.1830
     38 H          21.2081   74.1300    4.8607 H       1  UNL1        0.2105
     39 H          20.3715   72.6199    3.8985 H       1  UNL1        0.2106
     40 H          24.2689   75.5583    4.4968 H       1  UNL1        0.2106
     41 O          26.6955   71.4441    2.6467 O.co2   1  UNL1       -0.5466
     42 O          27.1401   73.5680    3.3469 O.co2   1  UNL1       -0.5466
     43 C          26.3597   72.7284    2.9238 C.2     1  UNL1        0.0799
@<TRIPOS>UNITY_ATOM_ATTR
2 1
charge -1
26 1
charge -1
41 1
charge -1
@<TRIPOS>BOND
     1     1     4    1
     2     1    24    1
     3     1     2    1
     4     1     3    2
     5    25    28    1
     6    25    24    1
     7    25    26    1
     8    25    27    2
     9     6    11    1
    10     6    12    1
    11    29    36    1
    12    29    37    1
    13     7     9    1
    14     7    13    1
    15     8    10    1
    16     8    14    1
    17     4     5    1
    18    28    36    1
    19    30    33    1
    20    30    38    1
    21    31    34    1
    22    31    39    1
    23    32    35    1
    24    32    40    1
    25    41    43   ar
    26    15    19    2
    27    42    43   ar
    28    16    22    2
    29    17    12    1
    30    17    19   ar
    31    17    20   ar
    32    18    19   ar
    33    18    22   ar
    34    18    23    1
    35     9    10    1
    36     9    11    1
    37    10    12    1
    38    11     5    1
    39    33    34    1
    40    33    35    1
    41    34    36    1
    42    35    37    1
    43    37    43    1
    44    20    21   ar
    45    21    22   ar
@<TRIPOS>MOLECULE
*****
 43 45 0 0 0
SMALL
GASTEIGER

@<TRIPOS>ATOM
      1 P          20.5149   71.2205   -1.4647 P.3     1  UNL1        0.2189
      2 O          21.1861   70.5429   -0.1573 O.co2   1  UNL1       -0.4371
      3 O          19.9144   72.5768   -1.2377 O.2     1  UNL1       -0.5170
      4 O          19.5002   70.0856   -2.0128 O.3     1  UNL1       -0.3112
      5 C          19.1489   70.0981   -3.3843 C.3     1  UNL1        0.1811
      6 O          17.5333   71.2505   -4.7406 O.3     1  UNL1       -0.3308
      7 O          15.4459   69.7245   -3.2221 O.3     1  UNL1       -0.3794
      8 O          15.6142   68.3359   -5.5630 O.3     1  UNL1       -0.3779
      9 C          16.7450   69.3060   -3.6414 C.3     1  UNL1        0.1713
     10 C          16.7562   69.0470   -5.1331 C.3     1  UNL1        0.1895
     11 C          17.6850   70.4974   -3.5178 C.3     1  UNL1        0.1764
     12 C          16.8144   70.4563   -5.6974 C.3     1  UNL1        0.2383
     13 H          14.8277   68.9798   -3.2923 H       1  UNL1        0.2105
     14 H          15.6236   67.4454   -5.1771 H       1  UNL1        0.2106
     15 O          15.5232   70.6351   -8.2029 O.2     1  UNL1       -0.2464
     16 O          19.5346   70.6699  -10.4726 O.2     1  UNL1       -0.2670
     17 N          17.4971   70.5136   -6.9589 N.ar    1  UNL1       -0.2551
     18 N          17.5223   70.6513   -9.3310 N.ar    1  UNL1       -0.2743
     19 C          16.7545   70.6022   -8.1601 C.ar    1  UNL1        0.3323
     20 C          18.8858   70.4837   -6.9980 C.ar    1  UNL1        0.0869
     21 C          19.6038   70.5314   -8.1218 C.ar    1  UNL1        0.0795
     22 C          18.9047   70.6238   -9.4203 C.ar    1  UNL1        0.2626
     23 H          17.0274   70.7110  -10.1800 H       1  UNL1        0.1734
     24 O          21.7152   71.1880   -2.5469 O.3     1  UNL1       -0.2703
     25 P          23.1350   71.9604   -2.5806 P.3     1  UNL1        0.2208
     26 O          24.1841   70.7893   -2.9656 O.co2   1  UNL1       -0.4371
     27 O          23.4664   72.6956   -1.3142 O.2     1  UNL1       -0.5170
     28 O          23.0634   72.8914   -3.8961 O.3     1  UNL1       -0.2858
     29 O          22.8388   75.2423   -4.0753 O.3     1  UNL1       -0.3226
     30 O          20.8729   73.9488   -7.4709 O.3     1  UNL1       -0.3794
     31 O          20.5005   72.5636   -4.9259 O.3     1  UNL1       -0.3775
     32 O          23.5367   75.0952   -7.6744 O.3     1  UNL1       -0.3792
     33 C          21.8527   73.8994   -6.4337 C.3     1  UNL1        0.1718
     34 C          21.1561   73.8177   -5.0752 C.3     1  UNL1        0.1968
     35 C          22.6995   75.1710   -6.5221 C.3     1  UNL1        0.1723
     36 C          22.1593   73.9942   -3.9345 C.3     1  UNL1        0.2706
     37 C          23.5816   75.3397   -5.2884 C.3     1  UNL1        0.1830
     38 H          20.3227   73.1506   -7.4345 H       1  UNL1        0.2105
     39 H          19.8626   72.4449   -5.6466 H       1  UNL1        0.2106
     40 H          22.9874   74.9876   -8.4666 H       1  UNL1        0.2106
     41 O          23.4340   77.4918   -4.3674 O.co2   1  UNL1       -0.5466
     42 O          25.1193   77.1105   -5.8552 O.co2   1  UNL1       -0.5466
     43 C          24.1472   76.7211   -5.2256 C.2     1  UNL1        0.0799
@<TRIPOS>UNITY_ATOM_ATTR
2 1
charge -1
26 1
charge -1
41 1
charge -1
@<TRIPOS>BOND
     1     1     4    1
     2     1    24    1
     3     1     2    1
     4     1     3    2
     5    25    28    1
     6    25    24    1
     7    25    26    1
     8    25    27    2
     9     6    11    1
    10     6    12    1
    11    29    36    1
    12    29    37    1
    13     7     9    1
    14     7    13    1
    15     8    10    1
    16     8    14    1
    17     4     5    1
    18    28    36    1
    19    30    33    1
    20    30    38    1
    21    31    34    1
    22    31    39    1
    23    32    35    1
    24    32    40    1
    25    41    43   ar
    26    15    19    2
    27    42    43   ar
    28    16    22    2
    29    17    12    1
    30    17    19   ar
    31    17    20   ar
    32    18    19   ar
    33    18    22   ar
    34    18    23    1
    35     9    10    1
    36     9    11    1
    37    10    12    1
    38    11     5    1
    39    33    34    1
    40    33    35    1
    41    34    36    1
    42    35    37    1
    43    37    43    1
    44    20    21   ar
    45    21    22   ar
@<TRIPOS>MOLECULE
*****
 43 45 0 0 0
SMALL
GASTEIGER

@<TRIPOS>ATOM
      1 P          20.8554   71.3782   -1.7366 P.3     1  UNL1        0.2189
      2 O          21.9748   70.6646   -2.6621 O.co2   1  UNL1       -0.4371
      3 O          20.5119   70.6406   -0.4756 O.2     1  UNL1       -0.5170
      4 O          19.6242   71.6451   -2.7520 O.3     1  UNL1       -0.3112
      5 C          19.0520   70.5394   -3.4262 C.3     1  UNL1        0.1811
      6 O          17.3624   71.4382   -4.8805 O.3     1  UNL1       -0.3308
      7 O          15.3985   69.8243   -3.2899 O.3     1  UNL1       -0.3794
      8 O          15.7450   68.3046   -5.5275 O.3     1  UNL1       -0.3779
      9 C          16.7396   69.5051   -3.6615 C.3     1  UNL1        0.1713
     10 C          16.8055   69.1490   -5.1316 C.3     1  UNL1        0.1895
     11 C          17.5599   70.7866   -3.6070 C.3     1  UNL1        0.1764
     12 C          16.7415   70.5164   -5.7904 C.3     1  UNL1        0.2383
     13 H          14.8551   69.0208   -3.3174 H       1  UNL1        0.2105
     14 H          15.8308   67.4470   -5.0813 H       1  UNL1        0.2106
     15 O          15.4835   70.5857   -8.3181 O.2     1  UNL1       -0.2464
     16 O          19.5260   70.6601  -10.5310 O.2     1  UNL1       -0.2670
     17 N          17.4412   70.5543   -7.0434 N.ar    1  UNL1       -0.2551
     18 N          17.4981   70.6217   -9.4179 N.ar    1  UNL1       -0.2743
     19 C          16.7145   70.5871   -8.2570 C.ar    1  UNL1        0.3323
     20 C          18.8306   70.5605   -7.0619 C.ar    1  UNL1        0.0869
     21 C          19.5638   70.5938   -8.1764 C.ar    1  UNL1        0.0795
     22 C          18.8819   70.6286   -9.4868 C.ar    1  UNL1        0.2626
     23 H          17.0145   70.6428  -10.2752 H       1  UNL1        0.1734
     24 O          21.4641   72.8578   -1.5066 O.3     1  UNL1       -0.2703
     25 P          22.9226   73.3389   -1.0018 P.3     1  UNL1        0.2208
     26 O          22.9115   74.9297   -1.3010 O.co2   1  UNL1       -0.4371
     27 O          24.0672   72.5992   -1.6318 O.2     1  UNL1       -0.5170
     28 O          22.8569   73.2265    0.6061 O.3     1  UNL1       -0.2858
     29 O          24.9432   72.9692    1.6971 O.3     1  UNL1       -0.3226
     30 O          22.2885   72.1755    4.7616 O.3     1  UNL1       -0.3794
     31 O          21.8188   71.1100    2.0823 O.3     1  UNL1       -0.3775
     32 O          23.6790   74.7264    4.6596 O.3     1  UNL1       -0.3792
     33 C          22.7434   72.7976    3.5599 C.3     1  UNL1        0.1718
     34 C          23.0288   71.7275    2.5059 C.3     1  UNL1        0.1968
     35 C          24.0190   73.5781    3.8849 C.3     1  UNL1        0.1723
     36 C          23.7322   72.3313    1.2896 C.3     1  UNL1        0.2706
     37 C          24.7289   74.0389    2.6152 C.3     1  UNL1        0.1830
     38 H          21.4785   71.6736    4.5794 H       1  UNL1        0.2105
     39 H          21.3671   70.7250    2.8491 H       1  UNL1        0.2106
     40 H          23.2263   74.4469    5.4706 H       1  UNL1        0.2106
     41 O          26.9943   73.4714    2.8340 O.co2   1  UNL1       -0.5466
     42 O          26.4262   75.6476    3.2089 O.co2   1  UNL1       -0.5466
     43 C          26.1163   74.5013    2.9212 C.2     1  UNL1        0.0799
@<TRIPOS>UNITY_ATOM_ATTR
2 1
charge -1
26 1
charge -1
41 1
charge -1
@<TRIPOS>BOND
     1     1     4    1
     2     1    24    1
     3     1     2    1
     4     1     3    2
     5    25    28    1
     6    25    24    1
     7    25    26    1
     8    25    27    2
     9     6    11    1
    10     6    12    1
    11    29    36    1
    12    29    37    1
    13     7     9    1
    14     7    13    1
    15     8    10    1
    16     8    14    1
    17     4     5    1
    18    28    36    1
    19    30    33    1
    20    30    38    1
    21    31    34    1
    22    31    39    1
    23    32    35    1
    24    32    40    1
    25    41    43   ar
    26    15    19    2
    27    42    43   ar
    28    16    22    2
    29    17    12    1
    30    17    19   ar
    31    17    20   ar
    32    18    19   ar
    33    18    22   ar
    34    18    23    1
    35     9    10    1
    36     9    11    1
    37    10    12    1
    38    11     5    1
    39    33    34    1
    40    33    35    1
    41    34    36    1
    42    35    37    1
    43    37    43    1
    44    20    21   ar
    45    21    22   ar
@<TRIPOS>MOLECULE
*****
 43 45 0 0 0
SMALL
GASTEIGER

@<TRIPOS>ATOM
      1 P          21.5563   72.6325   -4.7042 P.3     1  UNL1        0.2189
      2 O          21.3923   74.2298   -4.5024 O.co2   1  UNL1       -0.4371
      3 O          22.4920   72.2257   -5.8046 O.2     1  UNL1       -0.5170
      4 O          20.0347   72.1002   -4.8431 O.3     1  UNL1       -0.3112
      5 C          19.4738   71.3680   -3.7690 C.3     1  UNL1        0.1811
      6 O          17.6082   71.8061   -5.2199 O.3     1  UNL1       -0.3308
      7 O          15.9433   70.3115   -3.2234 O.3     1  UNL1       -0.3794
      8 O          16.3331   68.4554   -5.1827 O.3     1  UNL1       -0.3779
      9 C          17.2884   70.0721   -3.6381 C.3     1  UNL1        0.1713
     10 C          17.3091   69.4639   -5.0244 C.3     1  UNL1        0.1895
     11 C          17.9550   71.4209   -3.8721 C.3     1  UNL1        0.1764
     12 C          17.0470   70.6745   -5.9040 C.3     1  UNL1        0.2383
     13 H          15.4969   69.4641   -3.0679 H       1  UNL1        0.2105
     14 H          16.5447   67.7068   -4.6023 H       1  UNL1        0.2106
     15 O          15.6421   70.7464   -8.3530 O.2     1  UNL1       -0.2464
     16 O          19.5124   70.2145  -10.7986 O.2     1  UNL1       -0.2670
     17 N          17.6627   70.5571   -7.1955 N.ar    1  UNL1       -0.2551
     18 N          17.5709   70.4804   -9.5687 N.ar    1  UNL1       -0.2743
     19 C          16.8664   70.6057   -8.3641 C.ar    1  UNL1        0.3323
     20 C          19.0395   70.3978   -7.2956 C.ar    1  UNL1        0.0869
     21 C          19.6968   70.2799   -8.4509 C.ar    1  UNL1        0.0795
     22 C          18.9389   70.3195   -9.7187 C.ar    1  UNL1        0.2626
     23 H          17.0377   70.5092  -10.3958 H       1  UNL1        0.1734
     24 O          21.9865   72.1230   -3.2318 O.3     1  UNL1       -0.2703
     25 P          23.4385   72.0106   -2.5297 P.3     1  UNL1        0.2208
     26 O          24.1489   73.4108   -2.9231 O.co2   1  UNL1       -0.4371
     27 O          24.2190   70.7895   -2.9217 O.2     1  UNL1       -0.5170
     28 O          23.1397   72.1354   -0.9493 O.3     1  UNL1       -0.2858
     29 O          24.3833   70.9730    0.6973 O.3     1  UNL1       -0.3226
     30 O          20.8652   71.7729    2.7099 O.3     1  UNL1       -0.3794
     31 O          20.8106   70.8917   -0.0748 O.3     1  UNL1       -0.3775
     32 O          23.2598   73.3168    3.2869 O.3     1  UNL1       -0.3792
     33 C          21.9136   72.0144    1.7716 C.3     1  UNL1        0.1718
     34 C          21.9652   70.8721    0.7567 C.3     1  UNL1        0.1968
     35 C          23.2310   72.0986    2.5457 C.3     1  UNL1        0.1723
     36 C          23.2130   70.9763   -0.1212 C.3     1  UNL1        0.2706
     37 C          24.4324   72.0713    1.6053 C.3     1  UNL1        0.1830
     38 H          20.0179   71.7155    2.2408 H       1  UNL1        0.2105
     39 H          20.0150   70.8263    0.4757 H       1  UNL1        0.2106
     40 H          22.5002   73.3469    3.8893 H       1  UNL1        0.2106
     41 O          26.0908   72.9444    3.0156 O.co2   1  UNL1       -0.5466
     42 O          26.2932   70.7579    2.4014 O.co2   1  UNL1       -0.5466
     43 C          25.6949   71.8226    2.3646 C.2     1  UNL1        0.0799
@<TRIPOS>UNITY_ATOM_ATTR
2 1
charge -1
26 1
charge -1
41 1
charge -1
@<TRIPOS>BOND
     1     1     4    1
     2     1    24    1
     3     1     2    1
     4     1     3    2
     5    25    28    1
     6    25    24    1
     7    25    26    1
     8    25    27    2
     9     6    11    1
    10     6    12    1
    11    29    36    1
    12    29    37    1
    13     7     9    1
    14     7    13    1
    15     8    10    1
    16     8    14    1
    17     4     5    1
    18    28    36    1
    19    30    33    1
    20    30    38    1
    21    31    34    1
    22    31    39    1
    23    32    35    1
    24    32    40    1
    25    41    43   ar
    26    15    19    2
    27    42    43   ar
    28    16    22    2
    29    17    12    1
    30    17    19   ar
    31    17    20   ar
    32    18    19   ar
    33    18    22   ar
    34    18    23    1
    35     9    10    1
    36     9    11    1
    37    10    12    1
    38    11     5    1
    39    33    34    1
    40    33    35    1
    41    34    36    1
    42    35    37    1
    43    37    43    1
    44    20    21   ar
    45    21    22   ar
@<TRIPOS>MOLECULE
*****
 43 45 0 0 0
SMALL
GASTEIGER

@<TRIPOS>ATOM
      1 P          21.5210   71.8163   -1.6496 P.3     1  UNL1        0.2189
      2 O          21.4909   73.1014   -2.6327 O.co2   1  UNL1       -0.4371
      3 O          22.7417   70.9523   -1.7734 O.2     1  UNL1       -0.5170
      4 O          20.1077   71.0798   -1.9295 O.3     1  UNL1       -0.3112
      5 C          19.6489   70.9825   -3.2654 C.3     1  UNL1        0.1811
      6 O          17.8799   71.9165   -4.5980 O.3     1  UNL1       -0.3308
      7 O          15.9901   70.5678   -2.7003 O.3     1  UNL1       -0.3794
      8 O          15.9817   68.8851   -4.8461 O.3     1  UNL1       -0.3779
      9 C          17.2566   70.1207   -3.1847 C.3     1  UNL1        0.1713
     10 C          17.1367   69.6670   -4.6242 C.3     1  UNL1        0.1895
     11 C          18.1675   71.3345   -3.3081 C.3     1  UNL1        0.1764
     12 C          17.0994   70.9900   -5.3698 C.3     1  UNL1        0.2383
     13 H          15.3908   69.8096   -2.6133 H       1  UNL1        0.2105
     14 H          16.0539   68.0538   -4.3505 H       1  UNL1        0.2106
     15 O          15.6878   70.0762   -7.6390 O.2     1  UNL1       -0.2464
     16 O          19.3498   70.6565  -10.3770 O.2     1  UNL1       -0.2670
     17 N          17.6597   70.8922   -6.6879 N.ar    1  UNL1       -0.2551
     18 N          17.5133   70.3651   -9.0003 N.ar    1  UNL1       -0.2743
     19 C          16.8651   70.4203   -7.7594 C.ar    1  UNL1        0.3323
     20 C          18.9806   71.2626   -6.9093 C.ar    1  UNL1        0.0869
     21 C          19.5846   71.2045   -8.0979 C.ar    1  UNL1        0.0795
     22 C          18.8248   70.7218   -9.2696 C.ar    1  UNL1        0.2626
     23 H          16.9810   70.0379   -9.7611 H       1  UNL1        0.1734
     24 O          21.3057   72.4723   -0.1881 O.3     1  UNL1       -0.2703
     25 P          21.4335   71.8333    1.2915 P.3     1  UNL1        0.2208
     26 O          21.5531   70.2456    0.9996 O.co2   1  UNL1       -0.4371
     27 O          20.3174   72.2085    2.2228 O.2     1  UNL1       -0.5170
     28 O          22.9027   72.2658    1.7985 O.3     1  UNL1       -0.2858
     29 O          24.5228   73.6569    0.7741 O.3     1  UNL1       -0.3226
     30 O          26.8981   70.9439    2.7904 O.3     1  UNL1       -0.3794
     31 O          24.5190   70.0468    1.3519 O.3     1  UNL1       -0.3775
     32 O          26.5572   73.6382    3.8275 O.3     1  UNL1       -0.3792
     33 C          25.7422   71.7520    2.5693 C.3     1  UNL1        0.1718
     34 C          25.0814   71.3499    1.2506 C.3     1  UNL1        0.1968
     35 C          26.1906   73.2142    2.5159 C.3     1  UNL1        0.1723
     36 C          23.9801   72.3391    0.8666 C.3     1  UNL1        0.2706
     37 C          25.0748   74.1207    2.0043 C.3     1  UNL1        0.1830
     38 H          26.6376   70.0100    2.8281 H       1  UNL1        0.2105
     39 H          25.2122   69.4140    1.5956 H       1  UNL1        0.2106
     40 H          27.2667   73.0692    4.1648 H       1  UNL1        0.2106
     41 O          25.2793   75.7902    0.3695 O.co2   1  UNL1       -0.5466
     42 O          26.2538   76.1898    2.3918 O.co2   1  UNL1       -0.5466
     43 C          25.6094   75.4688    1.6449 C.2     1  UNL1        0.0799
@<TRIPOS>UNITY_ATOM_ATTR
2 1
charge -1
26 1
charge -1
41 1
charge -1
@<TRIPOS>BOND
     1     1     4    1
     2     1    24    1
     3     1     2    1
     4     1     3    2
     5    25    28    1
     6    25    24    1
     7    25    26    1
     8    25    27    2
     9     6    11    1
    10     6    12    1
    11    29    36    1
    12    29    37    1
    13     7     9    1
    14     7    13    1
    15     8    10    1
    16     8    14    1
    17     4     5    1
    18    28    36    1
    19    30    33    1
    20    30    38    1
    21    31    34    1
    22    31    39    1
    23    32    35    1
    24    32    40    1
    25    41    43   ar
    26    15    19    2
    27    42    43   ar
    28    16    22    2
    29    17    12    1
    30    17    19   ar
    31    17    20   ar
    32    18    19   ar
    33    18    22   ar
    34    18    23    1
    35     9    10    1
    36     9    11    1
    37    10    12    1
    38    11     5    1
    39    33    34    1
    40    33    35    1
    41    34    36    1
    42    35    37    1
    43    37    43    1
    44    20    21   ar
    45    21    22   ar
@<TRIPOS>MOLECULE
*****
 43 45 0 0 0
SMALL
GASTEIGER

@<TRIPOS>ATOM
      1 P          22.8886   71.4221   -2.7003 P.3     1  UNL1        0.2189
      2 O          22.8916   73.0259   -2.4842 O.co2   1  UNL1       -0.4371
      3 O          24.2408   70.8099   -2.9204 O.2     1  UNL1       -0.5170
      4 O          21.8117   71.1918   -3.8857 O.3     1  UNL1       -0.3112
      5 C          21.6168   72.2263   -4.8324 C.3     1  UNL1        0.1811
      6 O          20.4777   70.4523   -5.9870 O.3     1  UNL1       -0.3308
      7 O          20.7939   72.1125   -8.4640 O.3     1  UNL1       -0.3794
      8 O          18.2022   72.5829   -7.7581 O.3     1  UNL1       -0.3779
      9 C          20.5482   72.5307   -7.1211 C.3     1  UNL1        0.1713
     10 C          19.1135   72.2390   -6.7354 C.3     1  UNL1        0.1895
     11 C          21.3222   71.6056   -6.1919 C.3     1  UNL1        0.1764
     12 C          19.1563   70.7440   -6.4688 C.3     1  UNL1        0.2383
     13 H          20.3096   72.6889   -9.0762 H       1  UNL1        0.2105
     14 H          18.2118   73.5445   -7.8898 H       1  UNL1        0.2106
     15 O          16.6145   69.6647   -7.0614 O.2     1  UNL1       -0.2464
     16 O          15.5629   69.2137   -2.5966 O.2     1  UNL1       -0.2670
     17 N          18.1983   70.3361   -5.4804 N.ar    1  UNL1       -0.2551
     18 N          16.0928   69.4421   -4.8371 N.ar    1  UNL1       -0.2743
     19 C          16.9499   69.8063   -5.8840 C.ar    1  UNL1        0.3323
     20 C          18.4995   70.4607   -4.1296 C.ar    1  UNL1        0.0869
     21 C          17.6723   70.1091   -3.1433 C.ar    1  UNL1        0.0795
     22 C          16.3475   69.5477   -3.4793 C.ar    1  UNL1        0.2626
     23 H          15.2169   69.0726   -5.0933 H       1  UNL1        0.1734
     24 O          22.1095   70.8811   -1.3914 O.3     1  UNL1       -0.2703
     25 P          22.3689   71.1439    0.1825 P.3     1  UNL1        0.2208
     26 O          23.9737   71.3392    0.2653 O.co2   1  UNL1       -0.4371
     27 O          21.8292   70.0709    1.0832 O.2     1  UNL1       -0.5170
     28 O          21.7651   72.6145    0.4569 O.3     1  UNL1       -0.2858
     29 O          22.6175   74.6496    1.3176 O.3     1  UNL1       -0.3226
     30 O          18.8824   74.4921    3.0760 O.3     1  UNL1       -0.3794
     31 O          20.5373   72.0914    2.8972 O.3     1  UNL1       -0.3775
     32 O          19.3674   76.2835    0.8385 O.3     1  UNL1       -0.3792
     33 C          19.8527   74.2611    2.0547 C.3     1  UNL1        0.1718
     34 C          20.9924   73.4096    2.6148 C.3     1  UNL1        0.1968
     35 C          20.3821   75.6194    1.5894 C.3     1  UNL1        0.1723
     36 C          22.1558   73.3336    1.6251 C.3     1  UNL1        0.2706
     37 C          21.6180   75.4634    0.7080 C.3     1  UNL1        0.1830
     38 H          18.5318   73.6427    3.3873 H       1  UNL1        0.2105
     39 H          19.7988   72.1321    3.5243 H       1  UNL1        0.2106
     40 H          18.5752   76.3890    1.3881 H       1  UNL1        0.2106
     41 O          22.8978   77.1647    1.6925 O.co2   1  UNL1       -0.5466
     42 O          22.3567   77.4116   -0.5087 O.co2   1  UNL1       -0.5466
     43 C          22.3134   76.7741    0.5328 C.2     1  UNL1        0.0799
@<TRIPOS>UNITY_ATOM_ATTR
2 1
charge -1
26 1
charge -1
41 1
charge -1
@<TRIPOS>BOND
     1     1     4    1
     2     1    24    1
     3     1     2    1
     4     1     3    2
     5    25    28    1
     6    25    24    1
     7    25    26    1
     8    25    27    2
     9     6    11    1
    10     6    12    1
    11    29    36    1
    12    29    37    1
    13     7     9    1
    14     7    13    1
    15     8    10    1
    16     8    14    1
    17     4     5    1
    18    28    36    1
    19    30    33    1
    20    30    38    1
    21    31    34    1
    22    31    39    1
    23    32    35    1
    24    32    40    1
    25    41    43   ar
    26    15    19    2
    27    42    43   ar
    28    16    22    2
    29    17    12    1
    30    17    19   ar
    31    17    20   ar
    32    18    19   ar
    33    18    22   ar
    34    18    23    1
    35     9    10    1
    36     9    11    1
    37    10    12    1
    38    11     5    1
    39    33    34    1
    40    33    35    1
    41    34    36    1
    42    35    37    1
    43    37    43    1
    44    20    21   ar
    45    21    22   ar
@<TRIPOS>MOLECULE
*****
 43 45 0 0 0
SMALL
GASTEIGER

@<TRIPOS>ATOM
      1 P          22.7019   72.4935   -4.6133 P.3     1  UNL1        0.2189
      2 O          23.1541   72.9743   -6.0909 O.co2   1  UNL1       -0.4371
      3 O          23.7788   71.8302   -3.8057 O.2     1  UNL1       -0.5170
      4 O          21.3771   71.6044   -4.8825 O.3     1  UNL1       -0.3112
      5 C          20.8571   70.8270   -3.8196 C.3     1  UNL1        0.1811
      6 O          18.8866   71.8047   -4.7886 O.3     1  UNL1       -0.3308
      7 O          17.3765   70.5540   -2.5200 O.3     1  UNL1       -0.3794
      8 O          16.8798   68.8408   -4.5826 O.3     1  UNL1       -0.3779
      9 C          18.5037   70.0540   -3.2397 C.3     1  UNL1        0.1713
     10 C          18.0806   69.5835   -4.6151 C.3     1  UNL1        0.1895
     11 C          19.4099   71.2319   -3.5706 C.3     1  UNL1        0.1764
     12 C          17.9365   70.8957   -5.3669 C.3     1  UNL1        0.2383
     13 H          16.7828   69.8194   -2.2973 H       1  UNL1        0.2105
     14 H          17.0235   68.0149   -4.0935 H       1  UNL1        0.2106
     15 O          16.0148   70.1931   -7.3137 O.2     1  UNL1       -0.2464
     16 O          19.1190   70.3960  -10.7147 O.2     1  UNL1       -0.2670
     17 N          18.2153   70.7579   -6.7683 N.ar    1  UNL1       -0.2551
     18 N          17.5629   70.2938   -9.0056 N.ar    1  UNL1       -0.2743
     19 C          17.1785   70.4008   -7.6625 C.ar    1  UNL1        0.3323
     20 C          19.5023   70.9771   -7.2443 C.ar    1  UNL1        0.0869
     21 C          19.8535   70.8713   -8.5273 C.ar    1  UNL1        0.0795
     22 C          18.8298   70.5013   -9.5266 C.ar    1  UNL1        0.2626
     23 H          16.8587   70.0443   -9.6467 H       1  UNL1        0.1734
     24 O          22.1053   73.8456   -3.9585 O.3     1  UNL1       -0.2703
     25 P          22.4276   74.5758   -2.5526 P.3     1  UNL1        0.2208
     26 O          21.1935   75.6092   -2.3811 O.co2   1  UNL1       -0.4371
     27 O          23.7839   75.2162   -2.4880 O.2     1  UNL1       -0.5170
     28 O          22.1682   73.4427   -1.4339 O.3     1  UNL1       -0.2858
     29 O          23.1416   73.9529    0.6641 O.3     1  UNL1       -0.3226
     30 O          21.8707   70.0657    1.2498 O.3     1  UNL1       -0.3794
     31 O          23.1456   70.8445   -1.2607 O.3     1  UNL1       -0.3775
     32 O          20.3880   72.2772    2.4168 O.3     1  UNL1       -0.3792
     33 C          21.8249   71.3832    0.7019 C.3     1  UNL1        0.1718
     34 C          23.1045   71.6527   -0.0903 C.3     1  UNL1        0.1968
     35 C          21.6983   72.3736    1.8616 C.3     1  UNL1        0.1723
     36 C          23.1961   73.1240   -0.4976 C.3     1  UNL1        0.2706
     37 C          21.9264   73.8087    1.3960 C.3     1  UNL1        0.1830
     38 H          21.9512   69.4190    0.5311 H       1  UNL1        0.2105
     39 H          23.0876   69.9096   -1.0097 H       1  UNL1        0.2106
     40 H          20.2300   71.3684    2.7169 H       1  UNL1        0.2106
     41 O          22.3335   75.9933    2.1465 O.co2   1  UNL1       -0.5466
     42 O          22.1090   74.3728    3.7348 O.co2   1  UNL1       -0.5466
     43 C          22.1279   74.7194    2.5633 C.2     1  UNL1        0.0799
@<TRIPOS>UNITY_ATOM_ATTR
2 1
charge -1
26 1
charge -1
41 1
charge -1
@<TRIPOS>BOND
     1     1     4    1
     2     1    24    1
     3     1     2    1
     4     1     3    2
     5    25    28    1
     6    25    24    1
     7    25    26    1
     8    25    27    2
     9     6    11    1
    10     6    12    1
    11    29    36    1
    12    29    37    1
    13     7     9    1
    14     7    13    1
    15     8    10    1
    16     8    14    1
    17     4     5    1
    18    28    36    1
    19    30    33    1
    20    30    38    1
    21    31    34    1
    22    31    39    1
    23    32    35    1
    24    32    40    1
    25    41    43   ar
    26    15    19    2
    27    42    43   ar
    28    16    22    2
    29    17    12    1
    30    17    19   ar
    31    17    20   ar
    32    18    19   ar
    33    18    22   ar
    34    18    23    1
    35     9    10    1
    36     9    11    1
    37    10    12    1
    38    11     5    1
    39    33    34    1
    40    33    35    1
    41    34    36    1
    42    35    37    1
    43    37    43    1
    44    20    21   ar
    45    21    22   ar
@<TRIPOS>MOLECULE
*****
 43 45 0 0 0
SMALL
GASTEIGER

@<TRIPOS>ATOM
      1 P          20.3723   70.7105   -3.0745 P.3     1  UNL1        0.2189
      2 O          20.7472   69.3547   -3.8747 O.co2   1  UNL1       -0.4371
      3 O          20.0953   70.5264   -1.6112 O.2     1  UNL1       -0.5170
      4 O          19.1674   71.3532   -3.9422 O.3     1  UNL1       -0.3112
      5 C          18.4581   72.4536   -3.4031 C.3     1  UNL1        0.1811
      6 O          16.6929   72.4606   -5.0345 O.3     1  UNL1       -0.3308
      7 O          15.1060   70.8667   -3.0513 O.3     1  UNL1       -0.3794
      8 O          15.9717   68.9568   -4.7947 O.3     1  UNL1       -0.3779
      9 C          16.5053   70.8244   -3.3320 C.3     1  UNL1        0.1713
     10 C          16.7545   70.1235   -4.6506 C.3     1  UNL1        0.1895
     11 C          16.9671   72.2437   -3.6334 C.3     1  UNL1        0.1764
     12 C          16.3871   71.2020   -5.6555 C.3     1  UNL1        0.2383
     13 H          14.7880   69.9711   -2.8557 H       1  UNL1        0.2105
     14 H          16.2439   68.3011   -4.1330 H       1  UNL1        0.2106
     15 O          15.5340   72.2262   -8.1454 O.2     1  UNL1       -0.2464
     16 O          19.3323   70.7152  -10.2747 O.2     1  UNL1       -0.2670
     17 N          17.1335   71.0903   -6.8767 N.ar    1  UNL1       -0.2551
     18 N          17.4261   71.4717   -9.2037 N.ar    1  UNL1       -0.2743
     19 C          16.6153   71.6393   -8.0734 C.ar    1  UNL1        0.3323
     20 C          18.3641   70.4448   -6.8808 C.ar    1  UNL1        0.0869
     21 C          19.1255   70.2929   -7.9662 C.ar    1  UNL1        0.0795
     22 C          18.6564   70.8369   -9.2575 C.ar    1  UNL1        0.2626
     23 H          17.0854   71.8438  -10.0492 H       1  UNL1        0.1734
     24 O          21.6189   71.6844   -3.4066 O.3     1  UNL1       -0.2703
     25 P          23.0209   71.9144   -2.6352 P.3     1  UNL1        0.2208
     26 O          23.4463   73.4117   -3.0798 O.co2   1  UNL1       -0.4371
     27 O          24.0586   70.8670   -2.9182 O.2     1  UNL1       -0.5170
     28 O          22.6147   72.0514   -1.0800 O.3     1  UNL1       -0.2858
     29 O          22.5964   73.9632    0.3178 O.3     1  UNL1       -0.3226
     30 O          23.5188   70.9650    3.0063 O.3     1  UNL1       -0.3794
     31 O          24.7559   71.0134    0.3602 O.3     1  UNL1       -0.3775
     32 O          20.8426   72.0988    2.9466 O.3     1  UNL1       -0.3792
     33 C          22.9105   71.5338    1.8468 C.3     1  UNL1        0.1718
     34 C          23.9939   72.0789    0.9158 C.3     1  UNL1        0.1968
     35 C          21.9844   72.6629    2.3043 C.3     1  UNL1        0.1723
     36 C          23.3780   72.8962   -0.2207 C.3     1  UNL1        0.2706
     37 C          21.5125   73.5087    1.1251 C.3     1  UNL1        0.1830
     38 H          24.1120   70.2449    2.7401 H       1  UNL1        0.2105
     39 H          25.1493   70.4904    1.0758 H       1  UNL1        0.2106
     40 H          21.1292   71.5579    3.6990 H       1  UNL1        0.2106
     41 O          21.2690   75.0522    2.8743 O.co2   1  UNL1       -0.5466
     42 O          20.1466   75.4888    0.9381 O.co2   1  UNL1       -0.5466
     43 C          20.8913   74.7817    1.6003 C.2     1  UNL1        0.0799
@<TRIPOS>UNITY_ATOM_ATTR
2 1
charge -1
26 1
charge -1
41 1
charge -1
@<TRIPOS>BOND
     1     1     4    1
     2     1    24    1
     3     1     2    1
     4     1     3    2
     5    25    28    1
     6    25    24    1
     7    25    26    1
     8    25    27    2
     9     6    11    1
    10     6    12    1
    11    29    36    1
    12    29    37    1
    13     7     9    1
    14     7    13    1
    15     8    10    1
    16     8    14    1
    17     4     5    1
    18    28    36    1
    19    30    33    1
    20    30    38    1
    21    31    34    1
    22    31    39    1
    23    32    35    1
    24    32    40    1
    25    41    43   ar
    26    15    19    2
    27    42    43   ar
    28    16    22    2
    29    17    12    1
    30    17    19   ar
    31    17    20   ar
    32    18    19   ar
    33    18    22   ar
    34    18    23    1
    35     9    10    1
    36     9    11    1
    37    10    12    1
    38    11     5    1
    39    33    34    1
    40    33    35    1
    41    34    36    1
    42    35    37    1
    43    37    43    1
    44    20    21   ar
    45    21    22   ar
@<TRIPOS>MOLECULE
*****
 43 45 0 0 0
SMALL
GASTEIGER

@<TRIPOS>ATOM
      1 P          21.9127   72.4487   -5.7669 P.3     1  UNL1        0.2189
      2 O          21.1994   73.8274   -5.3095 O.co2   1  UNL1       -0.4371
      3 O          23.0947   72.6182   -6.6758 O.2     1  UNL1       -0.5170
      4 O          20.6963   71.5584   -6.3549 O.3     1  UNL1       -0.3112
      5 C          20.1060   71.9464   -7.5818 C.3     1  UNL1        0.1811
      6 O          18.8719   69.9273   -7.1599 O.3     1  UNL1       -0.3308
      7 O          18.0893   70.0217  -10.0530 O.3     1  UNL1       -0.3794
      8 O          15.8695   70.9945   -8.8032 O.3     1  UNL1       -0.3779
      9 C          18.2765   71.0965   -9.1320 C.3     1  UNL1        0.1713
     10 C          17.1162   71.1633   -8.1616 C.3     1  UNL1        0.1895
     11 C          19.4373   70.7336   -8.2161 C.3     1  UNL1        0.1764
     12 C          17.4398   70.0286   -7.2046 C.3     1  UNL1        0.2383
     13 H          17.3525   70.2307  -10.6489 H       1  UNL1        0.2105
     14 H          15.7097   71.7421   -9.4011 H       1  UNL1        0.2106
     15 O          16.3127   68.0512   -5.5325 O.2     1  UNL1       -0.2464
     16 O          15.5832   71.0799   -2.1356 O.2     1  UNL1       -0.2670
     17 N          16.9473   70.2729   -5.8785 N.ar    1  UNL1       -0.2551
     18 N          15.9495   69.5618   -3.8426 N.ar    1  UNL1       -0.2743
     19 C          16.3999   69.2100   -5.1219 C.ar    1  UNL1        0.3323
     20 C          17.0107   71.5523   -5.3399 C.ar    1  UNL1        0.0869
     21 C          16.5774   71.8722   -4.1189 C.ar    1  UNL1        0.0795
     22 C          15.9907   70.8198   -3.2636 C.ar    1  UNL1        0.2626
     23 H          15.5624   68.8388   -3.2977 H       1  UNL1        0.1734
     24 O          22.2439   71.7270   -4.3590 O.3     1  UNL1       -0.2703
     25 P          23.4834   71.9111   -3.3376 P.3     1  UNL1        0.2208
     26 O          24.3531   73.0932   -4.0207 O.co2   1  UNL1       -0.4371
     27 O          24.2545   70.6507   -3.0716 O.2     1  UNL1       -0.5170
     28 O          22.8351   72.5889   -2.0251 O.3     1  UNL1       -0.2858
     29 O          22.9436   71.0500   -0.2282 O.3     1  UNL1       -0.3226
     30 O          21.0015   74.2493    1.5211 O.3     1  UNL1       -0.3794
     31 O          20.3095   73.3973   -1.1862 O.3     1  UNL1       -0.3775
     32 O          23.8038   73.7456    2.1076 O.3     1  UNL1       -0.3792
     33 C          21.9091   73.6071    0.6258 C.3     1  UNL1        0.1718
     34 C          21.1372   72.6604   -0.2937 C.3     1  UNL1        0.1968
     35 C          22.9252   72.8260    1.4620 C.3     1  UNL1        0.1723
     36 C          22.0935   71.7874   -1.1074 C.3     1  UNL1        0.2706
     37 C          23.7558   71.8854    0.5937 C.3     1  UNL1        0.1830
     38 H          20.3462   74.7521    1.0121 H       1  UNL1        0.2105
     39 H          19.7003   73.9538   -0.6766 H       1  UNL1        0.2106
     40 H          23.2876   74.3501    2.6634 H       1  UNL1        0.2106
     41 O          25.5144   70.3398    0.7352 O.co2   1  UNL1       -0.5466
     42 O          24.2406   70.6398    2.6024 O.co2   1  UNL1       -0.5466
     43 C          24.5007   70.9032    1.4380 C.2     1  UNL1        0.0799
@<TRIPOS>UNITY_ATOM_ATTR
2 1
charge -1
26 1
charge -1
41 1
charge -1
@<TRIPOS>BOND
     1     1     4    1
     2     1    24    1
     3     1     2    1
     4     1     3    2
     5    25    28    1
     6    25    24    1
     7    25    26    1
     8    25    27    2
     9     6    11    1
    10     6    12    1
    11    29    36    1
    12    29    37    1
    13     7     9    1
    14     7    13    1
    15     8    10    1
    16     8    14    1
    17     4     5    1
    18    28    36    1
    19    30    33    1
    20    30    38    1
    21    31    34    1
    22    31    39    1
    23    32    35    1
    24    32    40    1
    25    41    43   ar
    26    15    19    2
    27    42    43   ar
    28    16    22    2
    29    17    12    1
    30    17    19   ar
    31    17    20   ar
    32    18    19   ar
    33    18    22   ar
    34    18    23    1
    35     9    10    1
    36     9    11    1
    37    10    12    1
    38    11     5    1
    39    33    34    1
    40    33    35    1
    41    34    36    1
    42    35    37    1
    43    37    43    1
    44    20    21   ar
    45    21    22   ar
@<TRIPOS>MOLECULE
*****
 43 45 0 0 0
SMALL
GASTEIGER

@<TRIPOS>ATOM
      1 P          22.0710   73.8179   -2.5320 P.3     1  UNL1        0.2189
      2 O          22.2138   73.5077   -4.1138 O.co2   1  UNL1       -0.4371
      3 O          21.7839   75.2507   -2.1908 O.2     1  UNL1       -0.5170
      4 O          23.4223   73.2003   -1.8914 O.3     1  UNL1       -0.3112
      5 C          23.5823   73.2376   -0.4851 C.3     1  UNL1        0.1811
      6 O          24.6501   71.3715    0.5896 O.3     1  UNL1       -0.3308
      7 O          21.8918   70.4594    1.3320 O.3     1  UNL1       -0.3794
      8 O          22.7834   71.6019    3.6419 O.3     1  UNL1       -0.3779
      9 C          22.4123   71.7861    1.2460 C.3     1  UNL1        0.1713
     10 C          23.3215   72.0698    2.4228 C.3     1  UNL1        0.1895
     11 C          23.3832   71.8348    0.0742 C.3     1  UNL1        0.1764
     12 C          24.5911   71.3367    2.0244 C.3     1  UNL1        0.2383
     13 H          21.2687   70.4036    2.0738 H       1  UNL1        0.2105
     14 H          21.9772   72.0998    3.8517 H       1  UNL1        0.2106
     15 O          24.7159   74.0053    2.9404 O.2     1  UNL1       -0.2464
     16 O          29.1741   73.6112    4.0418 O.2     1  UNL1       -0.2670
     17 N          25.7717   71.9570    2.5555 N.ar    1  UNL1       -0.2551
     18 N          26.9365   73.8068    3.4872 N.ar    1  UNL1       -0.2743
     19 C          25.7279   73.3036    2.9880 C.ar    1  UNL1        0.3323
     20 C          26.9547   71.2336    2.6454 C.ar    1  UNL1        0.0869
     21 C          28.0987   71.7269    3.1236 C.ar    1  UNL1        0.0795
     22 C          28.1385   73.1265    3.5958 C.ar    1  UNL1        0.2626
     23 H          26.9312   74.7428    3.7925 H       1  UNL1        0.1734
     24 O          20.9333   72.7719   -2.0583 O.3     1  UNL1       -0.2703
     25 P          20.6673   71.2326   -2.4745 P.3     1  UNL1        0.2208
     26 O          19.9615   70.6101   -1.1574 O.co2   1  UNL1       -0.4371
     27 O          21.8951   70.4954   -2.9249 O.2     1  UNL1       -0.5170
     28 O          19.4882   71.3035   -3.5732 O.3     1  UNL1       -0.2858
     29 O          17.9659   69.5159   -3.2629 O.3     1  UNL1       -0.3226
     30 O          16.4685   71.3139   -6.6677 O.3     1  UNL1       -0.3794
     31 O          19.3473   70.9512   -6.3286 O.3     1  UNL1       -0.3775
     32 O          15.1393   71.6961   -4.1108 O.3     1  UNL1       -0.3792
     33 C          17.1271   71.2648   -5.4021 C.3     1  UNL1        0.1718
     34 C          18.3547   70.3587   -5.4989 C.3     1  UNL1        0.1968
     35 C          16.1368   70.7115   -4.3749 C.3     1  UNL1        0.1723
     36 C          18.9526   70.0978   -4.1157 C.3     1  UNL1        0.2706
     37 C          16.8332   70.3587   -3.0637 C.3     1  UNL1        0.1830
     38 H          17.0786   71.6625   -7.3366 H       1  UNL1        0.2105
     39 H          18.9747   71.1198   -7.2078 H       1  UNL1        0.2106
     40 H          14.6886   71.9296   -4.9373 H       1  UNL1        0.2106
     41 O          16.5864   68.4036   -1.7916 O.co2   1  UNL1       -0.5466
     42 O          14.7963   69.8125   -1.8915 O.co2   1  UNL1       -0.5466
     43 C          15.9441   69.5267   -2.1980 C.2     1  UNL1        0.0799
@<TRIPOS>UNITY_ATOM_ATTR
2 1
charge -1
26 1
charge -1
41 1
charge -1
@<TRIPOS>BOND
     1     1     4    1
     2     1    24    1
     3     1     2    1
     4     1     3    2
     5    25    28    1
     6    25    24    1
     7    25    26    1
     8    25    27    2
     9     6    11    1
    10     6    12    1
    11    29    36    1
    12    29    37    1
    13     7     9    1
    14     7    13    1
    15     8    10    1
    16     8    14    1
    17     4     5    1
    18    28    36    1
    19    30    33    1
    20    30    38    1
    21    31    34    1
    22    31    39    1
    23    32    35    1
    24    32    40    1
    25    41    43   ar
    26    15    19    2
    27    42    43   ar
    28    16    22    2
    29    17    12    1
    30    17    19   ar
    31    17    20   ar
    32    18    19   ar
    33    18    22   ar
    34    18    23    1
    35     9    10    1
    36     9    11    1
    37    10    12    1
    38    11     5    1
    39    33    34    1
    40    33    35    1
    41    34    36    1
    42    35    37    1
    43    37    43    1
    44    20    21   ar
    45    21    22   ar
@<TRIPOS>MOLECULE
*****
 43 45 0 0 0
SMALL
GASTEIGER

@<TRIPOS>ATOM
      1 P          21.7585   72.8091   -6.3630 P.3     1  UNL1        0.2189
      2 O          20.5504   73.8195   -5.9910 O.co2   1  UNL1       -0.4371
      3 O          23.0594   73.4752   -6.7033 O.2     1  UNL1       -0.5170
      4 O          21.1317   71.8616   -7.5151 O.3     1  UNL1       -0.3112
      5 C          20.7733   70.5341   -7.1779 C.3     1  UNL1        0.1811
      6 O          18.6188   69.4756   -7.3009 O.3     1  UNL1       -0.3308
      7 O          18.3986   70.6635  -10.0454 O.3     1  UNL1       -0.3794
      8 O          16.8776   72.3541   -8.5406 O.3     1  UNL1       -0.3779
      9 C          18.9974   71.2094   -8.8698 C.3     1  UNL1        0.1713
     10 C          17.9277   71.6617   -7.8984 C.3     1  UNL1        0.1895
     11 C          19.6591   70.0699   -8.1071 C.3     1  UNL1        0.1764
     12 C          17.4749   70.3444   -7.2922 C.3     1  UNL1        0.2383
     13 H          17.9693   71.3730  -10.5493 H       1  UNL1        0.2105
     14 H          17.2165   73.1854   -8.9095 H       1  UNL1        0.2106
     15 O          16.1738   68.3158   -5.8197 O.2     1  UNL1       -0.2464
     16 O          15.7419   71.0270   -2.1174 O.2     1  UNL1       -0.2670
     17 N          17.0119   70.4932   -5.9415 N.ar    1  UNL1       -0.2551
     18 N          15.9590   69.6684   -3.9775 N.ar    1  UNL1       -0.2743
     19 C          16.3702   69.4122   -5.2922 C.ar    1  UNL1        0.3323
     20 C          17.1963   71.6979   -5.2738 C.ar    1  UNL1        0.0869
     21 C          16.7990   71.9270   -4.0207 C.ar    1  UNL1        0.0795
     22 C          16.1195   70.8497   -3.2716 C.ar    1  UNL1        0.2626
     23 H          15.5079   68.9314   -3.5056 H       1  UNL1        0.1734
     24 O          21.8196   71.8285   -5.0795 O.3     1  UNL1       -0.2703
     25 P          21.7830   72.1498   -3.4955 P.3     1  UNL1        0.2208
     26 O          22.3424   73.6666   -3.4127 O.co2   1  UNL1       -0.4371
     27 O          22.5376   71.1653   -2.6498 O.2     1  UNL1       -0.5170
     28 O          20.2145   72.2744   -3.1393 O.3     1  UNL1       -0.2858
     29 O          20.1845   72.1702   -0.7734 O.3     1  UNL1       -0.3226
     30 O          22.4343   75.5712   -1.4366 O.3     1  UNL1       -0.3794
     31 O          20.0382   75.0478   -3.0239 O.3     1  UNL1       -0.3775
     32 O          23.7312   73.0985   -0.6274 O.3     1  UNL1       -0.3792
     33 C          21.9299   74.2663   -1.7212 C.3     1  UNL1        0.1718
     34 C          20.4081   74.3241   -1.8559 C.3     1  UNL1        0.1968
     35 C          22.3274   73.3436   -0.5669 C.3     1  UNL1        0.1723
     36 C          19.8117   72.9179   -1.9316 C.3     1  UNL1        0.2706
     37 C          21.5952   72.0070   -0.6446 C.3     1  UNL1        0.1830
     38 H          22.1938   76.1752   -2.1568 H       1  UNL1        0.2105
     39 H          20.4135   75.9410   -2.9826 H       1  UNL1        0.2106
     40 H          24.2090   73.9413   -0.5791 H       1  UNL1        0.2106
     41 O          22.2216   72.0545    1.6152 O.co2   1  UNL1       -0.5466
     42 O          21.4375   70.0769    0.7946 O.co2   1  UNL1       -0.5466
     43 C          21.7299   71.2529    0.6381 C.2     1  UNL1        0.0799
@<TRIPOS>UNITY_ATOM_ATTR
2 1
charge -1
26 1
charge -1
41 1
charge -1
@<TRIPOS>BOND
     1     1     4    1
     2     1    24    1
     3     1     2    1
     4     1     3    2
     5    25    28    1
     6    25    24    1
     7    25    26    1
     8    25    27    2
     9     6    11    1
    10     6    12    1
    11    29    36    1
    12    29    37    1
    13     7     9    1
    14     7    13    1
    15     8    10    1
    16     8    14    1
    17     4     5    1
    18    28    36    1
    19    30    33    1
    20    30    38    1
    21    31    34    1
    22    31    39    1
    23    32    35    1
    24    32    40    1
    25    41    43   ar
    26    15    19    2
    27    42    43   ar
    28    16    22    2
    29    17    12    1
    30    17    19   ar
    31    17    20   ar
    32    18    19   ar
    33    18    22   ar
    34    18    23    1
    35     9    10    1
    36     9    11    1
    37    10    12    1
    38    11     5    1
    39    33    34    1
    40    33    35    1
    41    34    36    1
    42    35    37    1
    43    37    43    1
    44    20    21   ar
    45    21    22   ar
@<TRIPOS>MOLECULE
*****
 43 45 0 0 0
SMALL
GASTEIGER

@<TRIPOS>ATOM
      1 P          20.5192   71.4710   -1.6320 P.3     1  UNL1        0.2189
      2 O          19.4910   72.3878   -0.7829 O.co2   1  UNL1       -0.4371
      3 O          21.3388   72.2121   -2.6473 O.2     1  UNL1       -0.5170
      4 O          19.5897   70.2807   -2.2127 O.3     1  UNL1       -0.3112
      5 C          19.2549   70.2942   -3.5883 C.3     1  UNL1        0.1811
      6 O          17.6457   71.3763   -5.0086 O.3     1  UNL1       -0.3308
      7 O          15.5484   69.9821   -3.3809 O.3     1  UNL1       -0.3794
      8 O          15.6833   68.4399   -5.6258 O.3     1  UNL1       -0.3779
      9 C          16.8391   69.5193   -3.7789 C.3     1  UNL1        0.1713
     10 C          16.8372   69.1623   -5.2502 C.3     1  UNL1        0.1895
     11 C          17.7955   70.7035   -3.7396 C.3     1  UNL1        0.1764
     12 C          16.9102   70.5303   -5.9068 C.3     1  UNL1        0.2383
     13 H          14.9200   69.2429   -3.3982 H       1  UNL1        0.2105
     14 H          15.6834   67.5768   -5.1819 H       1  UNL1        0.2106
     15 O          15.6078   70.6139   -8.4115 O.2     1  UNL1       -0.2464
     16 O          19.6018   70.3888  -10.7009 O.2     1  UNL1       -0.2670
     17 N          17.5854   70.4950   -7.1732 N.ar    1  UNL1       -0.2551
     18 N          17.5982   70.5007   -9.5493 N.ar    1  UNL1       -0.2743
     19 C          16.8376   70.5421   -8.3734 C.ar    1  UNL1        0.3323
     20 C          18.9721   70.4164   -7.2179 C.ar    1  UNL1        0.0869
     21 C          19.6831   70.3779   -8.3465 C.ar    1  UNL1        0.0795
     22 C          18.9782   70.4219   -9.6443 C.ar    1  UNL1        0.2626
     23 H          17.0995   70.5301  -10.3977 H       1  UNL1        0.1734
     24 O          21.3806   70.7310   -0.4816 O.3     1  UNL1       -0.2703
     25 P          22.0095   71.2904    0.8986 P.3     1  UNL1        0.2208
     26 O          23.1448   70.1941    1.2588 O.co2   1  UNL1       -0.4371
     27 O          21.0012   71.5170    1.9876 O.2     1  UNL1       -0.5170
     28 O          22.8367   72.6066    0.4677 O.3     1  UNL1       -0.2858
     29 O          22.4928   74.3241    2.0618 O.3     1  UNL1       -0.3226
     30 O          24.8611   76.2336   -0.7334 O.3     1  UNL1       -0.3794
     31 O          22.6882   74.4767   -1.5858 O.3     1  UNL1       -0.3775
     32 O          26.0026   75.3591    1.7931 O.3     1  UNL1       -0.3792
     33 C          24.3793   75.1263    0.0280 C.3     1  UNL1        0.1718
     34 C          22.8896   74.9236   -0.2500 C.3     1  UNL1        0.1968
     35 C          24.6069   75.4361    1.5093 C.3     1  UNL1        0.1723
     36 C          22.2876   73.8999    0.7137 C.3     1  UNL1        0.2706
     37 C          23.8715   74.4439    2.4054 C.3     1  UNL1        0.1830
     38 H          24.7269   76.0593   -1.6783 H       1  UNL1        0.2105
     39 H          23.0680   75.1214   -2.2027 H       1  UNL1        0.2106
     40 H          26.4823   75.9858    1.2292 H       1  UNL1        0.2106
     41 O          23.6210   73.9076    4.6750 O.co2   1  UNL1       -0.5466
     42 O          23.9526   76.1028    4.1555 O.co2   1  UNL1       -0.5466
     43 C          23.8243   74.9363    3.8152 C.2     1  UNL1        0.0799
@<TRIPOS>UNITY_ATOM_ATTR
2 1
charge -1
26 1
charge -1
41 1
charge -1
@<TRIPOS>BOND
     1     1     4    1
     2     1    24    1
     3     1     2    1
     4     1     3    2
     5    25    28    1
     6    25    24    1
     7    25    26    1
     8    25    27    2
     9     6    11    1
    10     6    12    1
    11    29    36    1
    12    29    37    1
    13     7     9    1
    14     7    13    1
    15     8    10    1
    16     8    14    1
    17     4     5    1
    18    28    36    1
    19    30    33    1
    20    30    38    1
    21    31    34    1
    22    31    39    1
    23    32    35    1
    24    32    40    1
    25    41    43   ar
    26    15    19    2
    27    42    43   ar
    28    16    22    2
    29    17    12    1
    30    17    19   ar
    31    17    20   ar
    32    18    19   ar
    33    18    22   ar
    34    18    23    1
    35     9    10    1
    36     9    11    1
    37    10    12    1
    38    11     5    1
    39    33    34    1
    40    33    35    1
    41    34    36    1
    42    35    37    1
    43    37    43    1
    44    20    21   ar
    45    21    22   ar
@<TRIPOS>MOLECULE
*****
 43 45 0 0 0
SMALL
GASTEIGER

@<TRIPOS>ATOM
      1 P          23.5608   72.0769   -3.0494 P.3     1  UNL1        0.2189
      2 O          24.3552   73.1917   -3.9126 O.co2   1  UNL1       -0.4371
      3 O          24.1993   70.7191   -3.0277 O.2     1  UNL1       -0.5170
      4 O          22.0531   72.1350   -3.6335 O.3     1  UNL1       -0.3112
      5 C          21.2948   70.9399   -3.6682 C.3     1  UNL1        0.1811
      6 O          19.2117   71.8154   -4.4876 O.3     1  UNL1       -0.3308
      7 O          17.9316   70.4576   -2.1404 O.3     1  UNL1       -0.3794
      8 O          17.3909   68.7414   -4.1894 O.3     1  UNL1       -0.3779
      9 C          19.0330   70.0295   -2.9418 C.3     1  UNL1        0.1713
     10 C          18.5437   69.5507   -4.2923 C.3     1  UNL1        0.1895
     11 C          19.8478   71.2600   -3.3162 C.3     1  UNL1        0.1764
     12 C          18.2761   70.8607   -5.0134 C.3     1  UNL1        0.2383
     13 H          17.3961   69.6884   -1.8889 H       1  UNL1        0.2105
     14 H          17.6132   67.9197   -3.7232 H       1  UNL1        0.2106
     15 O          20.7151   70.1498   -6.2472 O.2     1  UNL1       -0.2464
     16 O          18.8884   70.4818  -10.4658 O.2     1  UNL1       -0.2670
     17 N          18.4658   70.7538   -6.4324 N.ar    1  UNL1       -0.2551
     18 N          19.8032   70.3169   -8.3472 N.ar    1  UNL1       -0.2743
     19 C          19.7315   70.3899   -6.9498 C.ar    1  UNL1        0.3323
     20 C          17.4059   71.0063   -7.2948 C.ar    1  UNL1        0.0869
     21 C          17.4896   70.9325   -8.6246 C.ar    1  UNL1        0.0795
     22 C          18.7772   70.5594   -9.2461 C.ar    1  UNL1        0.2626
     23 H          20.6749   70.0673   -8.7309 H       1  UNL1        0.1734
     24 O          23.4159   72.7762   -1.5993 O.3     1  UNL1       -0.2703
     25 P          22.4094   72.4736   -0.3708 P.3     1  UNL1        0.2208
     26 O          22.2791   70.8602   -0.3882 O.co2   1  UNL1       -0.4371
     27 O          21.0987   73.2008   -0.4553 O.2     1  UNL1       -0.5170
     28 O          23.2711   72.7983    0.9538 O.3     1  UNL1       -0.2858
     29 O          23.8019   75.0972    0.7476 O.3     1  UNL1       -0.3226
     30 O          25.2701   74.2295    4.5106 O.3     1  UNL1       -0.3794
     31 O          25.6656   72.3614    2.2996 O.3     1  UNL1       -0.3775
     32 O          22.7828   75.7058    4.2194 O.3     1  UNL1       -0.3792
     33 C          24.3860   74.1067    3.3964 C.3     1  UNL1        0.1718
     34 C          25.1792   73.6910    2.1572 C.3     1  UNL1        0.1968
     35 C          23.7186   75.4651    3.1702 C.3     1  UNL1        0.1723
     36 C          24.3121   73.7721    0.9000 C.3     1  UNL1        0.2706
     37 C          22.9779   75.5067    1.8368 C.3     1  UNL1        0.1830
     38 H          25.7059   73.3781    4.6732 H       1  UNL1        0.2105
     39 H          26.2164   72.3026    3.0956 H       1  UNL1        0.2106
     40 H          23.2415   75.6818    5.0737 H       1  UNL1        0.2106
     41 O          23.2683   77.7934    2.2707 O.co2   1  UNL1       -0.5466
     42 O          21.8423   77.2277    0.5837 O.co2   1  UNL1       -0.5466
     43 C          22.6161   76.9103    1.4745 C.2     1  UNL1        0.0799
@<TRIPOS>UNITY_ATOM_ATTR
2 1
charge -1
26 1
charge -1
41 1
charge -1
@<TRIPOS>BOND
     1     1     4    1
     2     1    24    1
     3     1     2    1
     4     1     3    2
     5    25    28    1
     6    25    24    1
     7    25    26    1
     8    25    27    2
     9     6    11    1
    10     6    12    1
    11    29    36    1
    12    29    37    1
    13     7     9    1
    14     7    13    1
    15     8    10    1
    16     8    14    1
    17     4     5    1
    18    28    36    1
    19    30    33    1
    20    30    38    1
    21    31    34    1
    22    31    39    1
    23    32    35    1
    24    32    40    1
    25    41    43   ar
    26    15    19    2
    27    42    43   ar
    28    16    22    2
    29    17    12    1
    30    17    19   ar
    31    17    20   ar
    32    18    19   ar
    33    18    22   ar
    34    18    23    1
    35     9    10    1
    36     9    11    1
    37    10    12    1
    38    11     5    1
    39    33    34    1
    40    33    35    1
    41    34    36    1
    42    35    37    1
    43    37    43    1
    44    20    21   ar
    45    21    22   ar
@<TRIPOS>MOLECULE
*****
 43 45 0 0 0
SMALL
GASTEIGER

@<TRIPOS>ATOM
      1 P          20.2620   71.7677   -1.3754 P.3     1  UNL1        0.2189
      2 O          19.0637   72.6909   -0.8006 O.co2   1  UNL1       -0.4371
      3 O          21.3052   72.5028   -2.1648 O.2     1  UNL1       -0.5170
      4 O          19.4945   70.5793   -2.1607 O.3     1  UNL1       -0.3112
      5 C          19.1950   70.7589   -3.5328 C.3     1  UNL1        0.1811
      6 O          17.4764   71.6020   -4.9865 O.3     1  UNL1       -0.3308
      7 O          15.5372   70.1103   -3.2527 O.3     1  UNL1       -0.3794
      8 O          15.7964   68.4632   -5.4105 O.3     1  UNL1       -0.3779
      9 C          16.8622   69.7497   -3.6438 C.3     1  UNL1        0.1713
     10 C          16.8800   69.3114   -5.0929 C.3     1  UNL1        0.1895
     11 C          17.7018   71.0192   -3.6846 C.3     1  UNL1        0.1764
     12 C          16.8161   70.6409   -5.8253 C.3     1  UNL1        0.2383
     13 H          14.9819   69.3152   -3.2196 H       1  UNL1        0.2105
     14 H          15.8831   67.6304   -4.9195 H       1  UNL1        0.2106
     15 O          15.4859   70.6014   -8.3164 O.2     1  UNL1       -0.2464
     16 O          19.4623   70.4759  -10.6438 O.2     1  UNL1       -0.2670
     17 N          17.4793   70.5980   -7.0978 N.ar    1  UNL1       -0.2551
     18 N          17.4676   70.5379   -9.4732 N.ar    1  UNL1       -0.2743
     19 C          16.7179   70.5810   -8.2903 C.ar    1  UNL1        0.3323
     20 C          18.8674   70.5749   -7.1560 C.ar    1  UNL1        0.0869
     21 C          19.5680   70.5340   -8.2911 C.ar    1  UNL1        0.0795
     22 C          18.8486   70.5130   -9.5816 C.ar    1  UNL1        0.2626
     23 H          16.9595   70.5233  -10.3164 H       1  UNL1        0.1734
     24 O          20.8178   71.0277   -0.0501 O.3     1  UNL1       -0.2703
     25 P          21.7089   71.5814    1.1799 P.3     1  UNL1        0.2208
     26 O          22.9603   70.5554    1.2212 O.co2   1  UNL1       -0.4371
     27 O          20.9625   71.6989    2.4772 O.2     1  UNL1       -0.5170
     28 O          22.3356   72.9665    0.6403 O.3     1  UNL1       -0.2858
     29 O          24.0715   73.8423   -0.7121 O.3     1  UNL1       -0.3226
     30 O          24.7425   75.7785    2.8753 O.3     1  UNL1       -0.3794
     31 O          24.0492   72.9409    2.8310 O.3     1  UNL1       -0.3775
     32 O          23.5224   77.2029    0.6542 O.3     1  UNL1       -0.3792
     33 C          23.9587   75.1601    1.8548 C.3     1  UNL1        0.1718
     34 C          24.3977   73.7058    1.6829 C.3     1  UNL1        0.1968
     35 C          24.1752   75.9386    0.5552 C.3     1  UNL1        0.1723
     36 C          23.7448   73.0793    0.4500 C.3     1  UNL1        0.2706
     37 C          23.6055   75.1882   -0.6452 C.3     1  UNL1        0.1830
     38 H          24.6209   75.3006    3.7108 H       1  UNL1        0.2105
     39 H          24.4599   73.3330    3.6171 H       1  UNL1        0.2106
     40 H          23.8757   77.6907    1.4146 H       1  UNL1        0.2106
     41 O          23.4002   75.2954   -2.9792 O.co2   1  UNL1       -0.5466
     42 O          25.0124   76.5889   -2.0164 O.co2   1  UNL1       -0.5466
     43 C          24.1020   75.7791   -1.9245 C.2     1  UNL1        0.0799
@<TRIPOS>UNITY_ATOM_ATTR
2 1
charge -1
26 1
charge -1
41 1
charge -1
@<TRIPOS>BOND
     1     1     4    1
     2     1    24    1
     3     1     2    1
     4     1     3    2
     5    25    28    1
     6    25    24    1
     7    25    26    1
     8    25    27    2
     9     6    11    1
    10     6    12    1
    11    29    36    1
    12    29    37    1
    13     7     9    1
    14     7    13    1
    15     8    10    1
    16     8    14    1
    17     4     5    1
    18    28    36    1
    19    30    33    1
    20    30    38    1
    21    31    34    1
    22    31    39    1
    23    32    35    1
    24    32    40    1
    25    41    43   ar
    26    15    19    2
    27    42    43   ar
    28    16    22    2
    29    17    12    1
    30    17    19   ar
    31    17    20   ar
    32    18    19   ar
    33    18    22   ar
    34    18    23    1
    35     9    10    1
    36     9    11    1
    37    10    12    1
    38    11     5    1
    39    33    34    1
    40    33    35    1
    41    34    36    1
    42    35    37    1
    43    37    43    1
    44    20    21   ar
    45    21    22   ar
@<TRIPOS>MOLECULE
*****
 43 45 0 0 0
SMALL
GASTEIGER

@<TRIPOS>ATOM
      1 P          23.2532   71.4518   -1.9090 P.3     1  UNL1        0.2189
      2 O          21.8016   70.7542   -1.7508 O.co2   1  UNL1       -0.4371
      3 O          24.1860   70.7643   -2.8625 O.2     1  UNL1       -0.5170
      4 O          23.7837   71.5945   -0.3871 O.3     1  UNL1       -0.3112
      5 C          23.4637   72.7708    0.3329 C.3     1  UNL1        0.1811
      6 O          22.5942   72.3571    2.5353 O.3     1  UNL1       -0.3308
      7 O          19.9307   73.1892    1.4378 O.3     1  UNL1       -0.3794
      8 O          20.7493   75.4221    2.7719 O.3     1  UNL1       -0.3779
      9 C          21.2313   73.6927    1.1321 C.3     1  UNL1        0.1713
     10 C          21.7415   74.5516    2.2697 C.3     1  UNL1        0.1895
     11 C          22.2053   72.5227    1.1545 C.3     1  UNL1        0.1764
     12 C          22.1714   73.5068    3.2854 C.3     1  UNL1        0.2383
     13 H          19.2909   73.9188    1.4294 H       1  UNL1        0.2105
     14 H          20.5100   76.0682    2.0884 H       1  UNL1        0.2106
     15 O          22.2476   73.2793    6.0994 O.2     1  UNL1       -0.2464
     16 O          26.4016   75.2632    6.3298 O.2     1  UNL1       -0.2670
     17 N          23.2606   73.9556    4.1057 N.ar    1  UNL1       -0.2551
     18 N          24.3160   74.2685    6.2116 N.ar    1  UNL1       -0.2743
     19 C          23.1996   73.7944    5.5101 C.ar    1  UNL1        0.3323
     20 C          24.3734   74.5459    3.5190 C.ar    1  UNL1        0.0869
     21 C          25.4300   74.9927    4.2007 C.ar    1  UNL1        0.0795
     22 C          25.4454   74.8631    5.6725 C.ar    1  UNL1        0.2626
     23 H          24.2956   74.1692    7.1909 H       1  UNL1        0.1734
     24 O          22.8828   72.9736   -2.3089 O.3     1  UNL1       -0.2703
     25 P          23.1016   73.7925   -3.6856 P.3     1  UNL1        0.2208
     26 O          24.3845   73.0627   -4.3502 O.co2   1  UNL1       -0.4371
     27 O          23.2592   75.2742   -3.5023 O.2     1  UNL1       -0.5170
     28 O          21.8588   73.3620   -4.6198 O.3     1  UNL1       -0.2858
     29 O          20.3893   71.5056   -4.5609 O.3     1  UNL1       -0.3226
     30 O          20.8218   72.1068   -8.6253 O.3     1  UNL1       -0.3794
     31 O          23.1326   72.2888   -6.8473 O.3     1  UNL1       -0.3775
     32 O          18.3808   72.9325   -7.2797 O.3     1  UNL1       -0.3792
     33 C          20.7489   72.4893   -7.2519 C.3     1  UNL1        0.1718
     34 C          21.8567   71.7877   -6.4657 C.3     1  UNL1        0.1968
     35 C          19.3749   72.0774   -6.7185 C.3     1  UNL1        0.1723
     36 C          21.6719   71.9896   -4.9611 C.3     1  UNL1        0.2706
     37 C          19.3116   72.1880   -5.1979 C.3     1  UNL1        0.1830
     38 H          21.6866   72.3586   -8.9858 H       1  UNL1        0.2105
     39 H          23.2565   72.1641   -7.8010 H       1  UNL1        0.2106
     40 H          18.4107   72.8716   -8.2473 H       1  UNL1        0.2106
     41 O          18.0202   70.2301   -5.1742 O.co2   1  UNL1       -0.5466
     42 O          17.3058   71.9630   -3.8759 O.co2   1  UNL1       -0.5466
     43 C          18.1066   71.4838   -4.6646 C.2     1  UNL1        0.0799
@<TRIPOS>UNITY_ATOM_ATTR
2 1
charge -1
26 1
charge -1
41 1
charge -1
@<TRIPOS>BOND
     1     1     4    1
     2     1    24    1
     3     1     2    1
     4     1     3    2
     5    25    28    1
     6    25    24    1
     7    25    26    1
     8    25    27    2
     9     6    11    1
    10     6    12    1
    11    29    36    1
    12    29    37    1
    13     7     9    1
    14     7    13    1
    15     8    10    1
    16     8    14    1
    17     4     5    1
    18    28    36    1
    19    30    33    1
    20    30    38    1
    21    31    34    1
    22    31    39    1
    23    32    35    1
    24    32    40    1
    25    41    43   ar
    26    15    19    2
    27    42    43   ar
    28    16    22    2
    29    17    12    1
    30    17    19   ar
    31    17    20   ar
    32    18    19   ar
    33    18    22   ar
    34    18    23    1
    35     9    10    1
    36     9    11    1
    37    10    12    1
    38    11     5    1
    39    33    34    1
    40    33    35    1
    41    34    36    1
    42    35    37    1
    43    37    43    1
    44    20    21   ar
    45    21    22   ar
@<TRIPOS>MOLECULE
*****
 43 45 0 0 0
SMALL
GASTEIGER

@<TRIPOS>ATOM
      1 P          23.1550   72.5116   -4.0074 P.3     1  UNL1        0.2189
      2 O          23.1793   72.4089   -5.6222 O.co2   1  UNL1       -0.4371
      3 O          24.0475   71.5366   -3.2970 O.2     1  UNL1       -0.5170
      4 O          21.5827   72.4242   -3.6361 O.3     1  UNL1       -0.3112
      5 C          21.0336   71.1598   -3.3129 C.3     1  UNL1        0.1811
      6 O          18.9140   71.8697   -4.1969 O.3     1  UNL1       -0.3308
      7 O          17.6679   70.2907   -1.9730 O.3     1  UNL1       -0.3794
      8 O          17.3890   68.6260   -4.1147 O.3     1  UNL1       -0.3779
      9 C          18.8405   70.0063   -2.7363 C.3     1  UNL1        0.1713
     10 C          18.4612   69.5451   -4.1276 C.3     1  UNL1        0.1895
     11 C          19.5479   71.3245   -3.0195 C.3     1  UNL1        0.1764
     12 C          18.1001   70.8552   -4.8066 C.3     1  UNL1        0.2383
     13 H          17.1990   69.4634   -1.7797 H       1  UNL1        0.2105
     14 H          17.6690   67.8088   -3.6722 H       1  UNL1        0.2106
     15 O          20.6077   70.2415   -5.9521 O.2     1  UNL1       -0.2464
     16 O          18.9924   70.7950  -10.2332 O.2     1  UNL1       -0.2670
     17 N          18.3628   70.8316   -6.2178 N.ar    1  UNL1       -0.2551
     18 N          19.8010   70.5188   -8.0832 N.ar    1  UNL1       -0.2743
     19 C          19.6577   70.5111   -6.6895 C.ar    1  UNL1        0.3323
     20 C          17.3445   71.1218   -7.1177 C.ar    1  UNL1        0.0869
     21 C          17.4963   71.1250   -8.4435 C.ar    1  UNL1        0.0795
     22 C          18.8186   70.8016   -9.0183 C.ar    1  UNL1        0.2626
     23 H          20.6942   70.3007   -8.4353 H       1  UNL1        0.1734
     24 O          23.5063   74.0662   -3.7373 O.3     1  UNL1       -0.2703
     25 P          22.9260   75.1120   -2.6495 P.3     1  UNL1        0.2208
     26 O          21.3427   75.1531   -2.9840 O.co2   1  UNL1       -0.4371
     27 O          23.5970   76.4549   -2.6675 O.2     1  UNL1       -0.5170
     28 O          23.0244   74.3333   -1.2401 O.3     1  UNL1       -0.2858
     29 O          21.8032   72.6059   -0.1752 O.3     1  UNL1       -0.3226
     30 O          22.4908   75.2060    2.9609 O.3     1  UNL1       -0.3794
     31 O          21.7272   76.2258    0.3320 O.3     1  UNL1       -0.3775
     32 O          24.0273   72.7481    2.7395 O.3     1  UNL1       -0.3792
     33 C          22.7796   74.5446    1.7292 C.3     1  UNL1        0.1718
     34 C          21.6815   74.8553    0.7118 C.3     1  UNL1        0.1968
     35 C          22.8412   73.0403    2.0032 C.3     1  UNL1        0.1723
     36 C          21.8320   73.9869   -0.5380 C.3     1  UNL1        0.2706
     37 C          22.8626   72.2380    0.7053 C.3     1  UNL1        0.1830
     38 H          22.4468   76.1636    2.8114 H       1  UNL1        0.2105
     39 H          21.6326   76.7827    1.1203 H       1  UNL1        0.2106
     40 H          24.0262   73.2526    3.5679 H       1  UNL1        0.2106
     41 O          23.7277   70.1540    1.3458 O.co2   1  UNL1       -0.5466
     42 O          21.5003   70.2534    0.8682 O.co2   1  UNL1       -0.5466
     43 C          22.5919   70.7928    0.9705 C.2     1  UNL1        0.0799
@<TRIPOS>UNITY_ATOM_ATTR
2 1
charge -1
26 1
charge -1
41 1
charge -1
@<TRIPOS>BOND
     1     1     4    1
     2     1    24    1
     3     1     2    1
     4     1     3    2
     5    25    28    1
     6    25    24    1
     7    25    26    1
     8    25    27    2
     9     6    11    1
    10     6    12    1
    11    29    36    1
    12    29    37    1
    13     7     9    1
    14     7    13    1
    15     8    10    1
    16     8    14    1
    17     4     5    1
    18    28    36    1
    19    30    33    1
    20    30    38    1
    21    31    34    1
    22    31    39    1
    23    32    35    1
    24    32    40    1
    25    41    43   ar
    26    15    19    2
    27    42    43   ar
    28    16    22    2
    29    17    12    1
    30    17    19   ar
    31    17    20   ar
    32    18    19   ar
    33    18    22   ar
    34    18    23    1
    35     9    10    1
    36     9    11    1
    37    10    12    1
    38    11     5    1
    39    33    34    1
    40    33    35    1
    41    34    36    1
    42    35    37    1
    43    37    43    1
    44    20    21   ar
    45    21    22   ar
@<TRIPOS>MOLECULE
*****
 43 45 0 0 0
SMALL
GASTEIGER

@<TRIPOS>ATOM
      1 P          23.3618   72.0856   -2.7945 P.3     1  UNL1        0.2189
      2 O          24.0743   73.4159   -3.3787 O.co2   1  UNL1       -0.4371
      3 O          24.1259   70.8119   -3.0078 O.2     1  UNL1       -0.5170
      4 O          21.8756   72.1287   -3.4328 O.3     1  UNL1       -0.3112
      5 C          21.1452   70.9196   -3.5276 C.3     1  UNL1        0.1811
      6 O          19.0645   71.7771   -4.3719 O.3     1  UNL1       -0.3308
      7 O          17.7558   70.3145   -2.1049 O.3     1  UNL1       -0.3794
      8 O          17.3057   68.6564   -4.2225 O.3     1  UNL1       -0.3779
      9 C          18.8865   69.9371   -2.8909 C.3     1  UNL1        0.1713
     10 C          18.4424   69.4933   -4.2686 C.3     1  UNL1        0.1895
     11 C          19.6829   71.1967   -3.2032 C.3     1  UNL1        0.1764
     12 C          18.1641   70.8206   -4.9531 C.3     1  UNL1        0.2383
     13 H          17.2314   69.5260   -1.8928 H       1  UNL1        0.2105
     14 H          17.5345   67.8246   -3.7779 H       1  UNL1        0.2106
     15 O          20.6231   70.1087   -6.1459 O.2     1  UNL1       -0.2464
     16 O          18.9241   70.6421  -10.3971 O.2     1  UNL1       -0.2670
     17 N          18.3921   70.7653   -6.3693 N.ar    1  UNL1       -0.2551
     18 N          19.7749   70.3760   -8.2621 N.ar    1  UNL1       -0.2743
     19 C          19.6647   70.3960   -6.8655 C.ar    1  UNL1        0.3323
     20 C          17.3622   71.0727   -7.2502 C.ar    1  UNL1        0.0869
     21 C          17.4824   71.0491   -8.5790 C.ar    1  UNL1        0.0795
     22 C          18.7797   70.6743   -9.1788 C.ar    1  UNL1        0.2626
     23 H          20.6521   70.1239   -8.6311 H       1  UNL1        0.1734
     24 O          23.1025   72.4638   -1.2444 O.3     1  UNL1       -0.2703
     25 P          22.8558   71.5269    0.0498 P.3     1  UNL1        0.2208
     26 O          24.3111   70.8688    0.3128 O.co2   1  UNL1       -0.4371
     27 O          21.7464   70.5288   -0.1150 O.2     1  UNL1       -0.5170
     28 O          22.6500   72.5612    1.2706 O.3     1  UNL1       -0.2858
     29 O          21.3481   72.7355    3.2413 O.3     1  UNL1       -0.3226
     30 O          20.8782   76.4925    1.5883 O.3     1  UNL1       -0.3794
     31 O          20.7905   74.1101   -0.1003 O.3     1  UNL1       -0.3775
     32 O          22.6405   76.1116    3.8687 O.3     1  UNL1       -0.3792
     33 C          21.5625   75.2747    1.8831 C.3     1  UNL1        0.1718
     34 C          20.7699   74.0937    1.3224 C.3     1  UNL1        0.1968
     35 C          21.6867   75.1584    3.4040 C.3     1  UNL1        0.1723
     36 C          21.3468   72.7652    1.8135 C.3     1  UNL1        0.2706
     37 C          22.1476   73.7645    3.8202 C.3     1  UNL1        0.1830
     38 H          20.7875   76.5880    0.6271 H       1  UNL1        0.2105
     39 H          20.4261   74.9504   -0.4188 H       1  UNL1        0.2106
     40 H          22.3591   77.0031    3.6101 H       1  UNL1        0.2106
     41 O          20.9038   74.2903    5.7381 O.co2   1  UNL1       -0.5466
     42 O          22.6341   72.8267    5.9894 O.co2   1  UNL1       -0.5466
     43 C          21.9513   73.5568    5.2867 C.2     1  UNL1        0.0799
@<TRIPOS>UNITY_ATOM_ATTR
2 1
charge -1
26 1
charge -1
41 1
charge -1
@<TRIPOS>BOND
     1     1     4    1
     2     1    24    1
     3     1     2    1
     4     1     3    2
     5    25    28    1
     6    25    24    1
     7    25    26    1
     8    25    27    2
     9     6    11    1
    10     6    12    1
    11    29    36    1
    12    29    37    1
    13     7     9    1
    14     7    13    1
    15     8    10    1
    16     8    14    1
    17     4     5    1
    18    28    36    1
    19    30    33    1
    20    30    38    1
    21    31    34    1
    22    31    39    1
    23    32    35    1
    24    32    40    1
    25    41    43   ar
    26    15    19    2
    27    42    43   ar
    28    16    22    2
    29    17    12    1
    30    17    19   ar
    31    17    20   ar
    32    18    19   ar
    33    18    22   ar
    34    18    23    1
    35     9    10    1
    36     9    11    1
    37    10    12    1
    38    11     5    1
    39    33    34    1
    40    33    35    1
    41    34    36    1
    42    35    37    1
    43    37    43    1
    44    20    21   ar
    45    21    22   ar
