@<TRIPOS>MOLECULE
UDP-glaA
 43 45 0 0 0
SMALL
GASTEIGER

@<TRIPOS>ATOM
      1 P          21.8754   73.8568   -5.8007 P.3     1  UNL1        0.2189
      2 O          21.7652   75.3834   -6.3246 O.3     1  UNL1       -0.4371
      3 O          22.7510   72.9643   -6.6308 O.2     1  UNL1       -0.5170
      4 O          20.3360   73.3854   -5.6470 O.3     1  UNL1       -0.3112
      5 C          19.5703   73.9111   -4.5761 C.3     1  UNL1        0.1811
      6 O          17.9495   72.1954   -5.0276 O.3     1  UNL1       -0.3308
      7 O          18.7702   70.9913   -2.4070 O.3     1  UNL1       -0.3794
      8 O          20.1052   69.4478   -4.2156 O.3     1  UNL1       -0.3779
      9 C          19.5673   71.6666   -3.3798 C.3     1  UNL1        0.1713
     10 C          19.7939   70.7758   -4.5830 C.3     1  UNL1        0.1895
     11 C          18.7317   72.7943   -3.9709 C.3     1  UNL1        0.1764
     12 C          18.4647   70.8840   -5.3107 C.3     1  UNL1        0.2383
     13 H          18.6191   71.6126   -1.6743 H       1  UNL1        0.2105
     14 H          20.9054   69.4769   -3.6633 H       1  UNL1        0.2106
     15 O          16.3211   70.3787   -7.0785 O.2     1  UNL1       -0.2464
     16 O          19.1160   70.3216  -10.7423 O.2     1  UNL1       -0.2670
     17 N          18.6034   70.7332   -6.7310 N.ar    1  UNL1       -0.2551
     18 N          17.7143   70.3501   -8.9017 N.ar    1  UNL1       -0.2743
     19 C          17.4634   70.4805   -7.5294 C.ar    1  UNL1        0.3323
     20 C          19.8590   70.8357   -7.3196 C.ar    1  UNL1        0.0869
     21 C          20.0817   70.7094   -8.6297 C.ar    1  UNL1        0.0795
     22 C          18.9448   70.4436   -9.5332 C.ar    1  UNL1        0.2626
     23 H          16.9095   70.1675   -9.4950 H       1  UNL1        0.1734
     24 O          22.3558   74.0339   -4.2667 O.3     1  UNL1       -0.2703
     25 P          23.4611   73.2314   -3.4025 P.3     1  UNL1        0.2208
     26 O          24.8526   73.9314   -3.8381 O.3     1  UNL1       -0.4371
     27 O          23.4299   71.7420   -3.5935 O.2     1  UNL1       -0.5170
     28 O          23.2199   73.7136   -1.8815 O.3     1  UNL1       -0.2858
     29 O          21.5514   72.2040   -1.1491 O.3     1  UNL1       -0.3226
     30 O          22.5849   74.1400    2.3813 O.3     1  UNL1       -0.3794
     31 O          22.3323   75.6358   -0.1096 O.3     1  UNL1       -0.3775
     32 O          21.0289   71.9734    1.6638 O.3     1  UNL1       -0.3792
     33 C          22.7535   73.5640    1.0890 C.3     1  UNL1        0.1718
     34 C          21.8843   74.2952    0.0603 C.3     1  UNL1        0.1968
     35 C          22.3604   72.0855    1.1506 C.3     1  UNL1        0.1723
     36 C          21.9264   73.5777   -1.2946 C.3     1  UNL1        0.2706
     37 C          22.3980   71.4855   -0.2532 C.3     1  UNL1        0.1830
     38 H          23.1502   73.6455    2.9989 H       1  UNL1        0.2105
     39 H          21.7599   76.0544   -0.7745 H       1  UNL1        0.2106
     40 H          20.4066   72.2575    0.9730 H       1  UNL1        0.2106
     41 O          21.4876   69.7199   -1.5013 O.co2   1  UNL1       -0.5466
     42 O          21.8596   69.3404    0.7156 O.co2   1  UNL1       -0.5466
     43 C          21.8962   70.0765   -0.2597 C.2     1  UNL1        0.0799
@<TRIPOS>UNITY_ATOM_ATTR
41 1
charge -1
@<TRIPOS>BOND
     1     1     4    1
     2     1    24    1
     3     1     2    1
     4     1     3    2
     5    25    28    1
     6    25    24    1
     7    25    26    1
     8    25    27    2
     9     6    11    1
    10     6    12    1
    11    29    36    1
    12    29    37    1
    13     7     9    1
    14     7    13    1
    15     8    10    1
    16     8    14    1
    17     4     5    1
    18    28    36    1
    19    30    33    1
    20    30    38    1
    21    31    34    1
    22    31    39    1
    23    32    35    1
    24    32    40    1
    25    41    43   ar
    26    15    19    2
    27    42    43   ar
    28    16    22    2
    29    17    12    1
    30    17    19   ar
    31    17    20   ar
    32    18    19   ar
    33    18    22   ar
    34    18    23    1
    35     9    10    1
    36     9    11    1
    37    10    12    1
    38    11     5    1
    39    33    34    1
    40    33    35    1
    41    34    36    1
    42    35    37    1
    43    37    43    1
    44    20    21   ar
    45    21    22   ar
@<TRIPOS>MOLECULE
UDP-glaA
 43 45 0 0 0
SMALL
GASTEIGER

@<TRIPOS>ATOM
      1 P          22.9413   71.6629   -2.7505 P.3     1  UNL1        0.2189
      2 O          23.7681   72.9673   -3.2323 O.3     1  UNL1       -0.4371
      3 O          23.4791   70.3532   -3.2480 O.2     1  UNL1       -0.5170
      4 O          21.4130   71.9967   -3.1609 O.3     1  UNL1       -0.3112
      5 C          20.5599   70.9249   -3.5254 C.3     1  UNL1        0.1811
      6 O          18.7146   71.9630   -4.6618 O.3     1  UNL1       -0.3308
      7 O          16.9746   70.7737   -2.5289 O.3     1  UNL1       -0.3794
      8 O          16.5997   69.0679   -4.6230 O.3     1  UNL1       -0.3779
      9 C          18.1417   70.2330   -3.1480 C.3     1  UNL1        0.1713
     10 C          17.8235   69.7700   -4.5541 C.3     1  UNL1        0.1895
     11 C          19.1124   71.3789   -3.4018 C.3     1  UNL1        0.1764
     12 C          17.7876   71.0826   -5.3182 C.3     1  UNL1        0.2383
     13 H          17.2351   71.0919   -1.6477 H       1  UNL1        0.2105
     14 H          16.6664   68.3041   -4.0244 H       1  UNL1        0.2106
     15 O          16.0306   70.3676   -7.4104 O.2     1  UNL1       -0.2464
     16 O          19.4065   70.5216  -10.5438 O.2     1  UNL1       -0.2670
     17 N          18.1802   70.9293   -6.6899 N.ar    1  UNL1       -0.2551
     18 N          17.7130   70.4442   -8.9692 N.ar    1  UNL1       -0.2743
     19 C          17.2202   70.5666   -7.6633 C.ar    1  UNL1        0.3323
     20 C          19.5044   71.1377   -7.0593 C.ar    1  UNL1        0.0869
     21 C          19.9586   71.0176   -8.3087 C.ar    1  UNL1        0.0795
     22 C          19.0207   70.6409   -9.3849 C.ar    1  UNL1        0.2626
     23 H          17.0406   70.1836   -9.6856 H       1  UNL1        0.1734
     24 O          22.9270   71.8172   -1.1408 O.3     1  UNL1       -0.2703
     25 P          22.4863   70.7820    0.0197 P.3     1  UNL1        0.2208
     26 O          23.7233   69.7415    0.0781 O.3     1  UNL1       -0.4371
     27 O          21.1466   70.1406   -0.2032 O.2     1  UNL1       -0.5170
     28 O          22.6003   71.6292    1.3883 O.3     1  UNL1       -0.2858
     29 O          21.6331   72.3912    3.4091 O.3     1  UNL1       -0.3226
     30 O          21.2701   75.7282    0.9571 O.3     1  UNL1       -0.3794
     31 O          20.7576   73.0557   -0.0923 O.3     1  UNL1       -0.3775
     32 O          20.8765   75.1511    3.6296 O.3     1  UNL1       -0.3792
     33 C          21.8387   74.5397    1.5000 C.3     1  UNL1        0.1718
     34 C          20.8927   73.3520    1.2936 C.3     1  UNL1        0.1968
     35 C          22.0955   74.7515    2.9945 C.3     1  UNL1        0.1723
     36 C          21.4153   72.1081    2.0229 C.3     1  UNL1        0.2706
     37 C          22.5716   73.4441    3.6237 C.3     1  UNL1        0.1830
     38 H          21.9004   76.4523    1.1122 H       1  UNL1        0.2105
     39 H          20.1593   72.2939   -0.1725 H       1  UNL1        0.2106
     40 H          20.2931   74.3761    3.6937 H       1  UNL1        0.2106
     41 O          23.9544   73.9955    5.4370 O.co2   1  UNL1       -0.5466
     42 O          21.8286   73.3270    5.9181 O.co2   1  UNL1       -0.5466
     43 C          22.7110   73.5698    5.1076 C.2     1  UNL1        0.0799
@<TRIPOS>UNITY_ATOM_ATTR
41 1
charge -1
@<TRIPOS>BOND
     1     1     4    1
     2     1    24    1
     3     1     2    1
     4     1     3    2
     5    25    28    1
     6    25    24    1
     7    25    26    1
     8    25    27    2
     9     6    11    1
    10     6    12    1
    11    29    36    1
    12    29    37    1
    13     7     9    1
    14     7    13    1
    15     8    10    1
    16     8    14    1
    17     4     5    1
    18    28    36    1
    19    30    33    1
    20    30    38    1
    21    31    34    1
    22    31    39    1
    23    32    35    1
    24    32    40    1
    25    41    43   ar
    26    15    19    2
    27    42    43   ar
    28    16    22    2
    29    17    12    1
    30    17    19   ar
    31    17    20   ar
    32    18    19   ar
    33    18    22   ar
    34    18    23    1
    35     9    10    1
    36     9    11    1
    37    10    12    1
    38    11     5    1
    39    33    34    1
    40    33    35    1
    41    34    36    1
    42    35    37    1
    43    37    43    1
    44    20    21   ar
    45    21    22   ar
@<TRIPOS>MOLECULE
UDP-glaA
 43 45 0 0 0
SMALL
GASTEIGER

@<TRIPOS>ATOM
      1 P          23.0803   72.0937   -3.1722 P.3     1  UNL1        0.2189
      2 O          23.8726   73.0391   -4.2191 O.3     1  UNL1       -0.4371
      3 O          23.5448   70.6673   -3.1306 O.2     1  UNL1       -0.5170
      4 O          21.5231   72.3152   -3.5485 O.3     1  UNL1       -0.3112
      5 C          20.6848   71.1776   -3.6604 C.3     1  UNL1        0.1811
      6 O          18.7845   72.1269   -4.7837 O.3     1  UNL1       -0.3308
      7 O          17.1378   71.0184   -2.5362 O.3     1  UNL1       -0.3794
      8 O          16.7245   69.2033   -4.5288 O.3     1  UNL1       -0.3779
      9 C          18.2933   70.4663   -3.1670 C.3     1  UNL1        0.1713
     10 C          17.9371   69.9279   -4.5366 C.3     1  UNL1        0.1895
     11 C          19.2343   71.6135   -3.5104 C.3     1  UNL1        0.1764
     12 C          17.8522   71.1995   -5.3635 C.3     1  UNL1        0.2383
     13 H          17.4216   71.3848   -1.6814 H       1  UNL1        0.2105
     14 H          16.8247   68.4718   -3.8956 H       1  UNL1        0.2106
     15 O          16.0166   70.4661   -7.3805 O.2     1  UNL1       -0.2464
     16 O          19.3081   70.3962  -10.6055 O.2     1  UNL1       -0.2670
     17 N          18.2019   70.9837   -6.7385 N.ar    1  UNL1       -0.2551
     18 N          17.6569   70.4313   -8.9850 N.ar    1  UNL1       -0.2743
     19 C          17.2044   70.6171   -7.6720 C.ar    1  UNL1        0.3323
     20 C          19.5213   71.1354   -7.1502 C.ar    1  UNL1        0.0869
     21 C          19.9368   70.9552   -8.4058 C.ar    1  UNL1        0.0795
     22 C          18.9583   70.5702   -9.4421 C.ar    1  UNL1        0.2626
     23 H          16.9572   70.1667   -9.6731 H       1  UNL1        0.1734
     24 O          23.2334   72.8930   -1.7747 O.3     1  UNL1       -0.2703
     25 P          22.4951   74.2226   -1.2274 P.3     1  UNL1        0.2208
     26 O          22.7640   75.3052   -2.3987 O.3     1  UNL1       -0.4371
     27 O          22.9461   74.6603    0.1367 O.2     1  UNL1       -0.5170
     28 O          20.9199   73.8888   -1.3335 O.3     1  UNL1       -0.2858
     29 O          20.5940   71.8618   -0.1569 O.3     1  UNL1       -0.3226
     30 O          22.3292   74.2827    2.7427 O.3     1  UNL1       -0.3794
     31 O          20.3172   75.3575    0.9253 O.3     1  UNL1       -0.3775
     32 O          21.6508   71.6160    2.5004 O.3     1  UNL1       -0.3792
     33 C          22.0641   73.7505    1.4477 C.3     1  UNL1        0.1718
     34 C          20.5948   73.9687    1.0709 C.3     1  UNL1        0.1968
     35 C          22.3872   72.2539    1.4517 C.3     1  UNL1        0.1723
     36 C          20.2584   73.2507   -0.2420 C.3     1  UNL1        0.2706
     37 C          21.9760   71.6366    0.1168 C.3     1  UNL1        0.1830
     38 H          23.2674   74.1204    2.9401 H       1  UNL1        0.2105
     39 H          19.3813   75.4452    0.6781 H       1  UNL1        0.2106
     40 H          20.7179   71.5596    2.2326 H       1  UNL1        0.2106
     41 O          21.3863   69.5740   -0.8328 O.co2   1  UNL1       -0.5466
     42 O          22.8903   69.5362    0.8800 O.co2   1  UNL1       -0.5466
     43 C          22.1537   70.1515    0.1228 C.2     1  UNL1        0.0799
@<TRIPOS>UNITY_ATOM_ATTR
41 1
charge -1
@<TRIPOS>BOND
     1     1     4    1
     2     1    24    1
     3     1     2    1
     4     1     3    2
     5    25    28    1
     6    25    24    1
     7    25    26    1
     8    25    27    2
     9     6    11    1
    10     6    12    1
    11    29    36    1
    12    29    37    1
    13     7     9    1
    14     7    13    1
    15     8    10    1
    16     8    14    1
    17     4     5    1
    18    28    36    1
    19    30    33    1
    20    30    38    1
    21    31    34    1
    22    31    39    1
    23    32    35    1
    24    32    40    1
    25    41    43   ar
    26    15    19    2
    27    42    43   ar
    28    16    22    2
    29    17    12    1
    30    17    19   ar
    31    17    20   ar
    32    18    19   ar
    33    18    22   ar
    34    18    23    1
    35     9    10    1
    36     9    11    1
    37    10    12    1
    38    11     5    1
    39    33    34    1
    40    33    35    1
    41    34    36    1
    42    35    37    1
    43    37    43    1
    44    20    21   ar
    45    21    22   ar
@<TRIPOS>MOLECULE
UDP-glaA
 43 45 0 0 0
SMALL
GASTEIGER

@<TRIPOS>ATOM
      1 P          21.9313   74.6489   -5.8864 P.3     1  UNL1        0.2189
      2 O          21.3921   76.1741   -5.9048 O.3     1  UNL1       -0.4371
      3 O          23.0789   74.3720   -6.8128 O.2     1  UNL1       -0.5170
      4 O          20.6009   73.7623   -6.1307 O.3     1  UNL1       -0.3112
      5 C          19.6382   74.2275   -7.0612 C.3     1  UNL1        0.1811
      6 O          19.6949   71.8774   -7.5590 O.3     1  UNL1       -0.3308
      7 O          18.0686   72.5432   -9.9886 O.3     1  UNL1       -0.3794
      8 O          16.1916   71.5786   -8.2617 O.3     1  UNL1       -0.3779
      9 C          18.0222   73.1216   -8.6844 C.3     1  UNL1        0.1713
     10 C          17.3492   72.1746   -7.7135 C.3     1  UNL1        0.1895
     11 C          19.4449   73.1748   -8.1433 C.3     1  UNL1        0.1764
     12 C          18.4519   71.1658   -7.4406 C.3     1  UNL1        0.2383
     13 H          18.5415   73.1669  -10.5656 H       1  UNL1        0.2105
     14 H          15.5825   72.2955   -8.5090 H       1  UNL1        0.2106
     15 O          16.3727   69.4608   -6.5775 O.2     1  UNL1       -0.2464
     16 O          18.2101   69.0476   -2.3713 O.2     1  UNL1       -0.2670
     17 N          18.3622   70.5979   -6.1257 N.ar    1  UNL1       -0.2551
     18 N          17.2887   69.2566   -4.4834 N.ar    1  UNL1       -0.2743
     19 C          17.2766   69.7544   -5.7930 C.ar    1  UNL1        0.3323
     20 C          19.3433   70.8784   -5.1811 C.ar    1  UNL1        0.0869
     21 C          19.3409   70.3956   -3.9367 C.ar    1  UNL1        0.0795
     22 C          18.2419   69.5076   -3.5086 C.ar    1  UNL1        0.2626
     23 H          16.5175   68.6484   -4.2217 H       1  UNL1        0.1734
     24 O          22.2530   74.3973   -4.3216 O.3     1  UNL1       -0.2703
     25 P          23.2778   73.3761   -3.6008 P.3     1  UNL1        0.2208
     26 O          24.7229   74.0536   -3.8633 O.3     1  UNL1       -0.4371
     27 O          23.1646   71.9547   -4.0724 O.2     1  UNL1       -0.5170
     28 O          23.0130   73.5777   -2.0218 O.3     1  UNL1       -0.2858
     29 O          21.7359   71.8312   -1.0637 O.3     1  UNL1       -0.3226
     30 O          21.9270   74.5792    2.0493 O.3     1  UNL1       -0.3794
     31 O          21.5097   75.4754   -0.6945 O.3     1  UNL1       -0.3775
     32 O          21.0523   71.9799    1.7200 O.3     1  UNL1       -0.3792
     33 C          22.3489   73.8467    0.9023 C.3     1  UNL1        0.1718
     34 C          21.4113   74.1172   -0.2792 C.3     1  UNL1        0.1968
     35 C          22.3482   72.3534    1.2405 C.3     1  UNL1        0.1723
     36 C          21.7535   73.2054   -1.4641 C.3     1  UNL1        0.2706
     37 C          22.6598   71.5426   -0.0156 C.3     1  UNL1        0.1830
     38 H          22.5461   74.3762    2.7712 H       1  UNL1        0.2105
     39 H          20.9075   75.5962   -1.4479 H       1  UNL1        0.2106
     40 H          20.4391   71.9554    0.9660 H       1  UNL1        0.2106
     41 O          23.7503   69.4702    0.1254 O.co2   1  UNL1       -0.5466
     42 O          21.5041   69.4898    0.5138 O.co2   1  UNL1       -0.5466
     43 C          22.5424   70.0733    0.2384 C.2     1  UNL1        0.0799
@<TRIPOS>UNITY_ATOM_ATTR
41 1
charge -1
@<TRIPOS>BOND
     1     1     4    1
     2     1    24    1
     3     1     2    1
     4     1     3    2
     5    25    28    1
     6    25    24    1
     7    25    26    1
     8    25    27    2
     9     6    11    1
    10     6    12    1
    11    29    36    1
    12    29    37    1
    13     7     9    1
    14     7    13    1
    15     8    10    1
    16     8    14    1
    17     4     5    1
    18    28    36    1
    19    30    33    1
    20    30    38    1
    21    31    34    1
    22    31    39    1
    23    32    35    1
    24    32    40    1
    25    41    43   ar
    26    15    19    2
    27    42    43   ar
    28    16    22    2
    29    17    12    1
    30    17    19   ar
    31    17    20   ar
    32    18    19   ar
    33    18    22   ar
    34    18    23    1
    35     9    10    1
    36     9    11    1
    37    10    12    1
    38    11     5    1
    39    33    34    1
    40    33    35    1
    41    34    36    1
    42    35    37    1
    43    37    43    1
    44    20    21   ar
    45    21    22   ar
@<TRIPOS>MOLECULE
UDP-glaA
 43 45 0 0 0
SMALL
GASTEIGER

@<TRIPOS>ATOM
      1 P          22.7921   71.8312   -2.2016 P.3     1  UNL1        0.2189
      2 O          23.4364   73.3093   -2.3340 O.3     1  UNL1       -0.4371
      3 O          23.3787   70.8003   -3.1210 O.2     1  UNL1       -0.5170
      4 O          21.2019   72.0843   -2.3525 O.3     1  UNL1       -0.3112
      5 C          20.5150   71.4587   -3.4230 C.3     1  UNL1        0.1811
      6 O          18.5937   72.2622   -4.6218 O.3     1  UNL1       -0.3308
      7 O          16.9511   71.0719   -2.4136 O.3     1  UNL1       -0.3794
      8 O          16.7290   69.2084   -4.3919 O.3     1  UNL1       -0.3779
      9 C          18.1618   70.5921   -2.9980 C.3     1  UNL1        0.1713
     10 C          17.8894   70.0138   -4.3706 C.3     1  UNL1        0.1895
     11 C          19.0340   71.7966   -3.3271 C.3     1  UNL1        0.1764
     12 C          17.7465   71.2664   -5.2183 C.3     1  UNL1        0.2383
     13 H          17.1803   71.4673   -1.5553 H       1  UNL1        0.2105
     14 H          16.8572   68.4933   -3.7451 H       1  UNL1        0.2106
     15 O          16.0499   70.3224   -7.2691 O.2     1  UNL1       -0.2464
     16 O          19.4285   70.5028  -10.3981 O.2     1  UNL1       -0.2670
     17 N          18.1561   71.0580   -6.5777 N.ar    1  UNL1       -0.2551
     18 N          17.7336   70.4124   -8.8257 N.ar    1  UNL1       -0.2743
     19 C          17.2263   70.5799   -7.5305 C.ar    1  UNL1        0.3323
     20 C          19.4671   71.3264   -6.9555 C.ar    1  UNL1        0.0869
     21 C          19.9353   71.1620   -8.1947 C.ar    1  UNL1        0.0795
     22 C          19.0291   70.6654   -9.2492 C.ar    1  UNL1        0.2626
     23 H          17.0830   70.0690   -9.5271 H       1  UNL1        0.1734
     24 O          22.9597   71.5027   -0.6270 O.3     1  UNL1       -0.2703
     25 P          22.0836   70.5702    0.3606 P.3     1  UNL1        0.2208
     26 O          23.2054   69.7699    1.2075 O.3     1  UNL1       -0.4371
     27 O          21.0922   69.6884   -0.3433 O.2     1  UNL1       -0.5170
     28 O          21.4286   71.5974    1.4188 O.3     1  UNL1       -0.2858
     29 O          22.0076   73.8507    0.9863 O.3     1  UNL1       -0.3226
     30 O          20.0471   74.1410    4.6403 O.3     1  UNL1       -0.3794
     31 O          21.8909   71.9423    4.1188 O.3     1  UNL1       -0.3775
     32 O          21.0286   75.8958    2.7463 O.3     1  UNL1       -0.3792
     33 C          20.3522   73.6533    3.3367 C.3     1  UNL1        0.1718
     34 C          21.7798   73.0978    3.2946 C.3     1  UNL1        0.1968
     35 C          20.2063   74.7997    2.3323 C.3     1  UNL1        0.1723
     36 C          22.1772   72.7294    1.8597 C.3     1  UNL1        0.2706
     37 C          20.6658   74.3346    0.9523 C.3     1  UNL1        0.1830
     38 H          19.1374   74.4841    4.6196 H       1  UNL1        0.2105
     39 H          22.8062   71.6218    4.0528 H       1  UNL1        0.2106
     40 H          21.9573   75.6692    2.5697 H       1  UNL1        0.2106
     41 O          20.3112   76.6216    0.5679 O.co2   1  UNL1       -0.5466
     42 O          20.9417   75.3541   -1.2190 O.co2   1  UNL1       -0.5466
     43 C          20.6630   75.4595   -0.0334 C.2     1  UNL1        0.0799
@<TRIPOS>UNITY_ATOM_ATTR
41 1
charge -1
@<TRIPOS>BOND
     1     1     4    1
     2     1    24    1
     3     1     2    1
     4     1     3    2
     5    25    28    1
     6    25    24    1
     7    25    26    1
     8    25    27    2
     9     6    11    1
    10     6    12    1
    11    29    36    1
    12    29    37    1
    13     7     9    1
    14     7    13    1
    15     8    10    1
    16     8    14    1
    17     4     5    1
    18    28    36    1
    19    30    33    1
    20    30    38    1
    21    31    34    1
    22    31    39    1
    23    32    35    1
    24    32    40    1
    25    41    43   ar
    26    15    19    2
    27    42    43   ar
    28    16    22    2
    29    17    12    1
    30    17    19   ar
    31    17    20   ar
    32    18    19   ar
    33    18    22   ar
    34    18    23    1
    35     9    10    1
    36     9    11    1
    37    10    12    1
    38    11     5    1
    39    33    34    1
    40    33    35    1
    41    34    36    1
    42    35    37    1
    43    37    43    1
    44    20    21   ar
    45    21    22   ar
@<TRIPOS>MOLECULE
UDP-glaA
 43 45 0 0 0
SMALL
GASTEIGER

@<TRIPOS>ATOM
      1 P          23.2120   72.6983   -3.8982 P.3     1  UNL1        0.2189
      2 O          24.4677   73.6890   -3.6555 O.3     1  UNL1       -0.4371
      3 O          23.4644   71.2599   -3.5524 O.2     1  UNL1       -0.5170
      4 O          22.7777   72.9874   -5.4290 O.3     1  UNL1       -0.3112
      5 C          22.0700   74.1810   -5.7185 C.3     1  UNL1        0.1811
      6 O          21.4138   73.3717   -7.8839 O.3     1  UNL1       -0.3308
      7 O          21.9759   76.1424   -8.8831 O.3     1  UNL1       -0.3794
      8 O          19.2586   76.1311   -8.6561 O.3     1  UNL1       -0.3779
      9 C          21.4266   75.7274   -7.6326 C.3     1  UNL1        0.1713
     10 C          19.9952   75.2683   -7.8143 C.3     1  UNL1        0.1895
     11 C          22.1243   74.4387   -7.2176 C.3     1  UNL1        0.1764
     12 C          20.1810   73.8851   -8.4146 C.3     1  UNL1        0.2383
     13 H          22.9029   76.3897   -8.7246 H       1  UNL1        0.2105
     14 H          19.2792   77.0177   -8.2566 H       1  UNL1        0.2106
     15 O          17.7313   73.7069   -9.8085 O.2     1  UNL1       -0.2464
     16 O          16.1598   70.4130   -6.9945 O.2     1  UNL1       -0.2670
     17 N          19.1144   72.9895   -8.0684 N.ar    1  UNL1       -0.2551
     18 N          16.9502   72.0671   -8.4060 N.ar    1  UNL1       -0.2743
     19 C          17.9244   72.9791   -8.8329 C.ar    1  UNL1        0.3323
     20 C          19.2533   72.1336   -6.9815 C.ar    1  UNL1        0.0869
     21 C          18.3155   71.2694   -6.5874 C.ar    1  UNL1        0.0795
     22 C          17.0424   71.1962   -7.3314 C.ar    1  UNL1        0.2626
     23 H          16.0860   72.0427   -8.9404 H       1  UNL1        0.1734
     24 O          22.0285   73.3980   -3.0467 O.3     1  UNL1       -0.2703
     25 P          20.5815   72.8428   -2.5880 P.3     1  UNL1        0.2208
     26 O          20.5102   71.3804   -3.2753 O.3     1  UNL1       -0.4371
     27 O          19.4353   73.7484   -2.9370 O.2     1  UNL1       -0.5170
     28 O          20.7392   72.5451   -1.0099 O.3     1  UNL1       -0.2858
     29 O          22.6550   73.6755   -0.2028 O.3     1  UNL1       -0.3226
     30 O          21.3296   71.6752    3.1915 O.3     1  UNL1       -0.3794
     31 O          21.2904   70.3619    0.5878 O.3     1  UNL1       -0.3775
     32 O          23.2369   73.5858    2.6064 O.3     1  UNL1       -0.3792
     33 C          21.2530   72.3731    1.9516 C.3     1  UNL1        0.1718
     34 C          21.9697   71.5853    0.8497 C.3     1  UNL1        0.1968
     35 C          21.9017   73.7502    2.1175 C.3     1  UNL1        0.1723
     36 C          22.0419   72.4049   -0.4447 C.3     1  UNL1        0.2706
     37 C          21.9572   74.4575    0.7652 C.3     1  UNL1        0.1830
     38 H          20.8664   72.2103    3.8584 H       1  UNL1        0.2105
     39 H          21.7735   69.9039   -0.1205 H       1  UNL1        0.2106
     40 H          23.7926   73.2531    1.8814 H       1  UNL1        0.2106
     41 O          24.0124   75.5722    0.5722 O.co2   1  UNL1       -0.5466
     42 O          22.1984   76.8304    1.1409 O.co2   1  UNL1       -0.5466
     43 C          22.6998   75.7527    0.8552 C.2     1  UNL1        0.0799
@<TRIPOS>UNITY_ATOM_ATTR
41 1
charge -1
@<TRIPOS>BOND
     1     1     4    1
     2     1    24    1
     3     1     2    1
     4     1     3    2
     5    25    28    1
     6    25    24    1
     7    25    26    1
     8    25    27    2
     9     6    11    1
    10     6    12    1
    11    29    36    1
    12    29    37    1
    13     7     9    1
    14     7    13    1
    15     8    10    1
    16     8    14    1
    17     4     5    1
    18    28    36    1
    19    30    33    1
    20    30    38    1
    21    31    34    1
    22    31    39    1
    23    32    35    1
    24    32    40    1
    25    41    43   ar
    26    15    19    2
    27    42    43   ar
    28    16    22    2
    29    17    12    1
    30    17    19   ar
    31    17    20   ar
    32    18    19   ar
    33    18    22   ar
    34    18    23    1
    35     9    10    1
    36     9    11    1
    37    10    12    1
    38    11     5    1
    39    33    34    1
    40    33    35    1
    41    34    36    1
    42    35    37    1
    43    37    43    1
    44    20    21   ar
    45    21    22   ar
@<TRIPOS>MOLECULE
UDP-glaA
 43 45 0 0 0
SMALL
GASTEIGER

@<TRIPOS>ATOM
      1 P          21.5060   71.0338   -2.6098 P.3     1  UNL1        0.2189
      2 O          21.0136   69.8403   -3.5847 O.3     1  UNL1       -0.4371
      3 O          22.3813   70.6002   -1.4706 O.2     1  UNL1       -0.5170
      4 O          20.1371   71.7892   -2.1964 O.3     1  UNL1       -0.3112
      5 C          19.5674   72.7086   -3.1127 C.3     1  UNL1        0.1811
      6 O          17.5499   72.8826   -4.4065 O.3     1  UNL1       -0.3308
      7 O          16.2688   71.1870   -2.2911 O.3     1  UNL1       -0.3794
      8 O          16.7479   69.3901   -4.2854 O.3     1  UNL1       -0.3779
      9 C          17.5960   71.1295   -2.8137 C.3     1  UNL1        0.1713
     10 C          17.5883   70.5224   -4.2008 C.3     1  UNL1        0.1895
     11 C          18.0532   72.5553   -3.0924 C.3     1  UNL1        0.1764
     12 C          17.0942   71.6811   -5.0500 C.3     1  UNL1        0.2383
     13 H          16.3185   71.6174   -1.4206 H       1  UNL1        0.2105
     14 H          17.0663   68.7401   -3.6355 H       1  UNL1        0.2106
     15 O          16.0928   70.0194   -7.1021 O.2     1  UNL1       -0.2464
     16 O          19.1680   71.6117  -10.1428 O.2     1  UNL1       -0.2670
     17 N          17.6137   71.6414   -6.3871 N.ar    1  UNL1       -0.2551
     18 N          17.6251   70.8130   -8.6147 N.ar    1  UNL1       -0.2743
     19 C          17.0396   70.7706   -7.3425 C.ar    1  UNL1        0.3323
     20 C          18.6810   72.4596   -6.7406 C.ar    1  UNL1        0.0869
     21 C          19.2277   72.4888   -7.9580 C.ar    1  UNL1        0.0795
     22 C          18.6876   71.6092   -9.0136 C.ar    1  UNL1        0.2626
     23 H          17.2290   70.1948   -9.3176 H       1  UNL1        0.1734
     24 O          22.2002   72.0751   -3.6341 O.3     1  UNL1       -0.2703
     25 P          23.1547   73.3512   -3.3639 P.3     1  UNL1        0.2208
     26 O          22.2213   74.6065   -3.7751 O.3     1  UNL1       -0.4371
     27 O          24.4729   73.2974   -4.0817 O.2     1  UNL1       -0.5170
     28 O          23.2738   73.4399   -1.7570 O.3     1  UNL1       -0.2858
     29 O          21.7723   73.4759    0.0716 O.3     1  UNL1       -0.3226
     30 O          24.5121   76.4152    1.1362 O.3     1  UNL1       -0.3794
     31 O          23.5881   76.1794   -1.6200 O.3     1  UNL1       -0.3775
     32 O          22.3927   75.1180    2.3425 O.3     1  UNL1       -0.3792
     33 C          24.0242   75.2052    0.5634 C.3     1  UNL1        0.1718
     34 C          22.9834   75.5082   -0.5197 C.3     1  UNL1        0.1968
     35 C          23.3966   74.3517    1.6689 C.3     1  UNL1        0.1723
     36 C          22.3286   74.2149   -1.0208 C.3     1  UNL1        0.2706
     37 C          22.7420   73.1164    1.0544 C.3     1  UNL1        0.1830
     38 H          25.1645   76.1757    1.8163 H       1  UNL1        0.2105
     39 H          22.8949   76.3412   -2.2819 H       1  UNL1        0.2106
     40 H          21.6171   75.1902    1.7608 H       1  UNL1        0.2106
     41 O          21.0904   71.5097    1.4954 O.co2   1  UNL1       -0.5466
     42 O          22.1956   72.3815    3.2885 O.co2   1  UNL1       -0.5466
     43 C          22.0043   72.3194    2.0827 C.2     1  UNL1        0.0799
@<TRIPOS>UNITY_ATOM_ATTR
41 1
charge -1
@<TRIPOS>BOND
     1     1     4    1
     2     1    24    1
     3     1     2    1
     4     1     3    2
     5    25    28    1
     6    25    24    1
     7    25    26    1
     8    25    27    2
     9     6    11    1
    10     6    12    1
    11    29    36    1
    12    29    37    1
    13     7     9    1
    14     7    13    1
    15     8    10    1
    16     8    14    1
    17     4     5    1
    18    28    36    1
    19    30    33    1
    20    30    38    1
    21    31    34    1
    22    31    39    1
    23    32    35    1
    24    32    40    1
    25    41    43   ar
    26    15    19    2
    27    42    43   ar
    28    16    22    2
    29    17    12    1
    30    17    19   ar
    31    17    20   ar
    32    18    19   ar
    33    18    22   ar
    34    18    23    1
    35     9    10    1
    36     9    11    1
    37    10    12    1
    38    11     5    1
    39    33    34    1
    40    33    35    1
    41    34    36    1
    42    35    37    1
    43    37    43    1
    44    20    21   ar
    45    21    22   ar
@<TRIPOS>MOLECULE
UDP-glaA
 43 45 0 0 0
SMALL
GASTEIGER

@<TRIPOS>ATOM
      1 P          22.0563   73.2375   -5.3138 P.3     1  UNL1        0.2189
      2 O          22.3354   74.7348   -5.8595 O.3     1  UNL1       -0.4371
      3 O          23.2376   72.5652   -4.6776 O.2     1  UNL1       -0.5170
      4 O          21.4130   72.4729   -6.5854 O.3     1  UNL1       -0.3112
      5 C          21.0490   73.2372   -7.7223 C.3     1  UNL1        0.1811
      6 O          20.0508   71.0772   -8.0572 O.3     1  UNL1       -0.3308
      7 O          18.6009   72.3134  -10.3727 O.3     1  UNL1       -0.3794
      8 O          16.6960   72.2890   -8.4217 O.3     1  UNL1       -0.3779
      9 C          18.9482   72.8887   -9.1133 C.3     1  UNL1        0.1713
     10 C          18.0498   72.3458   -8.0222 C.3     1  UNL1        0.1895
     11 C          20.3101   72.3415   -8.7064 C.3     1  UNL1        0.1764
     12 C          18.6450   70.9694   -7.7787 C.3     1  UNL1        0.2383
     13 H          19.2262   72.6598  -11.0319 H       1  UNL1        0.2105
     14 H          16.4240   73.1911   -8.6634 H       1  UNL1        0.2106
     15 O          16.1904   70.0928   -6.6916 O.2     1  UNL1       -0.2464
     16 O          18.0901   69.3003   -2.5683 O.2     1  UNL1       -0.2670
     17 N          18.4696   70.5280   -6.4246 N.ar    1  UNL1       -0.2551
     18 N          17.1379   69.6993   -4.6389 N.ar    1  UNL1       -0.2743
     19 C          17.1948   70.1086   -5.9777 C.ar    1  UNL1        0.3323
     20 C          19.5539   70.5137   -5.5542 C.ar    1  UNL1        0.0869
     21 C          19.4835   70.1201   -4.2807 C.ar    1  UNL1        0.0795
     22 C          18.1884   69.6678   -3.7350 C.ar    1  UNL1        0.2626
     23 H          16.2311   69.3941   -4.2957 H       1  UNL1        0.1734
     24 O          20.7874   73.4404   -4.3320 O.3     1  UNL1       -0.2703
     25 P          20.6989   73.9834   -2.8121 P.3     1  UNL1        0.2208
     26 O          19.1149   74.2310   -2.5982 O.3     1  UNL1       -0.4371
     27 O          21.5571   75.1847   -2.5363 O.2     1  UNL1       -0.5170
     28 O          21.0384   72.6976   -1.8981 O.3     1  UNL1       -0.2858
     29 O          22.1561   73.2682    0.1080 O.3     1  UNL1       -0.3226
     30 O          22.3481   69.1160    0.1547 O.3     1  UNL1       -0.3794
     31 O          22.7712   70.5910   -2.3255 O.3     1  UNL1       -0.3775
     32 O          22.9372   71.1705    1.9047 O.3     1  UNL1       -0.3792
     33 C          21.8170   70.4140   -0.0973 C.3     1  UNL1        0.1718
     34 C          22.7407   71.1962   -1.0372 C.3     1  UNL1        0.1968
     35 C          21.6729   71.1572    1.2336 C.3     1  UNL1        0.1723
     36 C          22.2691   72.6488   -1.1775 C.3     1  UNL1        0.2706
     37 C          21.2400   72.5982    0.9726 C.3     1  UNL1        0.1830
     38 H          21.7338   68.6591    0.7543 H       1  UNL1        0.2105
     39 H          23.3591   71.1245   -2.8864 H       1  UNL1        0.2106
     40 H          23.5209   71.8021    1.4513 H       1  UNL1        0.2106
     41 O          20.8199   72.6299    3.2804 O.co2   1  UNL1       -0.5466
     42 O          21.5040   74.5824    2.3228 O.co2   1  UNL1       -0.5466
     43 C          21.2119   73.3985    2.2358 C.2     1  UNL1        0.0799
@<TRIPOS>UNITY_ATOM_ATTR
41 1
charge -1
@<TRIPOS>BOND
     1     1     4    1
     2     1    24    1
     3     1     2    1
     4     1     3    2
     5    25    28    1
     6    25    24    1
     7    25    26    1
     8    25    27    2
     9     6    11    1
    10     6    12    1
    11    29    36    1
    12    29    37    1
    13     7     9    1
    14     7    13    1
    15     8    10    1
    16     8    14    1
    17     4     5    1
    18    28    36    1
    19    30    33    1
    20    30    38    1
    21    31    34    1
    22    31    39    1
    23    32    35    1
    24    32    40    1
    25    41    43   ar
    26    15    19    2
    27    42    43   ar
    28    16    22    2
    29    17    12    1
    30    17    19   ar
    31    17    20   ar
    32    18    19   ar
    33    18    22   ar
    34    18    23    1
    35     9    10    1
    36     9    11    1
    37    10    12    1
    38    11     5    1
    39    33    34    1
    40    33    35    1
    41    34    36    1
    42    35    37    1
    43    37    43    1
    44    20    21   ar
    45    21    22   ar
@<TRIPOS>MOLECULE
UDP-glaA
 43 45 0 0 0
SMALL
GASTEIGER

@<TRIPOS>ATOM
      1 P          22.4444   73.3491   -3.8180 P.3     1  UNL1        0.2189
      2 O          21.5671   74.2048   -4.8742 O.3     1  UNL1       -0.4371
      3 O          23.5476   72.5332   -4.4257 O.2     1  UNL1       -0.5170
      4 O          21.3403   72.5211   -2.9748 O.3     1  UNL1       -0.3112
      5 C          20.5951   71.5149   -3.6393 C.3     1  UNL1        0.1811
      6 O          18.6274   72.2670   -4.7954 O.3     1  UNL1       -0.3308
      7 O          17.0677   71.0787   -2.5267 O.3     1  UNL1       -0.3794
      8 O          16.8258   69.1838   -4.4727 O.3     1  UNL1       -0.3779
      9 C          18.2707   70.6125   -3.1377 C.3     1  UNL1        0.1713
     10 C          17.9714   70.0101   -4.4943 C.3     1  UNL1        0.1895
     11 C          19.1114   71.8275   -3.5071 C.3     1  UNL1        0.1764
     12 C          17.7825   71.2478   -5.3547 C.3     1  UNL1        0.2383
     13 H          17.3131   71.4902   -1.6806 H       1  UNL1        0.2105
     14 H          16.9846   68.4803   -3.8200 H       1  UNL1        0.2106
     15 O          16.0226   70.3367   -7.3667 O.2     1  UNL1       -0.2464
     16 O          19.3373   70.4368  -10.5669 O.2     1  UNL1       -0.2670
     17 N          18.1586   71.0276   -6.7219 N.ar    1  UNL1       -0.2551
     18 N          17.6745   70.3866   -8.9588 N.ar    1  UNL1       -0.2743
     19 C          17.1986   70.5680   -7.6535 C.ar    1  UNL1        0.3323
     20 C          19.4668   71.2666   -7.1281 C.ar    1  UNL1        0.0869
     21 C          19.9049   71.0894   -8.3765 C.ar    1  UNL1        0.0795
     22 C          18.9659   70.6105   -9.4102 C.ar    1  UNL1        0.2626
     23 H          17.0018   70.0561   -9.6454 H       1  UNL1        0.1734
     24 O          22.9390   74.4718   -2.7643 O.3     1  UNL1       -0.2703
     25 P          22.1459   75.2414   -1.5848 P.3     1  UNL1        0.2208
     26 O          20.7359   75.6281   -2.2766 O.3     1  UNL1       -0.4371
     27 O          22.8905   76.4079   -1.0011 O.2     1  UNL1       -0.5170
     28 O          21.7754   74.0868   -0.5201 O.3     1  UNL1       -0.2858
     29 O          22.5372   74.0570    1.7200 O.3     1  UNL1       -0.3226
     30 O          21.7232   70.0406    1.0234 O.3     1  UNL1       -0.3794
     31 O          23.0086   71.6691   -1.0264 O.3     1  UNL1       -0.3775
     32 O          22.3918   71.6027    3.2012 O.3     1  UNL1       -0.3792
     33 C          21.5826   71.4555    0.9299 C.3     1  UNL1        0.1718
     34 C          22.8458   72.0794    0.3271 C.3     1  UNL1        0.1968
     35 C          21.3357   72.0222    2.3308 C.3     1  UNL1        0.1723
     36 C          22.7742   73.6105    0.3808 C.3     1  UNL1        0.2706
     37 C          21.3241   73.5482    2.2723 C.3     1  UNL1        0.1830
     38 H          20.9036   69.6894    1.4115 H       1  UNL1        0.2105
     39 H          23.8130   72.0951   -1.3674 H       1  UNL1        0.2106
     40 H          23.1923   72.1089    2.9818 H       1  UNL1        0.2106
     41 O          21.6695   75.4238    3.6386 O.co2   1  UNL1       -0.5466
     42 O          20.7751   73.5725    4.6234 O.co2   1  UNL1       -0.5466
     43 C          21.2152   74.1473    3.6384 C.2     1  UNL1        0.0799
@<TRIPOS>UNITY_ATOM_ATTR
41 1
charge -1
@<TRIPOS>BOND
     1     1     4    1
     2     1    24    1
     3     1     2    1
     4     1     3    2
     5    25    28    1
     6    25    24    1
     7    25    26    1
     8    25    27    2
     9     6    11    1
    10     6    12    1
    11    29    36    1
    12    29    37    1
    13     7     9    1
    14     7    13    1
    15     8    10    1
    16     8    14    1
    17     4     5    1
    18    28    36    1
    19    30    33    1
    20    30    38    1
    21    31    34    1
    22    31    39    1
    23    32    35    1
    24    32    40    1
    25    41    43   ar
    26    15    19    2
    27    42    43   ar
    28    16    22    2
    29    17    12    1
    30    17    19   ar
    31    17    20   ar
    32    18    19   ar
    33    18    22   ar
    34    18    23    1
    35     9    10    1
    36     9    11    1
    37    10    12    1
    38    11     5    1
    39    33    34    1
    40    33    35    1
    41    34    36    1
    42    35    37    1
    43    37    43    1
    44    20    21   ar
    45    21    22   ar
@<TRIPOS>MOLECULE
UDP-glaA
 43 45 0 0 0
SMALL
GASTEIGER

@<TRIPOS>ATOM
      1 P          21.9757   73.0174   -5.7616 P.3     1  UNL1        0.2189
      2 O          21.9975   74.5417   -5.2198 O.3     1  UNL1       -0.4371
      3 O          22.5095   72.8321   -7.1518 O.2     1  UNL1       -0.5170
      4 O          20.4480   72.5419   -5.5260 O.3     1  UNL1       -0.3112
      5 C          19.8662   71.6456   -6.4574 C.3     1  UNL1        0.1811
      6 O          17.9018   72.5592   -5.4178 O.3     1  UNL1       -0.3308
      7 O          16.3920   70.3358   -6.7476 O.3     1  UNL1       -0.3794
      8 O          15.8637   72.4657   -8.3662 O.3     1  UNL1       -0.3779
      9 C          17.5087   71.0834   -7.2289 C.3     1  UNL1        0.1713
     10 C          17.0729   72.4751   -7.6360 C.3     1  UNL1        0.1895
     11 C          18.4266   71.3696   -6.0477 C.3     1  UNL1        0.1764
     12 C          16.9380   73.1697   -6.2917 C.3     1  UNL1        0.2383
     13 H          16.7252   69.4678   -6.4628 H       1  UNL1        0.2105
     14 H          16.0019   71.9126   -9.1543 H       1  UNL1        0.2106
     15 O          15.0369   75.1151   -7.0508 O.2     1  UNL1       -0.2464
     16 O          18.0804   78.5419   -6.5684 O.2     1  UNL1       -0.2670
     17 N          17.2061   74.5771   -6.3724 N.ar    1  UNL1       -0.2551
     18 N          16.5538   76.8202   -6.8106 N.ar    1  UNL1       -0.2743
     19 C          16.1818   75.4701   -6.7650 C.ar    1  UNL1        0.3323
     20 C          18.4732   75.0601   -6.0645 C.ar    1  UNL1        0.0869
     21 C          18.8120   76.3503   -6.1123 C.ar    1  UNL1        0.0795
     22 C          17.8008   77.3482   -6.5139 C.ar    1  UNL1        0.2626
     23 H          15.8336   77.4803   -7.0909 H       1  UNL1        0.1734
     24 O          22.7867   72.2141   -4.6160 O.3     1  UNL1       -0.2703
     25 P          22.3717   71.8141   -3.1059 P.3     1  UNL1        0.2208
     26 O          22.1512   73.2475   -2.3897 O.3     1  UNL1       -0.4371
     27 O          23.3590   70.9198   -2.4122 O.2     1  UNL1       -0.5170
     28 O          20.8888   71.1923   -3.2405 O.3     1  UNL1       -0.2858
     29 O          20.7925   70.2821   -1.0584 O.3     1  UNL1       -0.3226
     30 O          20.3453   74.3494   -0.3261 O.3     1  UNL1       -0.3794
     31 O          18.9969   73.0940   -2.5870 O.3     1  UNL1       -0.3775
     32 O          20.7185   72.0687    1.1869 O.3     1  UNL1       -0.3792
     33 C          20.8058   73.1621   -0.9653 C.3     1  UNL1        0.1718
     34 C          19.6245   72.3691   -1.5346 C.3     1  UNL1        0.1968
     35 C          21.5637   72.3112    0.0574 C.3     1  UNL1        0.1723
     36 C          20.0909   71.0102   -2.0716 C.3     1  UNL1        0.2706
     37 C          21.9422   70.9712   -0.5697 C.3     1  UNL1        0.1830
     38 H          21.1242   74.8171    0.0205 H       1  UNL1        0.2105
     39 H          18.2638   72.5503   -2.9212 H       1  UNL1        0.2106
     40 H          20.0427   71.4176    0.9329 H       1  UNL1        0.2106
     41 O          22.9414   70.7421    1.5404 O.co2   1  UNL1       -0.5466
     42 O          22.7290   68.8533    0.2818 O.co2   1  UNL1       -0.5466
     43 C          22.5708   70.0561    0.4325 C.2     1  UNL1        0.0799
@<TRIPOS>UNITY_ATOM_ATTR
41 1
charge -1
@<TRIPOS>BOND
     1     1     4    1
     2     1    24    1
     3     1     2    1
     4     1     3    2
     5    25    28    1
     6    25    24    1
     7    25    26    1
     8    25    27    2
     9     6    11    1
    10     6    12    1
    11    29    36    1
    12    29    37    1
    13     7     9    1
    14     7    13    1
    15     8    10    1
    16     8    14    1
    17     4     5    1
    18    28    36    1
    19    30    33    1
    20    30    38    1
    21    31    34    1
    22    31    39    1
    23    32    35    1
    24    32    40    1
    25    41    43   ar
    26    15    19    2
    27    42    43   ar
    28    16    22    2
    29    17    12    1
    30    17    19   ar
    31    17    20   ar
    32    18    19   ar
    33    18    22   ar
    34    18    23    1
    35     9    10    1
    36     9    11    1
    37    10    12    1
    38    11     5    1
    39    33    34    1
    40    33    35    1
    41    34    36    1
    42    35    37    1
    43    37    43    1
    44    20    21   ar
    45    21    22   ar
@<TRIPOS>MOLECULE
UDP-glaA
 43 45 0 0 0
SMALL
GASTEIGER

@<TRIPOS>ATOM
      1 P          21.4790   75.9312   -8.2155 P.3     1  UNL1        0.2189
      2 O          20.0172   76.4333   -8.6933 O.3     1  UNL1       -0.4371
      3 O          22.6169   76.8242   -8.6151 O.2     1  UNL1       -0.5170
      4 O          21.5611   74.4066   -8.7491 O.3     1  UNL1       -0.3112
      5 C          20.8435   73.4044   -8.0492 C.3     1  UNL1        0.1811
      6 O          19.7237   71.3240   -8.4875 O.3     1  UNL1       -0.3308
      7 O          18.1096   72.8348  -10.5132 O.3     1  UNL1       -0.3794
      8 O          16.4056   72.6794   -8.3900 O.3     1  UNL1       -0.3779
      9 C          18.6034   73.2688   -9.2462 C.3     1  UNL1        0.1713
     10 C          17.7932   72.6498   -8.1268 C.3     1  UNL1        0.1895
     11 C          19.9733   72.6376   -9.0347 C.3     1  UNL1        0.1764
     12 C          18.3486   71.2366   -8.0791 C.3     1  UNL1        0.2383
     13 H          18.6819   73.2242  -11.1962 H       1  UNL1        0.2105
     14 H          16.1511   73.6099   -8.5146 H       1  UNL1        0.2106
     15 O          16.0313   70.0906   -6.9423 O.2     1  UNL1       -0.2464
     16 O          18.2309   69.0856   -3.0192 O.2     1  UNL1       -0.2670
     17 N          18.2875   70.6677   -6.7630 N.ar    1  UNL1       -0.2551
     18 N          17.1280   69.5914   -4.9893 N.ar    1  UNL1       -0.2743
     19 C          17.0743   70.1184   -6.2864 C.ar    1  UNL1        0.3323
     20 C          19.4217   70.6578   -5.9588 C.ar    1  UNL1        0.0869
     21 C          19.4570   70.1512   -4.7243 C.ar    1  UNL1        0.0795
     22 C          18.2319   69.5592   -4.1513 C.ar    1  UNL1        0.2626
     23 H          16.2671   69.1917   -4.6257 H       1  UNL1        0.1734
     24 O          21.2952   75.7478   -6.6193 O.3     1  UNL1       -0.2703
     25 P          22.3862   75.6525   -5.4305 P.3     1  UNL1        0.2208
     26 O          22.0519   76.9439   -4.5157 O.3     1  UNL1       -0.4371
     27 O          23.8094   75.5805   -5.9048 O.2     1  UNL1       -0.5170
     28 O          21.9146   74.3901   -4.5429 O.3     1  UNL1       -0.2858
     29 O          21.3271   74.0769   -2.2721 O.3     1  UNL1       -0.3226
     30 O          23.5280   70.6452   -3.0837 O.3     1  UNL1       -0.3794
     31 O          24.3855   73.2342   -4.1171 O.3     1  UNL1       -0.3775
     32 O          21.9671   71.5817   -1.0061 O.3     1  UNL1       -0.3792
     33 C          22.6444   71.7378   -3.3195 C.3     1  UNL1        0.1718
     34 C          23.3774   73.0695   -3.1254 C.3     1  UNL1        0.1968
     35 C          21.4667   71.6413   -2.3458 C.3     1  UNL1        0.1723
     36 C          22.3971   74.2462   -3.2077 C.3     1  UNL1        0.2706
     37 C          20.5826   72.8786   -2.4855 C.3     1  UNL1        0.1830
     38 H          23.0222   69.8252   -3.2152 H       1  UNL1        0.2105
     39 H          24.8142   74.0923   -3.9599 H       1  UNL1        0.2106
     40 H          22.2865   72.4652   -0.7561 H       1  UNL1        0.2106
     41 O          19.9719   73.2652   -0.2536 O.co2   1  UNL1       -0.5466
     42 O          18.3226   72.6032   -1.6814 O.co2   1  UNL1       -0.5466
     43 C          19.4909   72.8894   -1.4631 C.2     1  UNL1        0.0799
@<TRIPOS>UNITY_ATOM_ATTR
41 1
charge -1
@<TRIPOS>BOND
     1     1     4    1
     2     1    24    1
     3     1     2    1
     4     1     3    2
     5    25    28    1
     6    25    24    1
     7    25    26    1
     8    25    27    2
     9     6    11    1
    10     6    12    1
    11    29    36    1
    12    29    37    1
    13     7     9    1
    14     7    13    1
    15     8    10    1
    16     8    14    1
    17     4     5    1
    18    28    36    1
    19    30    33    1
    20    30    38    1
    21    31    34    1
    22    31    39    1
    23    32    35    1
    24    32    40    1
    25    41    43   ar
    26    15    19    2
    27    42    43   ar
    28    16    22    2
    29    17    12    1
    30    17    19   ar
    31    17    20   ar
    32    18    19   ar
    33    18    22   ar
    34    18    23    1
    35     9    10    1
    36     9    11    1
    37    10    12    1
    38    11     5    1
    39    33    34    1
    40    33    35    1
    41    34    36    1
    42    35    37    1
    43    37    43    1
    44    20    21   ar
    45    21    22   ar
@<TRIPOS>MOLECULE
UDP-glaA
 43 45 0 0 0
SMALL
GASTEIGER

@<TRIPOS>ATOM
      1 P          22.0977   70.8576   -2.9633 P.3     1  UNL1        0.2189
      2 O          21.2729   69.5536   -2.4769 O.3     1  UNL1       -0.4371
      3 O          23.5483   70.6143   -3.2614 O.2     1  UNL1       -0.5170
      4 O          21.7902   71.9614   -1.8220 O.3     1  UNL1       -0.3112
      5 C          22.5142   71.8973   -0.6050 C.3     1  UNL1        0.1811
      6 O          22.7581   73.2893    1.3385 O.3     1  UNL1       -0.3308
      7 O          19.9519   74.2023    0.8064 O.3     1  UNL1       -0.3794
      8 O          21.4449   76.2580   -0.1840 O.3     1  UNL1       -0.3779
      9 C          20.9853   73.8715   -0.1212 C.3     1  UNL1        0.1713
     10 C          22.0259   74.9706   -0.1621 C.3     1  UNL1        0.1895
     11 C          21.7768   72.7044    0.4540 C.3     1  UNL1        0.1764
     12 C          22.8137   74.7070    1.1098 C.3     1  UNL1        0.2383
     13 H          19.3311   73.4542    0.8275 H       1  UNL1        0.2105
     14 H          20.8725   76.3075   -0.9689 H       1  UNL1        0.2106
     15 O          24.4494   75.4283    3.2961 O.2     1  UNL1       -0.2464
     16 O          28.0682   76.2331    0.5583 O.2     1  UNL1       -0.2670
     17 N          24.1868   75.1085    0.9973 N.ar    1  UNL1       -0.2551
     18 N          26.2502   75.8291    1.9312 N.ar    1  UNL1       -0.2743
     19 C          24.9199   75.4516    2.1573 C.ar    1  UNL1        0.3323
     20 C          24.7939   75.1596   -0.2526 C.ar    1  UNL1        0.0869
     21 C          26.0633   75.5211   -0.4516 C.ar    1  UNL1        0.0795
     22 C          26.8978   75.8956    0.7073 C.ar    1  UNL1        0.2626
     23 H          26.7962   76.0807    2.7508 H       1  UNL1        0.1734
     24 O          21.2309   71.3858   -4.2222 O.3     1  UNL1       -0.2703
     25 P          21.3189   72.7603   -5.0681 P.3     1  UNL1        0.2208
     26 O          22.8835   72.8503   -5.4681 O.3     1  UNL1       -0.4371
     27 O          20.7945   73.9655   -4.3413 O.2     1  UNL1       -0.5170
     28 O          20.5607   72.4361   -6.4552 O.3     1  UNL1       -0.2858
     29 O          18.3775   71.6446   -6.0008 O.3     1  UNL1       -0.3226
     30 O          18.5698   71.3408  -10.1421 O.3     1  UNL1       -0.3794
     31 O          20.8588   70.5986   -8.4942 O.3     1  UNL1       -0.3775
     32 O          16.6229   71.0771   -8.2004 O.3     1  UNL1       -0.3792
     33 C          18.8144   71.8663   -8.8404 C.3     1  UNL1        0.1718
     34 C          19.5533   70.8369   -7.9787 C.3     1  UNL1        0.1968
     35 C          17.4749   72.2273   -8.1924 C.3     1  UNL1        0.1723
     36 C          19.6688   71.3247   -6.5291 C.3     1  UNL1        0.2706
     37 C          17.7045   72.6586   -6.7455 C.3     1  UNL1        0.1830
     38 H          18.0995   72.0234  -10.6505 H       1  UNL1        0.2105
     39 H          21.2899   69.9500   -7.9126 H       1  UNL1        0.2106
     40 H          16.9423   70.4514   -7.5283 H       1  UNL1        0.2106
     41 O          16.0402   74.1957   -6.1364 O.co2   1  UNL1       -0.5466
     42 O          15.7686   72.0416   -5.4411 O.co2   1  UNL1       -0.5466
     43 C          16.4109   72.8966   -6.0336 C.2     1  UNL1        0.0799
@<TRIPOS>UNITY_ATOM_ATTR
41 1
charge -1
@<TRIPOS>BOND
     1     1     4    1
     2     1    24    1
     3     1     2    1
     4     1     3    2
     5    25    28    1
     6    25    24    1
     7    25    26    1
     8    25    27    2
     9     6    11    1
    10     6    12    1
    11    29    36    1
    12    29    37    1
    13     7     9    1
    14     7    13    1
    15     8    10    1
    16     8    14    1
    17     4     5    1
    18    28    36    1
    19    30    33    1
    20    30    38    1
    21    31    34    1
    22    31    39    1
    23    32    35    1
    24    32    40    1
    25    41    43   ar
    26    15    19    2
    27    42    43   ar
    28    16    22    2
    29    17    12    1
    30    17    19   ar
    31    17    20   ar
    32    18    19   ar
    33    18    22   ar
    34    18    23    1
    35     9    10    1
    36     9    11    1
    37    10    12    1
    38    11     5    1
    39    33    34    1
    40    33    35    1
    41    34    36    1
    42    35    37    1
    43    37    43    1
    44    20    21   ar
    45    21    22   ar
@<TRIPOS>MOLECULE
UDP-glaA
 43 45 0 0 0
SMALL
GASTEIGER

@<TRIPOS>ATOM
      1 P          18.5260   71.4182   -2.9806 P.3     1  UNL1        0.2189
      2 O          18.2493   69.9002   -2.4941 O.3     1  UNL1       -0.4371
      3 O          18.2382   72.4743   -1.9540 O.2     1  UNL1       -0.5170
      4 O          17.6995   71.5404   -4.3654 O.3     1  UNL1       -0.3112
      5 C          17.0649   70.3820   -4.8800 C.3     1  UNL1        0.1811
      6 O          16.1144   70.9846   -7.0031 O.3     1  UNL1       -0.3308
      7 O          18.8638   70.5937   -8.1342 O.3     1  UNL1       -0.3794
      8 O          18.6955   73.3054   -7.9019 O.3     1  UNL1       -0.3779
      9 C          18.4756   71.1177   -6.8643 C.3     1  UNL1        0.1713
     10 C          17.9209   72.5178   -7.0213 C.3     1  UNL1        0.1895
     11 C          17.2538   70.3422   -6.3898 C.3     1  UNL1        0.1764
     12 C          16.5249   72.2463   -7.5554 C.3     1  UNL1        0.2383
     13 H          19.1752   69.6839   -7.9893 H       1  UNL1        0.2105
     14 H          19.5997   73.3400   -7.5451 H       1  UNL1        0.2106
     15 O          15.1137   73.8958   -9.3619 O.2     1  UNL1       -0.2464
     16 O          12.9356   76.0882   -5.9431 O.2     1  UNL1       -0.2670
     17 N          15.5826   73.2558   -7.1650 N.ar    1  UNL1       -0.2551
     18 N          14.0304   74.9868   -7.6582 N.ar    1  UNL1       -0.2743
     19 C          14.9282   74.0306   -8.1510 C.ar    1  UNL1        0.3323
     20 C          15.3151   73.4704   -5.8175 C.ar    1  UNL1        0.0869
     21 C          14.4559   74.3856   -5.3637 C.ar    1  UNL1        0.0795
     22 C          13.7316   75.2372   -6.3279 C.ar    1  UNL1        0.2626
     23 H          13.5488   75.5558   -8.3491 H       1  UNL1        0.1734
     24 O          20.0635   71.3645   -3.4789 O.3     1  UNL1       -0.2703
     25 P          21.3987   70.8289   -2.7422 P.3     1  UNL1        0.2208
     26 O          22.5900   71.5625   -3.5537 O.3     1  UNL1       -0.4371
     27 O          21.5148   69.3324   -2.6891 O.2     1  UNL1       -0.5170
     28 O          21.3852   71.5481   -1.2977 O.3     1  UNL1       -0.2858
     29 O          23.1532   72.8934   -0.4830 O.3     1  UNL1       -0.3226
     30 O          21.2805   71.6954    3.0294 O.3     1  UNL1       -0.3794
     31 O          21.6540   69.8132    0.8331 O.3     1  UNL1       -0.3775
     32 O          23.2713   73.4759    2.3251 O.3     1  UNL1       -0.3792
     33 C          21.4110   72.0838    1.6647 C.3     1  UNL1        0.1718
     34 C          22.2909   71.0844    0.9063 C.3     1  UNL1        0.1968
     35 C          22.0343   73.4811    1.6050 C.3     1  UNL1        0.1723
     36 C          22.5781   71.5831   -0.5153 C.3     1  UNL1        0.2706
     37 C          22.3135   73.8568    0.1514 C.3     1  UNL1        0.1830
     38 H          20.7192   72.3559    3.4701 H       1  UNL1        0.2105
     39 H          22.2422   69.2185    0.3378 H       1  UNL1        0.2106
     40 H          23.9347   73.0014    1.7961 H       1  UNL1        0.2106
     41 O          22.4789   76.0845    0.8681 O.co2   1  UNL1       -0.5466
     42 O          24.0123   75.3688   -0.6595 O.co2   1  UNL1       -0.5466
     43 C          23.0412   75.1598    0.0531 C.2     1  UNL1        0.0799
@<TRIPOS>UNITY_ATOM_ATTR
41 1
charge -1
@<TRIPOS>BOND
     1     1     4    1
     2     1    24    1
     3     1     2    1
     4     1     3    2
     5    25    28    1
     6    25    24    1
     7    25    26    1
     8    25    27    2
     9     6    11    1
    10     6    12    1
    11    29    36    1
    12    29    37    1
    13     7     9    1
    14     7    13    1
    15     8    10    1
    16     8    14    1
    17     4     5    1
    18    28    36    1
    19    30    33    1
    20    30    38    1
    21    31    34    1
    22    31    39    1
    23    32    35    1
    24    32    40    1
    25    41    43   ar
    26    15    19    2
    27    42    43   ar
    28    16    22    2
    29    17    12    1
    30    17    19   ar
    31    17    20   ar
    32    18    19   ar
    33    18    22   ar
    34    18    23    1
    35     9    10    1
    36     9    11    1
    37    10    12    1
    38    11     5    1
    39    33    34    1
    40    33    35    1
    41    34    36    1
    42    35    37    1
    43    37    43    1
    44    20    21   ar
    45    21    22   ar
@<TRIPOS>MOLECULE
UDP-glaA
 43 45 0 0 0
SMALL
GASTEIGER

@<TRIPOS>ATOM
      1 P          21.5282   73.4046   -5.8462 P.3     1  UNL1        0.2189
      2 O          21.2657   74.9494   -6.2491 O.3     1  UNL1       -0.4371
      3 O          22.5645   72.7021   -6.6737 O.2     1  UNL1       -0.5170
      4 O          20.0526   72.7428   -5.8574 O.3     1  UNL1       -0.3112
      5 C          19.8999   71.4198   -5.3720 C.3     1  UNL1        0.1811
      6 O          17.6804   72.3338   -5.2610 O.3     1  UNL1       -0.3308
      7 O          16.8527   69.6939   -4.1046 O.3     1  UNL1       -0.3794
      8 O          16.0502   69.4840   -6.7023 O.3     1  UNL1       -0.3779
      9 C          17.8236   69.9737   -5.1129 C.3     1  UNL1        0.1713
     10 C          17.1398   70.3358   -6.4144 C.3     1  UNL1        0.1895
     11 C          18.5201   71.2774   -4.7454 C.3     1  UNL1        0.1764
     12 C          16.7081   71.7693   -6.1561 C.3     1  UNL1        0.2383
     13 H          17.3354   69.5061   -3.2816 H       1  UNL1        0.2105
     14 H          16.3928   68.5746   -6.7440 H       1  UNL1        0.2106
     15 O          18.4924   71.4640   -8.3237 O.2     1  UNL1       -0.2464
     16 O          16.4573   74.8396  -10.7116 O.2     1  UNL1       -0.2670
     17 N          16.6671   72.5543   -7.3567 N.ar    1  UNL1       -0.2551
     18 N          17.4782   73.1455   -9.5111 N.ar    1  UNL1       -0.2743
     19 C          17.6098   72.3219   -8.3853 C.ar    1  UNL1        0.3323
     20 C          15.7003   73.5424   -7.5062 C.ar    1  UNL1        0.0869
     21 C          15.5876   74.3191   -8.5859 C.ar    1  UNL1        0.0795
     22 C          16.5336   74.1415   -9.7053 C.ar    1  UNL1        0.2626
     23 H          18.1456   72.9966  -10.2631 H       1  UNL1        0.1734
     24 O          21.8737   73.4952   -4.2690 O.3     1  UNL1       -0.2703
     25 P          23.0548   72.8134   -3.4015 P.3     1  UNL1        0.2208
     26 O          24.3661   73.6562   -3.8330 O.3     1  UNL1       -0.4371
     27 O          23.1813   71.3290   -3.5926 O.2     1  UNL1       -0.5170
     28 O          22.7597   73.2671   -1.8813 O.3     1  UNL1       -0.2858
     29 O          21.7272   71.5037   -0.6880 O.3     1  UNL1       -0.3226
     30 O          21.7095   74.5768    2.1110 O.3     1  UNL1       -0.3794
     31 O          21.0952   75.1186   -0.6881 O.3     1  UNL1       -0.3775
     32 O          21.1295   71.8762    2.0945 O.3     1  UNL1       -0.3792
     33 C          22.1725   73.7758    1.0274 C.3     1  UNL1        0.1718
     34 C          21.1688   73.8109   -0.1301 C.3     1  UNL1        0.1968
     35 C          22.3560   72.3371    1.5181 C.3     1  UNL1        0.1723
     36 C          21.5720   72.8198   -1.2290 C.3     1  UNL1        0.2706
     37 C          22.7147   71.4346    0.3395 C.3     1  UNL1        0.1830
     38 H          22.3729   74.5231    2.8199 H       1  UNL1        0.2105
     39 H          20.4569   75.0896   -1.4206 H       1  UNL1        0.2106
     40 H          20.4971   71.7023    1.3769 H       1  UNL1        0.2106
     41 O          23.4522   69.8617    1.9161 O.co2   1  UNL1       -0.5466
     42 O          22.2852   69.0683    0.1256 O.co2   1  UNL1       -0.5466
     43 C          22.7766   69.9976    0.7496 C.2     1  UNL1        0.0799
@<TRIPOS>UNITY_ATOM_ATTR
41 1
charge -1
@<TRIPOS>BOND
     1     1     4    1
     2     1    24    1
     3     1     2    1
     4     1     3    2
     5    25    28    1
     6    25    24    1
     7    25    26    1
     8    25    27    2
     9     6    11    1
    10     6    12    1
    11    29    36    1
    12    29    37    1
    13     7     9    1
    14     7    13    1
    15     8    10    1
    16     8    14    1
    17     4     5    1
    18    28    36    1
    19    30    33    1
    20    30    38    1
    21    31    34    1
    22    31    39    1
    23    32    35    1
    24    32    40    1
    25    41    43   ar
    26    15    19    2
    27    42    43   ar
    28    16    22    2
    29    17    12    1
    30    17    19   ar
    31    17    20   ar
    32    18    19   ar
    33    18    22   ar
    34    18    23    1
    35     9    10    1
    36     9    11    1
    37    10    12    1
    38    11     5    1
    39    33    34    1
    40    33    35    1
    41    34    36    1
    42    35    37    1
    43    37    43    1
    44    20    21   ar
    45    21    22   ar
@<TRIPOS>MOLECULE
UDP-glaA
 43 45 0 0 0
SMALL
GASTEIGER

@<TRIPOS>ATOM
      1 P          15.9227   73.9418   -3.7420 P.3     1  UNL1        0.2189
      2 O          14.6908   73.9946   -4.7895 O.3     1  UNL1       -0.4371
      3 O          15.5245   73.7796   -2.3043 O.2     1  UNL1       -0.5170
      4 O          16.7850   75.2657   -4.0875 O.3     1  UNL1       -0.3112
      5 C          18.1609   75.1171   -4.3942 C.3     1  UNL1        0.1811
      6 O          19.5437   75.4372   -6.3331 O.3     1  UNL1       -0.3308
      7 O          17.6113   77.5889   -7.1252 O.3     1  UNL1       -0.3794
      8 O          16.8427   75.4924   -8.6905 O.3     1  UNL1       -0.3779
      9 C          17.3597   76.3444   -6.4729 C.3     1  UNL1        0.1713
     10 C          17.4726   75.2017   -7.4599 C.3     1  UNL1        0.1895
     11 C          18.5216   76.0657   -5.5285 C.3     1  UNL1        0.1764
     12 C          18.9781   75.0498   -7.5961 C.3     1  UNL1        0.2383
     13 H          17.5668   78.2853   -6.4480 H       1  UNL1        0.2105
     14 H          15.9076   75.6834   -8.5026 H       1  UNL1        0.2106
     15 O          21.3739   74.3305   -8.9070 O.2     1  UNL1       -0.2464
     16 O          20.3711   69.8388   -8.6674 O.2     1  UNL1       -0.2670
     17 N          19.3686   73.7002   -7.8886 N.ar    1  UNL1       -0.2551
     18 N          20.8727   72.0943   -8.7873 N.ar    1  UNL1       -0.2743
     19 C          20.5920   73.4467   -8.5517 C.ar    1  UNL1        0.3323
     20 C          18.5428   72.6442   -7.5194 C.ar    1  UNL1        0.0869
     21 C          18.8248   71.3601   -7.7506 C.ar    1  UNL1        0.0795
     22 C          20.0827   71.0096   -8.4393 C.ar    1  UNL1        0.2626
     23 H          21.7468   71.8883   -9.2633 H       1  UNL1        0.1734
     24 O          16.8430   72.7467   -4.3250 O.3     1  UNL1       -0.2703
     25 P          17.4758   71.4468   -3.6023 P.3     1  UNL1        0.2208
     26 O          17.3456   70.2949   -4.7302 O.3     1  UNL1       -0.4371
     27 O          16.8379   71.1016   -2.2871 O.2     1  UNL1       -0.5170
     28 O          19.0571   71.7564   -3.5153 O.3     1  UNL1       -0.2858
     29 O          21.0922   71.4387   -4.6802 O.3     1  UNL1       -0.3226
     30 O          21.9600   69.8169   -0.9524 O.3     1  UNL1       -0.3794
     31 O          19.3695   69.3455   -2.2067 O.3     1  UNL1       -0.3775
     32 O          23.3678   70.4356   -3.2470 O.3     1  UNL1       -0.3792
     33 C          21.3715   70.6913   -1.9113 C.3     1  UNL1        0.1718
     34 C          20.4908   69.9014   -2.8853 C.3     1  UNL1        0.1968
     35 C          22.4864   71.4089   -2.6771 C.3     1  UNL1        0.1723
     36 C          19.9918   70.8039   -4.0206 C.3     1  UNL1        0.2706
     37 C          21.8806   72.2427   -3.8039 C.3     1  UNL1        0.1830
     38 H          22.5092   70.3581   -0.3599 H       1  UNL1        0.2105
     39 H          18.8381   68.8644   -2.8632 H       1  UNL1        0.2106
     40 H          22.9208   70.0193   -4.0033 H       1  UNL1        0.2106
     41 O          24.0754   73.0590   -3.9462 O.co2   1  UNL1       -0.5466
     42 O          22.8115   73.1432   -5.8416 O.co2   1  UNL1       -0.5466
     43 C          22.9411   72.8590   -4.6597 C.2     1  UNL1        0.0799
@<TRIPOS>UNITY_ATOM_ATTR
41 1
charge -1
@<TRIPOS>BOND
     1     1     4    1
     2     1    24    1
     3     1     2    1
     4     1     3    2
     5    25    28    1
     6    25    24    1
     7    25    26    1
     8    25    27    2
     9     6    11    1
    10     6    12    1
    11    29    36    1
    12    29    37    1
    13     7     9    1
    14     7    13    1
    15     8    10    1
    16     8    14    1
    17     4     5    1
    18    28    36    1
    19    30    33    1
    20    30    38    1
    21    31    34    1
    22    31    39    1
    23    32    35    1
    24    32    40    1
    25    41    43   ar
    26    15    19    2
    27    42    43   ar
    28    16    22    2
    29    17    12    1
    30    17    19   ar
    31    17    20   ar
    32    18    19   ar
    33    18    22   ar
    34    18    23    1
    35     9    10    1
    36     9    11    1
    37    10    12    1
    38    11     5    1
    39    33    34    1
    40    33    35    1
    41    34    36    1
    42    35    37    1
    43    37    43    1
    44    20    21   ar
    45    21    22   ar
@<TRIPOS>MOLECULE
UDP-glaA
 43 45 0 0 0
SMALL
GASTEIGER

@<TRIPOS>ATOM
      1 P          19.6188   72.6994   -9.1201 P.3     1  UNL1        0.2189
      2 O          18.7507   74.0588   -9.2452 O.3     1  UNL1       -0.4371
      3 O          19.4074   71.7092  -10.2277 O.2     1  UNL1       -0.5170
      4 O          19.2941   72.1655   -7.6284 O.3     1  UNL1       -0.3112
      5 C          18.8759   70.8208   -7.4663 C.3     1  UNL1        0.1811
      6 O          18.0389   70.1253   -5.3239 O.3     1  UNL1       -0.3308
      7 O          15.7964   72.0630   -5.7799 O.3     1  UNL1       -0.3794
      8 O          17.4348   73.4361   -4.0869 O.3     1  UNL1       -0.3779
      9 C          17.1718   72.1709   -6.1463 C.3     1  UNL1        0.1713
     10 C          18.0193   72.4611   -4.9255 C.3     1  UNL1        0.1895
     11 C          17.6600   70.7863   -6.5514 C.3     1  UNL1        0.1764
     12 C          18.0998   71.0952   -4.2652 C.3     1  UNL1        0.2383
     13 H          15.2988   71.8386   -6.5847 H       1  UNL1        0.2105
     14 H          17.3180   74.2445   -4.6151 H       1  UNL1        0.2106
     15 O          18.4659   69.1702   -2.2315 O.2     1  UNL1       -0.2464
     16 O          22.8263   70.4822   -1.5217 O.2     1  UNL1       -0.2670
     17 N          19.3202   70.9115   -3.5329 N.ar    1  UNL1       -0.2551
     18 N          20.6368   69.8252   -1.8790 N.ar    1  UNL1       -0.2743
     19 C          19.3997   69.9167   -2.5305 C.ar    1  UNL1        0.3323
     20 C          20.4224   71.7124   -3.8106 C.ar    1  UNL1        0.0869
     21 C          21.5952   71.6124   -3.1809 C.ar    1  UNL1        0.0795
     22 C          21.7613   70.5993   -2.1200 C.ar    1  UNL1        0.2626
     23 H          20.7168   69.1173   -1.1541 H       1  UNL1        0.1734
     24 O          21.1343   73.2481   -8.9874 O.3     1  UNL1       -0.2703
     25 P          21.9442   73.8283   -7.7146 P.3     1  UNL1        0.2208
     26 O          22.4395   72.4922   -6.9495 O.3     1  UNL1       -0.4371
     27 O          21.1513   74.7747   -6.8593 O.2     1  UNL1       -0.5170
     28 O          23.2893   74.4630   -8.3405 O.3     1  UNL1       -0.2858
     29 O          25.0079   76.0253   -7.8879 O.3     1  UNL1       -0.3226
     30 O          23.5569   77.3623  -11.5466 O.3     1  UNL1       -0.3794
     31 O          21.7248   76.4343   -9.4759 O.3     1  UNL1       -0.3775
     32 O          25.6967   77.9508   -9.9020 O.3     1  UNL1       -0.3792
     33 C          23.9179   76.4391  -10.5231 C.3     1  UNL1        0.1718
     34 C          23.1044   76.7054   -9.2520 C.3     1  UNL1        0.1968
     35 C          25.4132   76.5863  -10.2284 C.3     1  UNL1        0.1723
     36 C          23.6046   75.8327   -8.0942 C.3     1  UNL1        0.2706
     37 C          25.7906   75.7076   -9.0377 C.3     1  UNL1        0.1830
     38 H          24.0969   77.1586  -12.3292 H       1  UNL1        0.2105
     39 H          21.2530   76.6073   -8.6438 H       1  UNL1        0.2106
     40 H          25.3571   78.1318   -9.0092 H       1  UNL1        0.2106
     41 O          27.9580   74.8193   -8.9090 O.co2   1  UNL1       -0.5466
     42 O          27.6561   76.9380   -8.1235 O.co2   1  UNL1       -0.5466
     43 C          27.2148   75.9177   -8.6322 C.2     1  UNL1        0.0799
@<TRIPOS>UNITY_ATOM_ATTR
41 1
charge -1
@<TRIPOS>BOND
     1     1     4    1
     2     1    24    1
     3     1     2    1
     4     1     3    2
     5    25    28    1
     6    25    24    1
     7    25    26    1
     8    25    27    2
     9     6    11    1
    10     6    12    1
    11    29    36    1
    12    29    37    1
    13     7     9    1
    14     7    13    1
    15     8    10    1
    16     8    14    1
    17     4     5    1
    18    28    36    1
    19    30    33    1
    20    30    38    1
    21    31    34    1
    22    31    39    1
    23    32    35    1
    24    32    40    1
    25    41    43   ar
    26    15    19    2
    27    42    43   ar
    28    16    22    2
    29    17    12    1
    30    17    19   ar
    31    17    20   ar
    32    18    19   ar
    33    18    22   ar
    34    18    23    1
    35     9    10    1
    36     9    11    1
    37    10    12    1
    38    11     5    1
    39    33    34    1
    40    33    35    1
    41    34    36    1
    42    35    37    1
    43    37    43    1
    44    20    21   ar
    45    21    22   ar
@<TRIPOS>MOLECULE
UDP-glaA
 43 45 0 0 0
SMALL
GASTEIGER

@<TRIPOS>ATOM
      1 P          22.0498   70.8808   -2.9783 P.3     1  UNL1        0.2189
      2 O          21.2311   69.5328   -2.6181 O.3     1  UNL1       -0.4371
      3 O          23.5151   70.6822   -3.2341 O.2     1  UNL1       -0.5170
      4 O          21.6776   71.8959   -1.7755 O.3     1  UNL1       -0.3112
      5 C          22.7197   72.6460   -1.1751 C.3     1  UNL1        0.1811
      6 O          23.2130   73.7200    0.9171 O.3     1  UNL1       -0.3308
      7 O          21.1052   71.9510    2.1083 O.3     1  UNL1       -0.3794
      8 O          19.7963   74.3257    1.8196 O.3     1  UNL1       -0.3779
      9 C          21.1457   72.5670    0.8212 C.3     1  UNL1        0.1713
     10 C          20.8668   74.0505    0.9400 C.3     1  UNL1        0.1895
     11 C          22.5901   72.5519    0.3385 C.3     1  UNL1        0.1764
     12 C          22.1948   74.5814    1.4523 C.3     1  UNL1        0.2383
     13 H          21.3276   71.0122    1.9873 H       1  UNL1        0.2105
     14 H          19.0116   73.8622    1.4797 H       1  UNL1        0.2106
     15 O          21.3061   76.8861    2.8214 O.2     1  UNL1       -0.2464
     16 O          23.2280   79.6957   -0.2853 O.2     1  UNL1       -0.2670
     17 N          22.4491   75.9273    1.0242 N.ar    1  UNL1       -0.2551
     18 N          22.2633   78.2836    1.2732 N.ar    1  UNL1       -0.2743
     19 C          21.9575   77.0150    1.7832 C.ar    1  UNL1        0.3323
     20 C          23.1784   76.1593   -0.1367 C.ar    1  UNL1        0.0869
     21 C          23.4621   77.3749   -0.6096 C.ar    1  UNL1        0.0795
     22 C          22.9847   78.5644    0.1232 C.ar    1  UNL1        0.2626
     23 H          21.9195   79.0805    1.8022 H       1  UNL1        0.1734
     24 O          21.2230   71.4832   -4.2308 O.3     1  UNL1       -0.2703
     25 P          21.3534   72.8950   -5.0068 P.3     1  UNL1        0.2208
     26 O          22.8972   72.9121   -5.4892 O.3     1  UNL1       -0.4371
     27 O          20.9461   74.0872   -4.1892 O.2     1  UNL1       -0.5170
     28 O          20.5037   72.6957   -6.3640 O.3     1  UNL1       -0.2858
     29 O          18.4326   71.6139   -5.9901 O.3     1  UNL1       -0.3226
     30 O          18.5973   71.7690  -10.1408 O.3     1  UNL1       -0.3794
     31 O          20.9804   71.1282   -8.5863 O.3     1  UNL1       -0.3775
     32 O          16.7224   71.0804   -8.2327 O.3     1  UNL1       -0.3792
     33 C          18.7992   72.1803   -8.7916 C.3     1  UNL1        0.1718
     34 C          19.6639   71.1588   -8.0451 C.3     1  UNL1        0.1968
     35 C          17.4369   72.3142   -8.1056 C.3     1  UNL1        0.1723
     36 C          19.7441   71.5025   -6.5526 C.3     1  UNL1        0.2706
     37 C          17.6368   72.6156   -6.6219 C.3     1  UNL1        0.1830
     38 H          18.0444   72.4420  -10.5730 H       1  UNL1        0.2105
     39 H          21.4916   70.4766   -8.0776 H       1  UNL1        0.2106
     40 H          17.1213   70.4291   -7.6312 H       1  UNL1        0.2106
     41 O          16.1251   71.4397   -5.2670 O.co2   1  UNL1       -0.5466
     42 O          15.5629   73.5733   -5.8401 O.co2   1  UNL1       -0.5466
     43 C          16.3351   72.6267   -5.8855 C.2     1  UNL1        0.0799
@<TRIPOS>UNITY_ATOM_ATTR
41 1
charge -1
@<TRIPOS>BOND
     1     1     4    1
     2     1    24    1
     3     1     2    1
     4     1     3    2
     5    25    28    1
     6    25    24    1
     7    25    26    1
     8    25    27    2
     9     6    11    1
    10     6    12    1
    11    29    36    1
    12    29    37    1
    13     7     9    1
    14     7    13    1
    15     8    10    1
    16     8    14    1
    17     4     5    1
    18    28    36    1
    19    30    33    1
    20    30    38    1
    21    31    34    1
    22    31    39    1
    23    32    35    1
    24    32    40    1
    25    41    43   ar
    26    15    19    2
    27    42    43   ar
    28    16    22    2
    29    17    12    1
    30    17    19   ar
    31    17    20   ar
    32    18    19   ar
    33    18    22   ar
    34    18    23    1
    35     9    10    1
    36     9    11    1
    37    10    12    1
    38    11     5    1
    39    33    34    1
    40    33    35    1
    41    34    36    1
    42    35    37    1
    43    37    43    1
    44    20    21   ar
    45    21    22   ar
@<TRIPOS>MOLECULE
UDP-glaA
 43 45 0 0 0
SMALL
GASTEIGER

@<TRIPOS>ATOM
      1 P          21.7137   73.4283   -6.9905 P.3     1  UNL1        0.2189
      2 O          20.4000   74.0903   -6.3172 O.3     1  UNL1       -0.4371
      3 O          22.7396   72.9270   -6.0167 O.2     1  UNL1       -0.5170
      4 O          22.2255   74.5529   -8.0340 O.3     1  UNL1       -0.3112
      5 C          23.2410   74.2058   -8.9600 C.3     1  UNL1        0.1811
      6 O          25.2274   75.0093  -10.0475 O.3     1  UNL1       -0.3308
      7 O          24.5101   77.7072   -8.9527 O.3     1  UNL1       -0.3794
      8 O          23.6781   77.8757  -11.5440 O.3     1  UNL1       -0.3779
      9 C          23.6542   76.6705   -9.4327 C.3     1  UNL1        0.1713
     10 C          23.7144   76.5974  -10.9439 C.3     1  UNL1        0.1895
     11 C          24.2604   75.3342   -9.0246 C.3     1  UNL1        0.1764
     12 C          25.0349   75.8819  -11.1730 C.3     1  UNL1        0.2383
     13 H          24.4689   77.6905   -7.9813 H       1  UNL1        0.2105
     14 H          22.8544   78.3087  -11.2609 H       1  UNL1        0.2106
     15 O          26.7234   76.3544  -13.3869 O.2     1  UNL1       -0.2464
     16 O          24.9374   72.8150  -15.7367 O.2     1  UNL1       -0.2670
     17 N          25.0328   75.0993  -12.3759 N.ar    1  UNL1       -0.2551
     18 N          25.8326   74.5919  -14.5557 N.ar    1  UNL1       -0.2743
     19 C          25.9203   75.4206  -13.4293 C.ar    1  UNL1        0.3323
     20 C          24.1576   74.0263  -12.5032 C.ar    1  UNL1        0.0869
     21 C          24.0864   73.2454  -13.5834 C.ar    1  UNL1        0.0795
     22 C          24.9784   73.5138  -14.7288 C.ar    1  UNL1        0.2626
     23 H          26.4609   74.8046  -15.3259 H       1  UNL1        0.1734
     24 O          21.0913   72.2917   -7.9580 O.3     1  UNL1       -0.2703
     25 P          19.6514   71.5576   -7.9415 P.3     1  UNL1        0.2208
     26 O          20.0075   70.0329   -8.3470 O.3     1  UNL1       -0.4371
     27 O          18.6188   72.2071   -8.8178 O.2     1  UNL1       -0.5170
     28 O          19.2488   71.4818   -6.3807 O.3     1  UNL1       -0.2858
     29 O          19.8730   69.8912   -4.7437 O.3     1  UNL1       -0.3226
     30 O          16.0764   71.0072   -3.4708 O.3     1  UNL1       -0.3794
     31 O          16.6308   70.6083   -6.3062 O.3     1  UNL1       -0.3775
     32 O          18.1596   69.4903   -2.4760 O.3     1  UNL1       -0.3792
     33 C          17.3700   71.1409   -4.0531 C.3     1  UNL1        0.1718
     34 C          17.5112   70.2088   -5.2612 C.3     1  UNL1        0.1968
     35 C          18.4257   70.7959   -2.9991 C.3     1  UNL1        0.1723
     36 C          18.9513   70.2179   -5.7890 C.3     1  UNL1        0.2706
     37 C          19.8111   70.7949   -3.6414 C.3     1  UNL1        0.1830
     38 H          16.0330   71.6120   -2.7106 H       1  UNL1        0.2105
     39 H          16.7622   69.9970   -7.0504 H       1  UNL1        0.2106
     40 H          18.4080   68.8322   -3.1471 H       1  UNL1        0.2106
     41 O          20.5371   70.6945   -1.4128 O.co2   1  UNL1       -0.5466
     42 O          21.8710   69.7205   -2.9841 O.co2   1  UNL1       -0.5466
     43 C          20.8602   70.3366   -2.6790 C.2     1  UNL1        0.0799
@<TRIPOS>UNITY_ATOM_ATTR
41 1
charge -1
@<TRIPOS>BOND
     1     1     4    1
     2     1    24    1
     3     1     2    1
     4     1     3    2
     5    25    28    1
     6    25    24    1
     7    25    26    1
     8    25    27    2
     9     6    11    1
    10     6    12    1
    11    29    36    1
    12    29    37    1
    13     7     9    1
    14     7    13    1
    15     8    10    1
    16     8    14    1
    17     4     5    1
    18    28    36    1
    19    30    33    1
    20    30    38    1
    21    31    34    1
    22    31    39    1
    23    32    35    1
    24    32    40    1
    25    41    43   ar
    26    15    19    2
    27    42    43   ar
    28    16    22    2
    29    17    12    1
    30    17    19   ar
    31    17    20   ar
    32    18    19   ar
    33    18    22   ar
    34    18    23    1
    35     9    10    1
    36     9    11    1
    37    10    12    1
    38    11     5    1
    39    33    34    1
    40    33    35    1
    41    34    36    1
    42    35    37    1
    43    37    43    1
    44    20    21   ar
    45    21    22   ar
@<TRIPOS>MOLECULE
UDP-glaA
 43 45 0 0 0
SMALL
GASTEIGER

@<TRIPOS>ATOM
      1 P          18.2640   70.7390   -3.4486 P.3     1  UNL1        0.2189
      2 O          18.3058   69.5042   -2.4042 O.3     1  UNL1       -0.4371
      3 O          17.1044   71.6758   -3.2751 O.2     1  UNL1       -0.5170
      4 O          18.3834   70.0289   -4.8967 O.3     1  UNL1       -0.3112
      5 C          19.0401   70.7266   -5.9413 C.3     1  UNL1        0.1811
      6 O          18.6765   72.9810   -6.6894 O.3     1  UNL1       -0.3308
      7 O          16.4298   71.8732   -8.3376 O.3     1  UNL1       -0.3794
      8 O          18.4267   72.1637  -10.1715 O.3     1  UNL1       -0.3779
      9 C          17.6940   71.2887   -8.0249 C.3     1  UNL1        0.1713
     10 C          18.7934   71.9571   -8.8231 C.3     1  UNL1        0.1895
     11 C          18.0528   71.6811   -6.5976 C.3     1  UNL1        0.1764
     12 C          18.9874   73.2591   -8.0646 C.3     1  UNL1        0.2383
     13 H          15.7640   71.4415   -7.7756 H       1  UNL1        0.2105
     14 H          18.2146   71.2947  -10.5536 H       1  UNL1        0.2106
     15 O          21.2862   71.6198   -8.0031 O.2     1  UNL1       -0.2464
     16 O          24.1052   75.2444   -8.3957 O.2     1  UNL1       -0.2670
     17 N          20.3341   73.7476   -8.1495 N.ar    1  UNL1       -0.2551
     18 N          22.6884   73.4258   -8.1981 N.ar    1  UNL1       -0.2743
     19 C          21.4186   72.8405   -8.1084 C.ar    1  UNL1        0.3323
     20 C          20.5699   75.1124   -8.2718 C.ar    1  UNL1        0.0869
     21 C          21.7866   75.6550   -8.3567 C.ar    1  UNL1        0.0795
     22 C          22.9730   74.7771   -8.3205 C.ar    1  UNL1        0.2626
     23 H          23.4832   72.7928   -8.1701 H       1  UNL1        0.1734
     24 O          19.7169   71.4234   -3.2589 O.3     1  UNL1       -0.2703
     25 P          21.1727   70.7681   -3.0063 P.3     1  UNL1        0.2208
     26 O          22.0592   71.3519   -4.2267 O.3     1  UNL1       -0.4371
     27 O          21.1648   69.2695   -2.9072 O.2     1  UNL1       -0.5170
     28 O          21.7376   71.5199   -1.6950 O.3     1  UNL1       -0.2858
     29 O          20.9934   72.4472    0.3510 O.3     1  UNL1       -0.3226
     30 O          23.2035   75.5729   -1.2693 O.3     1  UNL1       -0.3794
     31 O          21.4607   73.9580   -2.9607 O.3     1  UNL1       -0.3775
     32 O          21.9782   75.0239    1.1446 O.3     1  UNL1       -0.3792
     33 C          22.8305   74.2303   -0.9717 C.3     1  UNL1        0.1718
     34 C          21.4397   73.9240   -1.5375 C.3     1  UNL1        0.1968
     35 C          22.8311   74.0414    0.5478 C.3     1  UNL1        0.1723
     36 C          20.9579   72.5427   -1.0768 C.3     1  UNL1        0.2706
     37 C          22.2973   72.6527    0.8925 C.3     1  UNL1        0.1830
     38 H          24.0867   75.7227   -0.8911 H       1  UNL1        0.2105
     39 H          20.5639   73.7495   -3.2724 H       1  UNL1        0.2106
     40 H          21.0540   74.7772    0.9709 H       1  UNL1        0.2106
     41 O          21.0728   71.7138    2.6596 O.co2   1  UNL1       -0.5466
     42 O          22.9168   72.9364    3.2089 O.co2   1  UNL1       -0.5466
     43 C          22.1582   72.4714    2.3706 C.2     1  UNL1        0.0799
@<TRIPOS>UNITY_ATOM_ATTR
41 1
charge -1
@<TRIPOS>BOND
     1     1     4    1
     2     1    24    1
     3     1     2    1
     4     1     3    2
     5    25    28    1
     6    25    24    1
     7    25    26    1
     8    25    27    2
     9     6    11    1
    10     6    12    1
    11    29    36    1
    12    29    37    1
    13     7     9    1
    14     7    13    1
    15     8    10    1
    16     8    14    1
    17     4     5    1
    18    28    36    1
    19    30    33    1
    20    30    38    1
    21    31    34    1
    22    31    39    1
    23    32    35    1
    24    32    40    1
    25    41    43   ar
    26    15    19    2
    27    42    43   ar
    28    16    22    2
    29    17    12    1
    30    17    19   ar
    31    17    20   ar
    32    18    19   ar
    33    18    22   ar
    34    18    23    1
    35     9    10    1
    36     9    11    1
    37    10    12    1
    38    11     5    1
    39    33    34    1
    40    33    35    1
    41    34    36    1
    42    35    37    1
    43    37    43    1
    44    20    21   ar
    45    21    22   ar
@<TRIPOS>MOLECULE
UDP-glaA
 43 45 0 0 0
SMALL
GASTEIGER

@<TRIPOS>ATOM
      1 P          21.9968   74.2010   -5.4964 P.3     1  UNL1        0.2189
      2 O          22.7340   72.9007   -6.1152 O.3     1  UNL1       -0.4371
      3 O          22.8928   75.3794   -5.2503 O.2     1  UNL1       -0.5170
      4 O          21.2178   73.6274   -4.2003 O.3     1  UNL1       -0.3112
      5 C          21.7976   73.8201   -2.9213 C.3     1  UNL1        0.1811
      6 O          23.3556   72.8837   -1.3497 O.3     1  UNL1       -0.3308
      7 O          23.5866   70.5694   -3.2424 O.3     1  UNL1       -0.3794
      8 O          21.9062   69.6043   -1.3239 O.3     1  UNL1       -0.3779
      9 C          22.4432   71.3600   -2.9176 C.3     1  UNL1        0.1713
     10 C          21.9304   71.0002   -1.5391 C.3     1  UNL1        0.1895
     11 C          22.9067   72.7973   -2.7202 C.3     1  UNL1        0.1764
     12 C          22.9232   71.7131   -0.6369 C.3     1  UNL1        0.2383
     13 H          23.9025   70.8613   -4.1145 H       1  UNL1        0.2105
     14 H          21.3359   69.2126   -2.0076 H       1  UNL1        0.2106
     15 O          22.9659   70.1570    1.7194 O.2     1  UNL1       -0.2464
     16 O          20.6489   73.3565    4.0927 O.2     1  UNL1       -0.2670
     17 N          22.3395   72.1151    0.6109 N.ar    1  UNL1       -0.2551
     18 N          21.8116   71.7510    2.8995 N.ar    1  UNL1       -0.2743
     19 C          22.4151   71.2592    1.7345 C.ar    1  UNL1        0.3323
     20 C          21.7003   73.3458    0.7126 C.ar    1  UNL1        0.0869
     21 C          21.1302   73.8006    1.8306 C.ar    1  UNL1        0.0795
     22 C          21.1641   72.9676    3.0491 C.ar    1  UNL1        0.2626
     23 H          21.8532   71.1523    3.7198 H       1  UNL1        0.1734
     24 O          20.7993   74.4735   -6.5486 O.3     1  UNL1       -0.2703
     25 P          20.0716   73.4899   -7.6047 P.3     1  UNL1        0.2208
     26 O          21.1940   72.3622   -7.8957 O.3     1  UNL1       -0.4371
     27 O          19.5536   74.1806   -8.8337 O.2     1  UNL1       -0.5170
     28 O          18.9410   72.7278   -6.7418 O.3     1  UNL1       -0.2858
     29 O          19.1193   71.4426   -4.7629 O.3     1  UNL1       -0.3226
     30 O          16.0062   69.5429   -6.7575 O.3     1  UNL1       -0.3794
     31 O          18.3547   70.4693   -8.2177 O.3     1  UNL1       -0.3775
     32 O          17.1663   69.4015   -4.2547 O.3     1  UNL1       -0.3792
     33 C          16.8423   70.6108   -6.3206 C.3     1  UNL1        0.1718
     34 C          18.2819   70.3921   -6.7980 C.3     1  UNL1        0.1968
     35 C          16.8019   70.6775   -4.7914 C.3     1  UNL1        0.1723
     36 C          19.2210   71.4417   -6.1907 C.3     1  UNL1        0.2706
     37 C          17.8001   71.7219   -4.2967 C.3     1  UNL1        0.1830
     38 H          15.1077   69.7215   -6.4314 H       1  UNL1        0.2105
     39 H          19.2833   70.3347   -8.4716 H       1  UNL1        0.2106
     40 H          18.1246   69.2816   -4.3668 H       1  UNL1        0.2106
     41 O          16.7560   71.2290   -2.2545 O.co2   1  UNL1       -0.5466
     42 O          18.8480   72.1299   -2.1601 O.co2   1  UNL1       -0.5466
     43 C          17.8885   71.7304   -2.8037 C.2     1  UNL1        0.0799
@<TRIPOS>UNITY_ATOM_ATTR
41 1
charge -1
@<TRIPOS>BOND
     1     1     4    1
     2     1    24    1
     3     1     2    1
     4     1     3    2
     5    25    28    1
     6    25    24    1
     7    25    26    1
     8    25    27    2
     9     6    11    1
    10     6    12    1
    11    29    36    1
    12    29    37    1
    13     7     9    1
    14     7    13    1
    15     8    10    1
    16     8    14    1
    17     4     5    1
    18    28    36    1
    19    30    33    1
    20    30    38    1
    21    31    34    1
    22    31    39    1
    23    32    35    1
    24    32    40    1
    25    41    43   ar
    26    15    19    2
    27    42    43   ar
    28    16    22    2
    29    17    12    1
    30    17    19   ar
    31    17    20   ar
    32    18    19   ar
    33    18    22   ar
    34    18    23    1
    35     9    10    1
    36     9    11    1
    37    10    12    1
    38    11     5    1
    39    33    34    1
    40    33    35    1
    41    34    36    1
    42    35    37    1
    43    37    43    1
    44    20    21   ar
    45    21    22   ar
