@<TRIPOS>MOLECULE
UD2
 46 48 0 0 0
SMALL
GASTEIGER

@<TRIPOS>ATOM
      1 P          22.0554   71.0240   -2.7592 P.3     1  UNL1        0.2189
      2 O          21.5771   69.4887   -2.8330 O.3     1  UNL1       -0.4371
      3 O          23.3509   71.1719   -3.4584 O.2     1  UNL1       -0.5170
      4 O          20.9541   71.9635   -3.4651 O.3     1  UNL1       -0.3112
      5 C          19.9142   72.6219   -2.7395 C.3     1  UNL1        0.1811
      6 C          17.7956   71.4284   -5.3897 C.3     1  UNL1        0.2383
      7 C          17.9766   70.2056   -4.4548 C.3     1  UNL1        0.1895
      8 O          16.8216   69.3649   -4.4852 O.3     1  UNL1       -0.3779
      9 C          18.1352   70.8766   -3.0685 C.3     1  UNL1        0.1713
     10 C          18.5647   72.3195   -3.3955 C.3     1  UNL1        0.1764
     11 O          18.6828   72.4175   -4.8238 O.3     1  UNL1       -0.3308
     12 O          16.8909   70.8716   -2.3666 O.3     1  UNL1       -0.3794
     13 H          16.8868   68.5857   -3.9166 H       1  UNL1        0.2106
     14 H          16.5437   69.9877   -2.1863 H       1  UNL1        0.2105
     15 N          18.1987   71.0958   -6.7579 N.ar    1  UNL1       -0.2551
     16 C          17.2699   70.7117   -7.6515 C.ar    1  UNL1        0.3323
     17 N          17.6119   70.4000   -8.9157 N.ar    1  UNL1       -0.2743
     18 C          18.9004   70.4707   -9.3073 C.ar    1  UNL1        0.2626
     19 C          19.8884   70.8745   -8.3773 C.ar    1  UNL1        0.0795
     20 C          19.5165   71.1853   -7.1177 C.ar    1  UNL1        0.0869
     21 O          16.1042   70.6437   -7.3124 O.2     1  UNL1       -0.2464
     22 O          19.2112   70.1892  -10.4513 O.2     1  UNL1       -0.2670
     23 H          16.9298   70.1238   -9.5470 H       1  UNL1        0.1734
     24 O          22.2239   71.4604   -1.2183 O.3     1  UNL1       -0.2703
     25 P          22.5376   70.6590    0.1426 P.3     1  UNL1        0.2208
     26 O          21.3334   69.6354    0.4519 O.3     1  UNL1       -0.4371
     27 O          23.8000   69.9030   -0.0096 O.2     1  UNL1       -0.5170
     28 O          22.6805   71.7036    1.3596 O.3     1  UNL1       -0.2865
     29 C          21.7669   72.7813    1.5718 C.3     1  UNL1        0.2611
     30 C          22.4387   74.1032    1.1922 C.3     1  UNL1        0.1582
     31 C          23.6478   74.3320    2.1045 C.3     1  UNL1        0.1625
     32 C          23.1834   74.3148    3.5634 C.3     1  UNL1        0.1686
     33 C          22.4828   72.9844    3.8517 C.3     1  UNL1        0.1760
     34 O          24.2378   75.5993    1.8059 O.3     1  UNL1       -0.3801
     35 O          22.2732   75.3930    3.7877 O.3     1  UNL1       -0.3794
     36 O          21.3874   72.8194    2.9490 O.3     1  UNL1       -0.3263
     37 H          25.0112   75.8098    2.3470 H       1  UNL1        0.2105
     38 H          21.9370   75.4428    4.6935 H       1  UNL1        0.2105
     39 C          22.4311   74.9496   -1.0928 C.2     1  UNL1        0.2231
     40 C          22.8867   74.8893   -2.5271 C.3     1  UNL1        0.0946
     41 N          22.8822   74.0438   -0.2029 N.am    1  UNL1       -0.2994
     42 O          21.6572   75.8141   -0.7378 O.2     1  UNL1       -0.2751
     43 H          23.5002   73.3518   -0.4865 H       1  UNL1        0.1496
     44 C          21.9631   72.9832    5.2905 C.3     1  UNL1        0.1693
     45 O          20.5822   73.3510    5.2993 O.3     1  UNL1       -0.3794
     46 H          20.1856   73.3712    6.1810 H       1  UNL1        0.2105
@<TRIPOS>BOND
     1    29    30    1
     2    30    41    1
     3    30    31    1
     4    31    34    1
     5    31    32    1
     6    32    35    1
     7    32    33    1
     8    33    36    1
     9    33    44    1
    10    39    40    1
    11    39    42    2
    12    39    41   am
    13    41    43    1
    14    29    28    1
    15    34    37    1
    16    35    38    1
    17    29    36    1
    18    44    45    1
    19    45    46    1
    20    15     6    1
    21    15    16   ar
    22    16    21    2
    23    16    17   ar
    24    17    23    1
    25    17    18   ar
    26    18    19   ar
    27    19    20   ar
    28    15    20   ar
    29    18    22    2
    30     6     7    1
    31     6    11    1
    32     7     9    1
    33     7     8    1
    34     8    13    1
    35     9    10    1
    36     9    12    1
    37    10     5    1
    38    10    11    1
    39    12    14    1
    40     5     4    1
    41     4     1    1
    42     1     2    1
    43     1    24    1
    44     1     3    2
    45    24    25    1
    46    28    25    1
    47    25    26    1
    48    25    27    2
@<TRIPOS>MOLECULE
UD2
 46 48 0 0 0
SMALL
GASTEIGER

@<TRIPOS>ATOM
      1 P          22.9163   72.1621   -3.3442 P.3     1  UNL1        0.2189
      2 O          23.4965   70.6633   -3.2540 O.3     1  UNL1       -0.4371
      3 O          23.6106   72.8964   -4.4248 O.2     1  UNL1       -0.5170
      4 O          21.3380   72.1083   -3.6599 O.3     1  UNL1       -0.3112
      5 C          20.3511   71.8817   -2.6519 C.3     1  UNL1        0.1811
      6 C          18.0009   71.3184   -5.3158 C.3     1  UNL1        0.2383
      7 C          17.9502   70.0204   -4.4704 C.3     1  UNL1        0.1895
      8 O          16.6515   69.4268   -4.5246 O.3     1  UNL1       -0.3779
      9 C          18.2578   70.5470   -3.0472 C.3     1  UNL1        0.1713
     10 C          18.9592   71.8973   -3.2887 C.3     1  UNL1        0.1764
     11 O          19.0739   72.0716   -4.7100 O.3     1  UNL1       -0.3308
     12 O          17.0472   70.7360   -2.3127 O.3     1  UNL1       -0.3794
     13 H          16.5697   68.6115   -4.0116 H       1  UNL1        0.2106
     14 H          16.5349   69.9267   -2.1824 H       1  UNL1        0.2105
     15 N          18.3109   71.0116   -6.7140 N.ar    1  UNL1       -0.2551
     16 C          17.3106   70.7857   -7.5842 C.ar    1  UNL1        0.3323
     17 N          17.5663   70.5013   -8.8749 N.ar    1  UNL1       -0.2743
     18 C          18.8387   70.4403   -9.3173 C.ar    1  UNL1        0.2626
     19 C          19.9014   70.6769   -8.4124 C.ar    1  UNL1        0.0795
     20 C          19.6158   70.9640   -7.1249 C.ar    1  UNL1        0.0869
     21 O          16.1584   70.8377   -7.1993 O.2     1  UNL1       -0.2464
     22 O          19.0714   70.1834  -10.4854 O.2     1  UNL1       -0.2670
     23 H          16.8333   70.3400   -9.4888 H       1  UNL1        0.1734
     24 O          23.1569   72.9164   -1.9418 O.3     1  UNL1       -0.2703
     25 P          23.0536   74.4512   -1.4659 P.3     1  UNL1        0.2208
     26 O          24.5162   75.1242   -1.5047 O.3     1  UNL1       -0.4371
     27 O          22.1474   75.1892   -2.3728 O.2     1  UNL1       -0.5170
     28 O          22.4752   74.5096    0.0357 O.3     1  UNL1       -0.2865
     29 C          21.2406   73.9008    0.4185 C.3     1  UNL1        0.2611
     30 C          20.8153   74.4271    1.7914 C.3     1  UNL1        0.1582
     31 C          21.8703   74.0319    2.8294 C.3     1  UNL1        0.1625
     32 C          22.0376   72.5100    2.8175 C.3     1  UNL1        0.1686
     33 C          22.4160   72.0576    1.4046 C.3     1  UNL1        0.1760
     34 O          21.4454   74.4555    4.1268 O.3     1  UNL1       -0.3801
     35 O          20.8094   71.8914    3.2047 O.3     1  UNL1       -0.3794
     36 O          21.4092   72.4832    0.4842 O.3     1  UNL1       -0.3263
     37 H          22.0676   74.2381    4.8344 H       1  UNL1        0.2105
     38 H          20.8424   70.9246    3.2186 H       1  UNL1        0.2105
     39 C          21.7552   76.6579    2.0707 C.2     1  UNL1        0.2231
     40 C          21.6376   78.1586    2.0196 C.3     1  UNL1        0.0946
     41 N          20.7000   75.8868    1.7417 N.am    1  UNL1       -0.2994
     42 O          22.8004   76.1423    2.4083 O.2     1  UNL1       -0.2751
     43 H          19.8639   76.2986    1.4727 H       1  UNL1        0.1496
     44 C          22.5267   70.5321    1.3704 C.3     1  UNL1        0.1693
     45 O          21.4250   69.9901    0.6389 O.3     1  UNL1       -0.3794
     46 H          21.4303   69.0252    0.5765 H       1  UNL1        0.2105
@<TRIPOS>BOND
     1    29    30    1
     2    30    41    1
     3    30    31    1
     4    31    34    1
     5    31    32    1
     6    32    35    1
     7    32    33    1
     8    33    36    1
     9    33    44    1
    10    39    40    1
    11    39    42    2
    12    39    41   am
    13    41    43    1
    14    29    28    1
    15    34    37    1
    16    35    38    1
    17    29    36    1
    18    44    45    1
    19    45    46    1
    20    15     6    1
    21    15    16   ar
    22    16    21    2
    23    16    17   ar
    24    17    23    1
    25    17    18   ar
    26    18    19   ar
    27    19    20   ar
    28    15    20   ar
    29    18    22    2
    30     6     7    1
    31     6    11    1
    32     7     9    1
    33     7     8    1
    34     8    13    1
    35     9    10    1
    36     9    12    1
    37    10     5    1
    38    10    11    1
    39    12    14    1
    40     5     4    1
    41     4     1    1
    42     1     2    1
    43     1    24    1
    44     1     3    2
    45    24    25    1
    46    28    25    1
    47    25    26    1
    48    25    27    2
@<TRIPOS>MOLECULE
UD2
 46 48 0 0 0
SMALL
GASTEIGER

@<TRIPOS>ATOM
      1 P          22.9843   72.1729   -3.2438 P.3     1  UNL1        0.2189
      2 O          23.4461   70.6309   -3.2647 O.3     1  UNL1       -0.4371
      3 O          23.7074   72.9193   -4.2968 O.2     1  UNL1       -0.5170
      4 O          21.3993   72.2619   -3.5148 O.3     1  UNL1       -0.3112
      5 C          20.4256   71.7348   -2.6117 C.3     1  UNL1        0.1811
      6 C          18.0697   71.3025   -5.2949 C.3     1  UNL1        0.2383
      7 C          17.9648   69.9948   -4.4696 C.3     1  UNL1        0.1895
      8 O          16.6447   69.4524   -4.5390 O.3     1  UNL1       -0.3779
      9 C          18.2849   70.4876   -3.0371 C.3     1  UNL1        0.1713
     10 C          19.0388   71.8134   -3.2547 C.3     1  UNL1        0.1764
     11 O          19.1676   72.0047   -4.6726 O.3     1  UNL1       -0.3308
     12 O          17.0786   70.7118   -2.3055 O.3     1  UNL1       -0.3794
     13 H          16.5290   68.6331   -4.0389 H       1  UNL1        0.2106
     14 H          16.5349   69.9209   -2.1899 H       1  UNL1        0.2105
     15 N          18.3750   71.0051   -6.6961 N.ar    1  UNL1       -0.2551
     16 C          17.3719   70.7866   -7.5648 C.ar    1  UNL1        0.3323
     17 N          17.6232   70.5110   -8.8583 N.ar    1  UNL1       -0.2743
     18 C          18.8943   70.4514   -9.3050 C.ar    1  UNL1        0.2626
     19 C          19.9600   70.6803   -8.4016 C.ar    1  UNL1        0.0795
     20 C          19.6787   70.9587   -7.1113 C.ar    1  UNL1        0.0869
     21 O          16.2209   70.8374   -7.1761 O.2     1  UNL1       -0.2464
     22 O          19.1231   70.2025  -10.4755 O.2     1  UNL1       -0.2670
     23 H          16.8882   70.3549   -9.4711 H       1  UNL1        0.1734
     24 O          23.3189   72.8142   -1.8050 O.3     1  UNL1       -0.2703
     25 P          23.1267   74.2777   -1.1614 P.3     1  UNL1        0.2208
     26 O          24.5704   74.9266   -0.8643 O.3     1  UNL1       -0.4371
     27 O          22.3845   75.1393   -2.1075 O.2     1  UNL1       -0.5170
     28 O          22.2999   74.1543    0.2148 O.3     1  UNL1       -0.2865
     29 C          22.8983   74.3270    1.5006 C.3     1  UNL1        0.2611
     30 C          22.5201   73.1498    2.4028 C.3     1  UNL1        0.1582
     31 C          21.0006   73.1329    2.5954 C.3     1  UNL1        0.1625
     32 C          20.5556   74.4771    3.1781 C.3     1  UNL1        0.1686
     33 C          21.0096   75.6034    2.2458 C.3     1  UNL1        0.1760
     34 O          20.6454   72.0810    3.4958 O.3     1  UNL1       -0.3801
     35 O          21.1444   74.6571    4.4674 O.3     1  UNL1       -0.3794
     36 O          22.4282   75.5436    2.0847 O.3     1  UNL1       -0.3263
     37 H          19.6956   72.0113    3.6634 H       1  UNL1        0.2105
     38 H          20.9057   75.4907    4.8966 H       1  UNL1        0.2105
     39 C          22.0926   71.2048    0.9986 C.2     1  UNL1        0.2231
     40 C          22.5321   69.9162    0.3545 C.3     1  UNL1        0.0946
     41 N          22.9484   71.8963    1.7768 N.am    1  UNL1       -0.2994
     42 O          20.9674   71.6209    0.8172 O.2     1  UNL1       -0.2751
     43 H          23.8477   71.5635    1.9229 H       1  UNL1        0.1496
     44 C          20.6210   76.9537    2.8508 C.3     1  UNL1        0.1693
     45 O          21.6598   77.4019    3.7240 O.3     1  UNL1       -0.3794
     46 H          21.4808   78.2542    4.1441 H       1  UNL1        0.2105
@<TRIPOS>BOND
     1    29    30    1
     2    30    41    1
     3    30    31    1
     4    31    34    1
     5    31    32    1
     6    32    35    1
     7    32    33    1
     8    33    36    1
     9    33    44    1
    10    39    40    1
    11    39    42    2
    12    39    41   am
    13    41    43    1
    14    29    28    1
    15    34    37    1
    16    35    38    1
    17    29    36    1
    18    44    45    1
    19    45    46    1
    20    15     6    1
    21    15    16   ar
    22    16    21    2
    23    16    17   ar
    24    17    23    1
    25    17    18   ar
    26    18    19   ar
    27    19    20   ar
    28    15    20   ar
    29    18    22    2
    30     6     7    1
    31     6    11    1
    32     7     9    1
    33     7     8    1
    34     8    13    1
    35     9    10    1
    36     9    12    1
    37    10     5    1
    38    10    11    1
    39    12    14    1
    40     5     4    1
    41     4     1    1
    42     1     2    1
    43     1    24    1
    44     1     3    2
    45    24    25    1
    46    28    25    1
    47    25    26    1
    48    25    27    2
@<TRIPOS>MOLECULE
UD2
 46 48 0 0 0
SMALL
GASTEIGER

@<TRIPOS>ATOM
      1 P          22.0990   70.3605   -0.2518 P.3     1  UNL1        0.2189
      2 O          21.1749   70.9542    0.9251 O.3     1  UNL1       -0.4371
      3 O          22.9982   69.3241    0.3014 O.2     1  UNL1       -0.5170
      4 O          21.1648   69.7086   -1.3903 O.3     1  UNL1       -0.3112
      5 C          21.2145   70.1105   -2.7605 C.3     1  UNL1        0.1811
      6 C          18.5909   70.8085   -5.1198 C.3     1  UNL1        0.2383
      7 C          18.2102   69.4361   -4.5084 C.3     1  UNL1        0.1895
      8 O          16.7917   69.2673   -4.4775 O.3     1  UNL1       -0.3779
      9 C          18.7846   69.5480   -3.0749 C.3     1  UNL1        0.1713
     10 C          19.8482   70.6576   -3.1810 C.3     1  UNL1        0.1764
     11 O          19.8917   71.0787   -4.5537 O.3     1  UNL1       -0.3308
     12 O          17.7589   69.9241   -2.1544 O.3     1  UNL1       -0.3794
     13 H          16.5038   68.4234   -4.1039 H       1  UNL1        0.2106
     14 H          17.0332   69.2886   -2.0919 H       1  UNL1        0.2105
     15 N          18.6716   70.7184   -6.5794 N.ar    1  UNL1       -0.2551
     16 C          17.5432   70.7282   -7.3111 C.ar    1  UNL1        0.3323
     17 N          17.5876   70.6465   -8.6540 N.ar    1  UNL1       -0.2743
     18 C          18.7734   70.5549   -9.2896 C.ar    1  UNL1        0.2626
     19 C          19.9692   70.5446   -8.5319 C.ar    1  UNL1        0.0795
     20 C          19.8952   70.6320   -7.1871 C.ar    1  UNL1        0.0869
     21 O          16.4669   70.8105   -6.7514 O.2     1  UNL1       -0.2464
     22 O          18.8150   70.4813  -10.5051 O.2     1  UNL1       -0.2670
     23 H          16.7644   70.6537   -9.1663 H       1  UNL1        0.1734
     24 O          22.9782   71.5469   -0.8944 O.3     1  UNL1       -0.2703
     25 P          22.7846   73.1407   -1.0182 P.3     1  UNL1        0.2208
     26 O          23.5716   73.6770   -2.3169 O.3     1  UNL1       -0.4371
     27 O          21.3449   73.4542   -1.1502 O.2     1  UNL1       -0.5170
     28 O          23.3717   73.8564    0.2992 O.3     1  UNL1       -0.2865
     29 C          22.5951   74.7276    1.1234 C.3     1  UNL1        0.2611
     30 C          23.5083   75.7783    1.7596 C.3     1  UNL1        0.1582
     31 C          24.5308   75.0765    2.6586 C.3     1  UNL1        0.1625
     32 C          23.7869   74.2434    3.7060 C.3     1  UNL1        0.1686
     33 C          22.8627   73.2516    2.9945 C.3     1  UNL1        0.1760
     34 O          25.3409   76.0549    3.3141 O.3     1  UNL1       -0.3801
     35 O          23.0111   75.1063    4.5396 O.3     1  UNL1       -0.3794
     36 O          21.9574   73.9669    2.1515 O.3     1  UNL1       -0.3263
     37 H          26.0125   75.6801    3.9003 H       1  UNL1        0.2105
     38 H          22.5113   74.6448    5.2274 H       1  UNL1        0.2105
     39 C          23.9970   77.8421    0.5598 C.2     1  UNL1        0.2231
     40 C          24.7166   78.6049   -0.5214 C.3     1  UNL1        0.0946
     41 N          24.2085   76.5194    0.7075 N.am    1  UNL1       -0.2994
     42 O          23.2260   78.4185    1.2985 O.2     1  UNL1       -0.2751
     43 H          24.8241   76.0581    0.1165 H       1  UNL1        0.1496
     44 C          22.0713   72.4561    4.0345 C.3     1  UNL1        0.1693
     45 O          20.8317   72.0288    3.4661 O.3     1  UNL1       -0.3794
     46 H          20.2767   71.5175    4.0708 H       1  UNL1        0.2105
@<TRIPOS>BOND
     1    29    30    1
     2    30    41    1
     3    30    31    1
     4    31    34    1
     5    31    32    1
     6    32    35    1
     7    32    33    1
     8    33    36    1
     9    33    44    1
    10    39    40    1
    11    39    42    2
    12    39    41   am
    13    41    43    1
    14    29    28    1
    15    34    37    1
    16    35    38    1
    17    29    36    1
    18    44    45    1
    19    45    46    1
    20    15     6    1
    21    15    16   ar
    22    16    21    2
    23    16    17   ar
    24    17    23    1
    25    17    18   ar
    26    18    19   ar
    27    19    20   ar
    28    15    20   ar
    29    18    22    2
    30     6     7    1
    31     6    11    1
    32     7     9    1
    33     7     8    1
    34     8    13    1
    35     9    10    1
    36     9    12    1
    37    10     5    1
    38    10    11    1
    39    12    14    1
    40     5     4    1
    41     4     1    1
    42     1     2    1
    43     1    24    1
    44     1     3    2
    45    24    25    1
    46    28    25    1
    47    25    26    1
    48    25    27    2
@<TRIPOS>MOLECULE
UD2
 46 48 0 0 0
SMALL
GASTEIGER

@<TRIPOS>ATOM
      1 P          22.1519   73.9642   -6.2593 P.3     1  UNL1        0.2189
      2 O          22.7843   72.7151   -7.0536 O.3     1  UNL1       -0.4371
      3 O          23.0116   75.1539   -6.4448 O.2     1  UNL1       -0.5170
      4 O          20.6780   74.2727   -6.8305 O.3     1  UNL1       -0.3112
      5 C          20.3466   74.1786   -8.2172 C.3     1  UNL1        0.1811
      6 C          18.2425   71.4735   -7.1256 C.3     1  UNL1        0.2383
      7 C          17.3374   72.7290   -7.0430 C.3     1  UNL1        0.1895
      8 O          15.9707   72.3892   -7.2848 O.3     1  UNL1       -0.3779
      9 C          17.8981   73.6099   -8.1862 C.3     1  UNL1        0.1713
     10 C          19.3190   73.0626   -8.4210 C.3     1  UNL1        0.1764
     11 O          19.5380   72.0155   -7.4624 O.3     1  UNL1       -0.3308
     12 O          17.1040   73.4631   -9.3646 O.3     1  UNL1       -0.3794
     13 H          15.3649   73.1415   -7.2433 H       1  UNL1        0.2106
     14 H          16.1835   73.7375   -9.2562 H       1  UNL1        0.2105
     15 N          18.2904   70.7863   -5.8331 N.ar    1  UNL1       -0.2551
     16 C          17.3453   69.8805   -5.5245 C.ar    1  UNL1        0.3323
     17 N          17.3646   69.2340   -4.3439 N.ar    1  UNL1       -0.2743
     18 C          18.3403   69.4861   -3.4479 C.ar    1  UNL1        0.2626
     19 C          19.3421   70.4364   -3.7600 C.ar    1  UNL1        0.0795
     20 C          19.3006   71.0665   -4.9528 C.ar    1  UNL1        0.0869
     21 O          16.4596   69.6430   -6.3230 O.2     1  UNL1       -0.2464
     22 O          18.3591   68.9013   -2.3791 O.2     1  UNL1       -0.2670
     23 H          16.6748   68.5848   -4.1369 H       1  UNL1        0.1734
     24 O          22.0557   73.6104   -4.6912 O.3     1  UNL1       -0.2703
     25 P          23.1029   73.0449   -3.6066 P.3     1  UNL1        0.2208
     26 O          23.2233   71.4463   -3.7602 O.3     1  UNL1       -0.4371
     27 O          24.4282   73.6626   -3.8313 O.2     1  UNL1       -0.5170
     28 O          22.5870   73.4047   -2.1243 O.3     1  UNL1       -0.2865
     29 C          21.3963   72.8532   -1.5593 C.3     1  UNL1        0.2611
     30 C          20.8897   73.7678   -0.4414 C.3     1  UNL1        0.1582
     31 C          21.9434   73.8349    0.6684 C.3     1  UNL1        0.1625
     32 C          22.2358   72.4168    1.1664 C.3     1  UNL1        0.1686
     33 C          22.6906   71.5541   -0.0138 C.3     1  UNL1        0.1760
     34 O          21.4479   74.6280    1.7495 O.3     1  UNL1       -0.3801
     35 O          21.0520   71.8581    1.7389 O.3     1  UNL1       -0.3794
     36 O          21.6791   71.5590   -1.0231 O.3     1  UNL1       -0.3263
     37 H          22.0653   74.7141    2.4888 H       1  UNL1        0.2105
     38 H          21.1642   70.9580    2.0755 H       1  UNL1        0.2105
     39 C          21.6358   76.0355   -0.9296 C.2     1  UNL1        0.2231
     40 C          21.3965   77.4170   -1.4798 C.3     1  UNL1        0.0946
     41 N          20.6561   75.1115   -0.9767 N.am    1  UNL1       -0.2994
     42 O          22.7113   75.7540   -0.4434 O.2     1  UNL1       -0.2751
     43 H          19.7958   75.3364   -1.3644 H       1  UNL1        0.1496
     44 C          22.9275   70.1203    0.4644 C.3     1  UNL1        0.1693
     45 O          21.6797   69.4268    0.5294 O.3     1  UNL1       -0.3794
     46 H          21.7540   68.5094    0.8260 H       1  UNL1        0.2105
@<TRIPOS>BOND
     1    29    30    1
     2    30    41    1
     3    30    31    1
     4    31    34    1
     5    31    32    1
     6    32    35    1
     7    32    33    1
     8    33    36    1
     9    33    44    1
    10    39    40    1
    11    39    42    2
    12    39    41   am
    13    41    43    1
    14    29    28    1
    15    34    37    1
    16    35    38    1
    17    29    36    1
    18    44    45    1
    19    45    46    1
    20    15     6    1
    21    15    16   ar
    22    16    21    2
    23    16    17   ar
    24    17    23    1
    25    17    18   ar
    26    18    19   ar
    27    19    20   ar
    28    15    20   ar
    29    18    22    2
    30     6     7    1
    31     6    11    1
    32     7     9    1
    33     7     8    1
    34     8    13    1
    35     9    10    1
    36     9    12    1
    37    10     5    1
    38    10    11    1
    39    12    14    1
    40     5     4    1
    41     4     1    1
    42     1     2    1
    43     1    24    1
    44     1     3    2
    45    24    25    1
    46    28    25    1
    47    25    26    1
    48    25    27    2
@<TRIPOS>MOLECULE
UD2
 46 48 0 0 0
SMALL
GASTEIGER

@<TRIPOS>ATOM
      1 P          21.9175   70.8200   -0.4019 P.3     1  UNL1        0.2189
      2 O          21.6111   69.5572    0.5483 O.3     1  UNL1       -0.4371
      3 O          23.0447   70.4972   -1.3041 O.2     1  UNL1       -0.5170
      4 O          20.6100   71.1621   -1.2777 O.3     1  UNL1       -0.3112
      5 C          20.6744   71.5502   -2.6513 C.3     1  UNL1        0.1811
      6 C          18.1968   71.1782   -5.2319 C.3     1  UNL1        0.2383
      7 C          18.1452   69.8429   -4.4469 C.3     1  UNL1        0.1895
      8 O          16.8290   69.2873   -4.4713 O.3     1  UNL1       -0.3779
      9 C          18.5287   70.2921   -3.0156 C.3     1  UNL1        0.1713
     10 C          19.2575   71.6333   -3.2244 C.3     1  UNL1        0.1764
     11 O          19.3159   71.8727   -4.6396 O.3     1  UNL1       -0.3308
     12 O          17.3567   70.4777   -2.2201 O.3     1  UNL1       -0.3794
     13 H          16.7460   68.4507   -3.9939 H       1  UNL1        0.2106
     14 H          16.8275   69.6769   -2.1053 H       1  UNL1        0.2105
     15 N          18.4374   70.9308   -6.6553 N.ar    1  UNL1       -0.2551
     16 C          17.3947   70.7730   -7.4899 C.ar    1  UNL1        0.3323
     17 N          17.5864   70.5443   -8.8026 N.ar    1  UNL1       -0.2743
     18 C          18.8364   70.4715   -9.3034 C.ar    1  UNL1        0.2626
     19 C          19.9432   70.6367   -8.4364 C.ar    1  UNL1        0.0795
     20 C          19.7216   70.8691   -7.1255 C.ar    1  UNL1        0.0869
     21 O          16.2621   70.8364   -7.0522 O.2     1  UNL1       -0.2464
     22 O          19.0112   70.2649  -10.4913 O.2     1  UNL1       -0.2670
     23 H          16.8234   70.4316   -9.3902 H       1  UNL1        0.1734
     24 O          22.3032   72.0934    0.5052 O.3     1  UNL1       -0.2703
     25 P          21.6070   72.8242    1.7599 P.3     1  UNL1        0.2208
     26 O          20.4392   73.7995    1.2320 O.3     1  UNL1       -0.4371
     27 O          21.0280   71.8070    2.6646 O.2     1  UNL1       -0.5170
     28 O          22.7082   73.6873    2.5569 O.3     1  UNL1       -0.2865
     29 C          23.0168   73.4731    3.9353 C.3     1  UNL1        0.2611
     30 C          22.1411   74.3811    4.8023 C.3     1  UNL1        0.1582
     31 C          22.4581   75.8439    4.4766 C.3     1  UNL1        0.1625
     32 C          23.9522   76.0932    4.6998 C.3     1  UNL1        0.1686
     33 C          24.7582   75.1190    3.8365 C.3     1  UNL1        0.1760
     34 O          21.6980   76.6991    5.3334 O.3     1  UNL1       -0.3801
     35 O          24.2704   75.8871    6.0773 O.3     1  UNL1       -0.3794
     36 O          24.3935   73.7776    4.1678 O.3     1  UNL1       -0.3263
     37 H          21.8489   77.6421    5.1815 H       1  UNL1        0.2105
     38 H          25.2033   76.0274    6.2915 H       1  UNL1        0.2105
     39 C          19.8439   74.0289    5.5346 C.2     1  UNL1        0.2231
     40 C          18.3916   73.7524    5.2467 C.3     1  UNL1        0.0946
     41 N          20.7286   74.1119    4.5215 N.am    1  UNL1       -0.2994
     42 O          20.2181   74.1770    6.6793 O.2     1  UNL1       -0.2751
     43 H          20.4301   73.9925    3.6062 H       1  UNL1        0.1496
     44 C          26.2518   75.3213    4.0985 C.3     1  UNL1        0.1693
     45 O          26.4741   76.6421    4.5971 O.3     1  UNL1       -0.3794
     46 H          27.4013   76.8410    4.7859 H       1  UNL1        0.2105
@<TRIPOS>BOND
     1    29    30    1
     2    30    41    1
     3    30    31    1
     4    31    34    1
     5    31    32    1
     6    32    35    1
     7    32    33    1
     8    33    36    1
     9    33    44    1
    10    39    40    1
    11    39    42    2
    12    39    41   am
    13    41    43    1
    14    29    28    1
    15    34    37    1
    16    35    38    1
    17    29    36    1
    18    44    45    1
    19    45    46    1
    20    15     6    1
    21    15    16   ar
    22    16    21    2
    23    16    17   ar
    24    17    23    1
    25    17    18   ar
    26    18    19   ar
    27    19    20   ar
    28    15    20   ar
    29    18    22    2
    30     6     7    1
    31     6    11    1
    32     7     9    1
    33     7     8    1
    34     8    13    1
    35     9    10    1
    36     9    12    1
    37    10     5    1
    38    10    11    1
    39    12    14    1
    40     5     4    1
    41     4     1    1
    42     1     2    1
    43     1    24    1
    44     1     3    2
    45    24    25    1
    46    28    25    1
    47    25    26    1
    48    25    27    2
@<TRIPOS>MOLECULE
UD2
 46 48 0 0 0
SMALL
GASTEIGER

@<TRIPOS>ATOM
      1 P          21.9514   70.4598   -0.1665 P.3     1  UNL1        0.2189
      2 O          22.3883   69.0266    0.4220 O.3     1  UNL1       -0.4371
      3 O          23.1139   71.1007   -0.8197 O.2     1  UNL1       -0.5170
      4 O          20.7723   70.2600   -1.2452 O.3     1  UNL1       -0.3112
      5 C          20.9013   70.6394   -2.6167 C.3     1  UNL1        0.1811
      6 C          18.3977   71.0132   -5.1719 C.3     1  UNL1        0.2383
      7 C          18.0564   69.6659   -4.4860 C.3     1  UNL1        0.1895
      8 O          16.6504   69.4145   -4.5270 O.3     1  UNL1       -0.3779
      9 C          18.5315   69.9111   -3.0329 C.3     1  UNL1        0.1713
     10 C          19.5360   71.0728   -3.1562 C.3     1  UNL1        0.1764
     11 O          19.6429   71.3998   -4.5508 O.3     1  UNL1       -0.3308
     12 O          17.4300   70.2875   -2.2047 O.3     1  UNL1       -0.3794
     13 H          16.3870   68.5826   -4.1108 H       1  UNL1        0.2106
     14 H          16.7385   69.6153   -2.1392 H       1  UNL1        0.2105
     15 N          18.5758   70.8274   -6.6137 N.ar    1  UNL1       -0.2551
     16 C          17.4980   70.7667   -7.4159 C.ar    1  UNL1        0.3323
     17 N          17.6320   70.5964   -8.7446 N.ar    1  UNL1       -0.2743
     18 C          18.8583   70.4852   -9.2943 C.ar    1  UNL1        0.2626
     19 C          20.0016   70.5484   -8.4618 C.ar    1  UNL1        0.0795
     20 C          19.8379   70.7240   -7.1337 C.ar    1  UNL1        0.0869
     21 O          16.3861   70.8656   -6.9340 O.2     1  UNL1       -0.2464
     22 O          18.9810   70.3315  -10.4968 O.2     1  UNL1       -0.2670
     23 H          16.8443   70.5535   -9.3084 H       1  UNL1        0.1734
     24 O          21.4265   71.3959    1.0341 O.3     1  UNL1       -0.2703
     25 P          21.3466   72.9887    1.2567 P.3     1  UNL1        0.2208
     26 O          22.8198   73.6242    1.1165 O.3     1  UNL1       -0.4371
     27 O          20.4539   73.5852    0.2390 O.2     1  UNL1       -0.5170
     28 O          20.7665   73.2967    2.7268 O.3     1  UNL1       -0.2865
     29 C          20.7087   74.6123    3.2810 C.3     1  UNL1        0.2611
     30 C          21.5675   74.6721    4.5465 C.3     1  UNL1        0.1582
     31 C          20.9965   73.7036    5.5869 C.3     1  UNL1        0.1625
     32 C          19.5347   74.0680    5.8598 C.3     1  UNL1        0.1686
     33 C          18.7540   74.0314    4.5433 C.3     1  UNL1        0.1760
     34 O          21.7485   73.8067    6.7982 O.3     1  UNL1       -0.3801
     35 O          19.4661   75.3806    6.4199 O.3     1  UNL1       -0.3794
     36 O          19.3549   74.9311    3.6098 O.3     1  UNL1       -0.3263
     37 H          21.4417   73.2192    7.5024 H       1  UNL1        0.2105
     38 H          18.5671   75.6780    6.6179 H       1  UNL1        0.2105
     39 C          23.9769   74.9185    4.8142 C.2     1  UNL1        0.2231
     40 C          25.3919   74.5234    4.4820 C.3     1  UNL1        0.0946
     41 N          22.9436   74.2874    4.2226 N.am    1  UNL1       -0.2994
     42 O          23.7667   75.8056    5.6149 O.2     1  UNL1       -0.2751
     43 H          23.1112   73.5788    3.5817 H       1  UNL1        0.1496
     44 C          17.3054   74.4524    4.7977 C.3     1  UNL1        0.1693
     45 O          16.8787   73.9514    6.0663 O.3     1  UNL1       -0.3794
     46 H          15.9674   74.1807    6.2941 H       1  UNL1        0.2105
@<TRIPOS>BOND
     1    29    30    1
     2    30    41    1
     3    30    31    1
     4    31    34    1
     5    31    32    1
     6    32    35    1
     7    32    33    1
     8    33    36    1
     9    33    44    1
    10    39    40    1
    11    39    42    2
    12    39    41   am
    13    41    43    1
    14    29    28    1
    15    34    37    1
    16    35    38    1
    17    29    36    1
    18    44    45    1
    19    45    46    1
    20    15     6    1
    21    15    16   ar
    22    16    21    2
    23    16    17   ar
    24    17    23    1
    25    17    18   ar
    26    18    19   ar
    27    19    20   ar
    28    15    20   ar
    29    18    22    2
    30     6     7    1
    31     6    11    1
    32     7     9    1
    33     7     8    1
    34     8    13    1
    35     9    10    1
    36     9    12    1
    37    10     5    1
    38    10    11    1
    39    12    14    1
    40     5     4    1
    41     4     1    1
    42     1     2    1
    43     1    24    1
    44     1     3    2
    45    24    25    1
    46    28    25    1
    47    25    26    1
    48    25    27    2
@<TRIPOS>MOLECULE
UD2
 46 48 0 0 0
SMALL
GASTEIGER

@<TRIPOS>ATOM
      1 P          21.9034   70.3988   -0.4254 P.3     1  UNL1        0.2189
      2 O          21.2709   71.4364    0.6304 O.3     1  UNL1       -0.4371
      3 O          22.5762   69.3010    0.3035 O.2     1  UNL1       -0.5170
      4 O          20.7318   69.7913   -1.3483 O.3     1  UNL1       -0.3112
      5 C          20.7762   69.8148   -2.7762 C.3     1  UNL1        0.1811
      6 C          18.5910   71.0592   -5.3479 C.3     1  UNL1        0.2383
      7 C          17.8604   69.8137   -4.7847 C.3     1  UNL1        0.1895
      8 O          16.4430   69.9680   -4.8786 O.3     1  UNL1       -0.3779
      9 C          18.3187   69.8089   -3.3057 C.3     1  UNL1        0.1713
     10 C          19.6093   70.6503   -3.3087 C.3     1  UNL1        0.1764
     11 O          19.8652   71.0364   -4.6685 O.3     1  UNL1       -0.3308
     12 O          17.3278   70.4153   -2.4743 O.3     1  UNL1       -0.3794
     13 H          15.9417   69.2142   -4.5393 H       1  UNL1        0.2106
     14 H          16.4753   69.9596   -2.4809 H       1  UNL1        0.2105
     15 N          18.7757   70.9380   -6.7957 N.ar    1  UNL1       -0.2551
     16 C          17.7368   71.1588   -7.6208 C.ar    1  UNL1        0.3323
     17 N          17.8778   71.0543   -8.9555 N.ar    1  UNL1       -0.2743
     18 C          19.0723   70.7260   -9.4882 C.ar    1  UNL1        0.2626
     19 C          20.1747   70.4917   -8.6315 C.ar    1  UNL1        0.0795
     20 C          20.0058   70.6077   -7.2975 C.ar    1  UNL1        0.0869
     21 O          16.6539   71.4558   -7.1545 O.2     1  UNL1       -0.2464
     22 O          19.2013   70.6314  -10.6961 O.2     1  UNL1       -0.2670
     23 H          17.1181   71.2157   -9.5360 H       1  UNL1        0.1734
     24 O          22.9748   71.1631   -1.3534 O.3     1  UNL1       -0.2703
     25 P          22.8943   72.4329   -2.3403 P.3     1  UNL1        0.2208
     26 O          23.1789   71.9559   -3.8520 O.3     1  UNL1       -0.4371
     27 O          21.5460   73.0361   -2.2596 O.2     1  UNL1       -0.5170
     28 O          23.9971   73.5222   -1.9043 O.3     1  UNL1       -0.2865
     29 C          23.8001   74.9299   -2.0484 C.3     1  UNL1        0.2611
     30 C          24.3432   75.3859   -3.4047 C.3     1  UNL1        0.1582
     31 C          25.8508   75.1194   -3.4572 C.3     1  UNL1        0.1625
     32 C          26.5269   75.8417   -2.2886 C.3     1  UNL1        0.1686
     33 C          25.8995   75.3679   -0.9749 C.3     1  UNL1        0.1760
     34 O          26.3793   75.6093   -4.6916 O.3     1  UNL1       -0.3801
     35 O          26.3407   77.2515   -2.4264 O.3     1  UNL1       -0.3794
     36 O          24.4926   75.6167   -1.0038 O.3     1  UNL1       -0.3263
     37 H          27.3313   75.4729   -4.7931 H       1  UNL1        0.2105
     38 H          26.7436   77.7732   -1.7182 H       1  UNL1        0.2105
     39 C          22.7133   75.2299   -5.2094 C.2     1  UNL1        0.2231
     40 C          22.0276   74.4634   -6.3098 C.3     1  UNL1        0.0946
     41 N          23.6765   74.6395   -4.4748 N.am    1  UNL1       -0.2994
     42 O          22.3986   76.3798   -4.9838 O.2     1  UNL1       -0.2751
     43 H          23.9278   73.7199   -4.6541 H       1  UNL1        0.1496
     44 C          26.5284   76.1287    0.1939 C.3     1  UNL1        0.1693
     45 O          27.7701   75.5166    0.5487 O.3     1  UNL1       -0.3794
     46 H          28.2257   75.9477    1.2846 H       1  UNL1        0.2105
@<TRIPOS>BOND
     1    29    30    1
     2    30    41    1
     3    30    31    1
     4    31    34    1
     5    31    32    1
     6    32    35    1
     7    32    33    1
     8    33    36    1
     9    33    44    1
    10    39    40    1
    11    39    42    2
    12    39    41   am
    13    41    43    1
    14    29    28    1
    15    34    37    1
    16    35    38    1
    17    29    36    1
    18    44    45    1
    19    45    46    1
    20    15     6    1
    21    15    16   ar
    22    16    21    2
    23    16    17   ar
    24    17    23    1
    25    17    18   ar
    26    18    19   ar
    27    19    20   ar
    28    15    20   ar
    29    18    22    2
    30     6     7    1
    31     6    11    1
    32     7     9    1
    33     7     8    1
    34     8    13    1
    35     9    10    1
    36     9    12    1
    37    10     5    1
    38    10    11    1
    39    12    14    1
    40     5     4    1
    41     4     1    1
    42     1     2    1
    43     1    24    1
    44     1     3    2
    45    24    25    1
    46    28    25    1
    47    25    26    1
    48    25    27    2
@<TRIPOS>MOLECULE
UD2
 46 48 0 0 0
SMALL
GASTEIGER

@<TRIPOS>ATOM
      1 P          21.8511   70.7627   -2.8216 P.3     1  UNL1        0.2189
      2 O          23.4220   70.6626   -3.1588 O.3     1  UNL1       -0.4371
      3 O          21.2757   69.4021   -2.7403 O.2     1  UNL1       -0.5170
      4 O          21.6521   71.5148   -1.4114 O.3     1  UNL1       -0.3112
      5 C          22.7325   72.1041   -0.6856 C.3     1  UNL1        0.1811
      6 C          21.9147   74.6000    1.7717 C.3     1  UNL1        0.2383
      7 C          23.4397   74.7603    1.5459 C.3     1  UNL1        0.1895
      8 O          23.8440   76.1171    1.7393 O.3     1  UNL1       -0.3779
      9 C          23.5944   74.3438    0.0627 C.3     1  UNL1        0.1713
     10 C          22.3327   73.5088   -0.2276 C.3     1  UNL1        0.1764
     11 O          21.5818   73.4292    0.9945 O.3     1  UNL1       -0.3308
     12 O          23.6351   75.4981   -0.7780 O.3     1  UNL1       -0.3794
     13 H          24.7901   76.2681    1.6097 H       1  UNL1        0.2106
     14 H          24.3776   76.0905   -0.5983 H       1  UNL1        0.2105
     15 N          21.6238   74.3781    3.1899 N.ar    1  UNL1       -0.2551
     16 C          21.9399   73.2011    3.7588 C.ar    1  UNL1        0.3323
     17 N          21.6839   72.9696    5.0600 N.ar    1  UNL1       -0.2743
     18 C          21.1040   73.9227    5.8176 C.ar    1  UNL1        0.2626
     19 C          20.7669   75.1667    5.2320 C.ar    1  UNL1        0.0795
     20 C          21.0389   75.3729    3.9262 C.ar    1  UNL1        0.0869
     21 O          22.4634   72.3327    3.0878 O.2     1  UNL1       -0.2464
     22 O          20.8721   73.7146    6.9955 O.2     1  UNL1       -0.2670
     23 H          21.9171   72.1150    5.4540 H       1  UNL1        0.1734
     24 O          21.1047   71.5931   -3.9820 O.3     1  UNL1       -0.2703
     25 P          21.4985   72.8805   -4.8653 P.3     1  UNL1        0.2208
     26 O          21.2548   74.2180   -4.0020 O.3     1  UNL1       -0.4371
     27 O          22.9239   72.7966   -5.2520 O.2     1  UNL1       -0.5170
     28 O          20.5842   72.9223   -6.1901 O.3     1  UNL1       -0.2865
     29 C          20.0847   71.7459   -6.8287 C.3     1  UNL1        0.2611
     30 C          19.9282   72.0058   -8.3289 C.3     1  UNL1        0.1582
     31 C          18.9005   73.1218   -8.5405 C.3     1  UNL1        0.1625
     32 C          17.5796   72.7165   -7.8807 C.3     1  UNL1        0.1686
     33 C          17.8267   72.4292   -6.3973 C.3     1  UNL1        0.1760
     34 O          18.6937   73.3208   -9.9408 O.3     1  UNL1       -0.3801
     35 O          17.0684   71.5435   -8.5162 O.3     1  UNL1       -0.3794
     36 O          18.8143   71.4043   -6.2704 O.3     1  UNL1       -0.3263
     37 H          18.0538   74.0155  -10.1486 H       1  UNL1        0.2105
     38 H          16.2311   71.2288   -8.1476 H       1  UNL1        0.2105
     39 C          21.5630   73.7169   -8.9098 C.2     1  UNL1        0.2231
     40 C          22.8885   74.1377   -9.4881 C.3     1  UNL1        0.0946
     41 N          21.2177   72.4144   -8.8918 N.am    1  UNL1       -0.2994
     42 O          20.8051   74.5507   -8.4597 O.2     1  UNL1       -0.2751
     43 H          21.8228   71.7475   -9.2524 H       1  UNL1        0.1496
     44 C          16.5234   71.9659   -5.7438 C.3     1  UNL1        0.1693
     45 O          16.3909   70.5509   -5.8945 O.3     1  UNL1       -0.3794
     46 H          15.5852   70.1869   -5.5029 H       1  UNL1        0.2105
@<TRIPOS>BOND
     1    29    30    1
     2    30    41    1
     3    30    31    1
     4    31    34    1
     5    31    32    1
     6    32    35    1
     7    32    33    1
     8    33    36    1
     9    33    44    1
    10    39    40    1
    11    39    42    2
    12    39    41   am
    13    41    43    1
    14    29    28    1
    15    34    37    1
    16    35    38    1
    17    29    36    1
    18    44    45    1
    19    45    46    1
    20    15     6    1
    21    15    16   ar
    22    16    21    2
    23    16    17   ar
    24    17    23    1
    25    17    18   ar
    26    18    19   ar
    27    19    20   ar
    28    15    20   ar
    29    18    22    2
    30     6     7    1
    31     6    11    1
    32     7     9    1
    33     7     8    1
    34     8    13    1
    35     9    10    1
    36     9    12    1
    37    10     5    1
    38    10    11    1
    39    12    14    1
    40     5     4    1
    41     4     1    1
    42     1     2    1
    43     1    24    1
    44     1     3    2
    45    24    25    1
    46    28    25    1
    47    25    26    1
    48    25    27    2
@<TRIPOS>MOLECULE
UD2
 46 48 0 0 0
SMALL
GASTEIGER

@<TRIPOS>ATOM
      1 P          21.9106   70.7499   -0.3596 P.3     1  UNL1        0.2189
      2 O          21.6173   69.5056    0.6188 O.3     1  UNL1       -0.4371
      3 O          23.0760   70.4402   -1.2168 O.2     1  UNL1       -0.5170
      4 O          20.6205   71.0206   -1.2848 O.3     1  UNL1       -0.3112
      5 C          20.7147   71.3605   -2.6694 C.3     1  UNL1        0.1811
      6 C          18.2346   71.1544   -5.2662 C.3     1  UNL1        0.2383
      7 C          18.1011   69.8180   -4.4928 C.3     1  UNL1        0.1895
      8 O          16.7549   69.3401   -4.5290 O.3     1  UNL1       -0.3779
      9 C          18.5017   70.2323   -3.0558 C.3     1  UNL1        0.1713
     10 C          19.3084   71.5305   -3.2493 C.3     1  UNL1        0.1764
     11 O          19.3888   71.7777   -4.6621 O.3     1  UNL1       -0.3308
     12 O          17.3379   70.4792   -2.2650 O.3     1  UNL1       -0.3794
     13 H          16.6207   68.5059   -4.0592 H       1  UNL1        0.2106
     14 H          16.7624   69.7097   -2.1598 H       1  UNL1        0.2105
     15 N          18.4687   70.9051   -6.6903 N.ar    1  UNL1       -0.2551
     16 C          17.4222   70.7410   -7.5190 C.ar    1  UNL1        0.3323
     17 N          17.6078   70.5104   -8.8322 N.ar    1  UNL1       -0.2743
     18 C          18.8554   70.4420   -9.3396 C.ar    1  UNL1        0.2626
     19 C          19.9662   70.6138   -8.4789 C.ar    1  UNL1        0.0795
     20 C          19.7506   70.8480   -7.1674 C.ar    1  UNL1        0.0869
     21 O          16.2917   70.8004   -7.0754 O.2     1  UNL1       -0.2464
     22 O          19.0248   70.2337  -10.5281 O.2     1  UNL1       -0.2670
     23 H          16.8422   70.3932   -9.4155 H       1  UNL1        0.1734
     24 O          22.2243   72.0620    0.5197 O.3     1  UNL1       -0.2703
     25 P          21.6845   73.5790    0.4960 P.3     1  UNL1        0.2208
     26 O          20.1324   73.5891    0.0662 O.3     1  UNL1       -0.4371
     27 O          21.8267   74.1746    1.8426 O.2     1  UNL1       -0.5170
     28 O          22.5409   74.4367   -0.5640 O.3     1  UNL1       -0.2865
     29 C          23.6968   73.9231   -1.2282 C.3     1  UNL1        0.2611
     30 C          24.7689   75.0128   -1.3048 C.3     1  UNL1        0.1582
     31 C          24.2361   76.1835   -2.1368 C.3     1  UNL1        0.1625
     32 C          23.8311   75.6694   -3.5210 C.3     1  UNL1        0.1686
     33 C          22.7949   74.5541   -3.3589 C.3     1  UNL1        0.1760
     34 O          25.2572   77.1742   -2.2752 O.3     1  UNL1       -0.3801
     35 O          24.9818   75.1584   -4.1963 O.3     1  UNL1       -0.3794
     36 O          23.3425   73.5111   -2.5500 O.3     1  UNL1       -0.3263
     37 H          24.9881   77.9464   -2.7914 H       1  UNL1        0.2105
     38 H          24.7985   74.8142   -5.0817 H       1  UNL1        0.2105
     39 C          26.3708   75.7231    0.3884 C.2     1  UNL1        0.2231
     40 C          26.7022   76.2023    1.7773 C.3     1  UNL1        0.0946
     41 N          25.0904   75.4788    0.0465 N.am    1  UNL1       -0.2994
     42 O          27.2570   75.5566   -0.4235 O.2     1  UNL1       -0.2751
     43 H          24.3817   75.6108    0.6956 H       1  UNL1        0.1496
     44 C          22.4291   73.9941   -4.7348 C.3     1  UNL1        0.1693
     45 O          23.2209   72.8353   -5.0041 O.3     1  UNL1       -0.3794
     46 H          23.0419   72.4266   -5.8620 H       1  UNL1        0.2105
@<TRIPOS>BOND
     1    29    30    1
     2    30    41    1
     3    30    31    1
     4    31    34    1
     5    31    32    1
     6    32    35    1
     7    32    33    1
     8    33    36    1
     9    33    44    1
    10    39    40    1
    11    39    42    2
    12    39    41   am
    13    41    43    1
    14    29    28    1
    15    34    37    1
    16    35    38    1
    17    29    36    1
    18    44    45    1
    19    45    46    1
    20    15     6    1
    21    15    16   ar
    22    16    21    2
    23    16    17   ar
    24    17    23    1
    25    17    18   ar
    26    18    19   ar
    27    19    20   ar
    28    15    20   ar
    29    18    22    2
    30     6     7    1
    31     6    11    1
    32     7     9    1
    33     7     8    1
    34     8    13    1
    35     9    10    1
    36     9    12    1
    37    10     5    1
    38    10    11    1
    39    12    14    1
    40     5     4    1
    41     4     1    1
    42     1     2    1
    43     1    24    1
    44     1     3    2
    45    24    25    1
    46    28    25    1
    47    25    26    1
    48    25    27    2
@<TRIPOS>MOLECULE
UD2
 46 48 0 0 0
SMALL
GASTEIGER

@<TRIPOS>ATOM
      1 P          22.7182   71.9104   -3.1937 P.3     1  UNL1        0.2189
      2 O          23.0173   72.5921   -1.7664 O.3     1  UNL1       -0.4371
      3 O          23.4860   70.6511   -3.3103 O.2     1  UNL1       -0.5170
      4 O          21.1442   71.5927   -3.3172 O.3     1  UNL1       -0.3112
      5 C          20.1615   72.1935   -2.4718 C.3     1  UNL1        0.1811
      6 C          17.9290   71.4470   -5.1912 C.3     1  UNL1        0.2383
      7 C          17.9299   70.1625   -4.3239 C.3     1  UNL1        0.1895
      8 O          16.6707   69.4917   -4.4045 O.3     1  UNL1       -0.3779
      9 C          18.1634   70.7300   -2.9024 C.3     1  UNL1        0.1713
     10 C          18.7907   72.1155   -3.1485 C.3     1  UNL1        0.1764
     11 O          18.9371   72.2727   -4.5688 O.3     1  UNL1       -0.3308
     12 O          16.9225   70.8588   -2.2065 O.3     1  UNL1       -0.3794
     13 H          16.6220   68.6816   -3.8791 H       1  UNL1        0.2106
     14 H          16.4552   70.0227   -2.0761 H       1  UNL1        0.2105
     15 N          18.2979   71.1359   -6.5740 N.ar    1  UNL1       -0.2551
     16 C          17.3375   70.8574   -7.4734 C.ar    1  UNL1        0.3323
     17 N          17.6477   70.5679   -8.7510 N.ar    1  UNL1       -0.2743
     18 C          18.9357   70.5547   -9.1505 C.ar    1  UNL1        0.2626
     19 C          19.9568   70.8470   -8.2145 C.ar    1  UNL1        0.0795
     20 C          19.6167   71.1380   -6.9412 C.ar    1  UNL1        0.0869
     21 O          16.1720   70.8658   -7.1274 O.2     1  UNL1       -0.2464
     22 O          19.2178   70.2932  -10.3066 O.2     1  UNL1       -0.2670
     23 H          16.9430   70.3682   -9.3863 H       1  UNL1        0.1734
     24 O          23.1558   72.9172   -4.3719 O.3     1  UNL1       -0.2703
     25 P          22.9295   74.4886   -4.6411 P.3     1  UNL1        0.2208
     26 O          21.5066   74.9370   -4.0343 O.3     1  UNL1       -0.4371
     27 O          24.0089   75.2616   -3.9887 O.2     1  UNL1       -0.5170
     28 O          22.9500   74.7698   -6.2264 O.3     1  UNL1       -0.2865
     29 C          23.4940   75.9605   -6.7987 C.3     1  UNL1        0.2611
     30 C          22.3548   76.8738   -7.2578 C.3     1  UNL1        0.1582
     31 C          21.5477   76.1608   -8.3472 C.3     1  UNL1        0.1625
     32 C          22.4858   75.7806   -9.4961 C.3     1  UNL1        0.1686
     33 C          23.6202   74.9092   -8.9505 C.3     1  UNL1        0.1760
     34 O          20.5265   77.0347   -8.8336 O.3     1  UNL1       -0.3801
     35 O          23.0311   76.9653  -10.0794 O.3     1  UNL1       -0.3794
     36 O          24.3109   75.6191   -7.9205 O.3     1  UNL1       -0.3263
     37 H          19.9750   76.6469   -9.5269 H       1  UNL1        0.2105
     38 H          23.6368   76.7993  -10.8154 H       1  UNL1        0.2105
     39 C          21.2852   78.4553   -5.7437 C.2     1  UNL1        0.2231
     40 C          20.3878   78.7674   -4.5750 C.3     1  UNL1        0.0946
     41 N          21.4819   77.1765   -6.1207 N.am    1  UNL1       -0.2994
     42 O          21.8317   79.3554   -6.3464 O.2     1  UNL1       -0.2751
     43 H          21.0459   76.4565   -5.6386 H       1  UNL1        0.1496
     44 C          24.5947   74.5744  -10.0813 C.3     1  UNL1        0.1693
     45 O          24.1401   73.4099  -10.7738 O.3     1  UNL1       -0.3794
     46 H          24.7111   73.1387  -11.5056 H       1  UNL1        0.2105
@<TRIPOS>BOND
     1    29    30    1
     2    30    41    1
     3    30    31    1
     4    31    34    1
     5    31    32    1
     6    32    35    1
     7    32    33    1
     8    33    36    1
     9    33    44    1
    10    39    40    1
    11    39    42    2
    12    39    41   am
    13    41    43    1
    14    29    28    1
    15    34    37    1
    16    35    38    1
    17    29    36    1
    18    44    45    1
    19    45    46    1
    20    15     6    1
    21    15    16   ar
    22    16    21    2
    23    16    17   ar
    24    17    23    1
    25    17    18   ar
    26    18    19   ar
    27    19    20   ar
    28    15    20   ar
    29    18    22    2
    30     6     7    1
    31     6    11    1
    32     7     9    1
    33     7     8    1
    34     8    13    1
    35     9    10    1
    36     9    12    1
    37    10     5    1
    38    10    11    1
    39    12    14    1
    40     5     4    1
    41     4     1    1
    42     1     2    1
    43     1    24    1
    44     1     3    2
    45    24    25    1
    46    28    25    1
    47    25    26    1
    48    25    27    2
@<TRIPOS>MOLECULE
UD2
 46 48 0 0 0
SMALL
GASTEIGER

@<TRIPOS>ATOM
      1 P          19.7216   72.8051   -3.7398 P.3     1  UNL1        0.2189
      2 O          18.4554   72.0495   -4.3856 O.3     1  UNL1       -0.4371
      3 O          19.3368   74.1845   -3.3683 O.2     1  UNL1       -0.5170
      4 O          20.2073   72.0109   -2.4256 O.3     1  UNL1       -0.3112
      5 C          20.3332   72.6314   -1.1448 C.3     1  UNL1        0.1811
      6 C          22.7915   72.3740    1.4681 C.3     1  UNL1        0.2383
      7 C          22.2629   70.9284    1.2865 C.3     1  UNL1        0.1895
      8 O          23.2813   69.9716    1.5854 O.3     1  UNL1       -0.3779
      9 C          21.9034   70.9002   -0.2193 C.3     1  UNL1        0.1713
     10 C          21.7405   72.3853   -0.5953 C.3     1  UNL1        0.1764
     11 O          21.9392   73.1541    0.6017 O.3     1  UNL1       -0.3308
     12 O          22.9611   70.3059   -0.9737 O.3     1  UNL1       -0.3794
     13 H          22.9987   69.0523    1.4870 H       1  UNL1        0.2106
     14 H          23.1465   69.3874   -0.7363 H       1  UNL1        0.2105
     15 N          22.6462   72.8053    2.8601 N.ar    1  UNL1       -0.2551
     16 C          21.5238   72.5044    3.5373 C.ar    1  UNL1        0.3323
     17 N          21.3632   72.8882    4.8176 N.ar    1  UNL1       -0.2743
     18 C          22.3337   73.5836    5.4445 C.ar    1  UNL1        0.2626
     19 C          23.5208   73.9062    4.7441 C.ar    1  UNL1        0.0795
     20 C          23.6568   73.5051    3.4626 C.ar    1  UNL1        0.0869
     21 O          20.6405   71.8777    2.9847 O.2     1  UNL1       -0.2464
     22 O          22.1897   73.9312    6.6034 O.2     1  UNL1       -0.2670
     23 H          20.5471   72.6640    5.2908 H       1  UNL1        0.1734
     24 O          20.9225   72.8527   -4.8116 O.3     1  UNL1       -0.2703
     25 P          22.4280   73.4230   -4.7790 P.3     1  UNL1        0.2208
     26 O          22.5142   74.6498   -3.7391 O.3     1  UNL1       -0.4371
     27 O          23.3531   72.3501   -4.3530 O.2     1  UNL1       -0.5170
     28 O          22.8399   73.9350   -6.2490 O.3     1  UNL1       -0.2865
     29 C          21.9308   74.6079   -7.1220 C.3     1  UNL1        0.2611
     30 C          21.9838   73.9644   -8.5097 C.3     1  UNL1        0.1582
     31 C          23.3928   74.1315   -9.0870 C.3     1  UNL1        0.1625
     32 C          23.7444   75.6212   -9.1241 C.3     1  UNL1        0.1686
     33 C          23.6235   76.2009   -7.7123 C.3     1  UNL1        0.1760
     34 O          23.4316   73.5984  -10.4128 O.3     1  UNL1       -0.3801
     35 O          22.8441   76.3028   -9.9995 O.3     1  UNL1       -0.3794
     36 O          22.2986   75.9852   -7.2223 O.3     1  UNL1       -0.3263
     37 H          24.2962   73.6701  -10.8399 H       1  UNL1        0.2105
     38 H          23.0081   77.2536  -10.0710 H       1  UNL1        0.2105
     39 C          20.4710   72.0803   -8.8244 C.2     1  UNL1        0.2231
     40 C          20.1428   70.6145   -8.7127 C.3     1  UNL1        0.0946
     41 N          21.6653   72.5386   -8.4004 N.am    1  UNL1       -0.2994
     42 O          19.6599   72.8494   -9.2964 O.2     1  UNL1       -0.2751
     43 H          22.3137   71.9242   -8.0221 H       1  UNL1        0.1496
     44 C          23.9152   77.7022   -7.7509 C.3     1  UNL1        0.1693
     45 O          23.8533   78.2345   -6.4261 O.3     1  UNL1       -0.3794
     46 H          24.0283   79.1841   -6.3746 H       1  UNL1        0.2105
@<TRIPOS>BOND
     1    29    30    1
     2    30    41    1
     3    30    31    1
     4    31    34    1
     5    31    32    1
     6    32    35    1
     7    32    33    1
     8    33    36    1
     9    33    44    1
    10    39    40    1
    11    39    42    2
    12    39    41   am
    13    41    43    1
    14    29    28    1
    15    34    37    1
    16    35    38    1
    17    29    36    1
    18    44    45    1
    19    45    46    1
    20    15     6    1
    21    15    16   ar
    22    16    21    2
    23    16    17   ar
    24    17    23    1
    25    17    18   ar
    26    18    19   ar
    27    19    20   ar
    28    15    20   ar
    29    18    22    2
    30     6     7    1
    31     6    11    1
    32     7     9    1
    33     7     8    1
    34     8    13    1
    35     9    10    1
    36     9    12    1
    37    10     5    1
    38    10    11    1
    39    12    14    1
    40     5     4    1
    41     4     1    1
    42     1     2    1
    43     1    24    1
    44     1     3    2
    45    24    25    1
    46    28    25    1
    47    25    26    1
    48    25    27    2
@<TRIPOS>MOLECULE
UD2
 46 48 0 0 0
SMALL
GASTEIGER

@<TRIPOS>ATOM
      1 P          19.9941   70.0546   -2.4551 P.3     1  UNL1        0.2189
      2 O          18.8308   68.9550   -2.2840 O.3     1  UNL1       -0.4371
      3 O          21.1129   69.4735   -3.2293 O.2     1  UNL1       -0.5170
      4 O          19.4100   71.3365   -3.2355 O.3     1  UNL1       -0.3112
      5 C          18.0135   71.6277   -3.3157 C.3     1  UNL1        0.1811
      6 C          18.7696   72.5632   -6.7054 C.3     1  UNL1        0.2383
      7 C          18.6582   71.0178   -6.7432 C.3     1  UNL1        0.1895
      8 O          18.1816   70.5717   -8.0143 O.3     1  UNL1       -0.3779
      9 C          17.6150   70.7396   -5.6334 C.3     1  UNL1        0.1713
     10 C          17.6534   72.0046   -4.7549 C.3     1  UNL1        0.1764
     11 O          18.6598   72.8731   -5.2992 O.3     1  UNL1       -0.3308
     12 O          16.3163   70.5643   -6.2022 O.3     1  UNL1       -0.3794
     13 H          18.0956   69.6116   -8.0875 H       1  UNL1        0.2106
     14 H          16.2503   69.8160   -6.8107 H       1  UNL1        0.2105
     15 N          20.0650   73.0001   -7.2308 N.ar    1  UNL1       -0.2551
     16 C          20.1201   73.6703   -8.3955 C.ar    1  UNL1        0.3323
     17 N          21.2968   74.0836   -8.9021 N.ar    1  UNL1       -0.2743
     18 C          22.4458   73.8310   -8.2427 C.ar    1  UNL1        0.2626
     19 C          22.4025   73.1274   -7.0151 C.ar    1  UNL1        0.0795
     20 C          21.2084   72.7286   -6.5286 C.ar    1  UNL1        0.0869
     21 O          19.0920   73.9052   -9.0007 O.2     1  UNL1       -0.2464
     22 O          23.5115   74.2049   -8.6999 O.2     1  UNL1       -0.2670
     23 H          21.3187   74.5646   -9.7437 H       1  UNL1        0.1734
     24 O          20.5235   70.5065   -1.0029 O.3     1  UNL1       -0.2703
     25 P          21.9711   70.5286   -0.2979 P.3     1  UNL1        0.2208
     26 O          22.1403   69.2163    0.6203 O.3     1  UNL1       -0.4371
     27 O          23.0253   70.5432   -1.3355 O.2     1  UNL1       -0.5170
     28 O          22.1013   71.8459    0.6188 O.3     1  UNL1       -0.2865
     29 C          20.9940   72.4249    1.3115 C.3     1  UNL1        0.2611
     30 C          20.7707   73.8550    0.8137 C.3     1  UNL1        0.1582
     31 C          22.0102   74.6967    1.1323 C.3     1  UNL1        0.1625
     32 C          22.2780   74.6417    2.6389 C.3     1  UNL1        0.1686
     33 C          22.4433   73.1809    3.0664 C.3     1  UNL1        0.1760
     34 O          21.7817   76.0512    0.7370 O.3     1  UNL1       -0.3801
     35 O          21.1783   75.2238    3.3410 O.3     1  UNL1       -0.3794
     36 O          21.2688   72.4472    2.7138 O.3     1  UNL1       -0.3263
     37 H          22.5278   76.6419    0.9092 H       1  UNL1        0.2105
     38 H          21.2799   75.2223    4.3032 H       1  UNL1        0.2105
     39 C          21.5812   74.0354   -1.4772 C.2     1  UNL1        0.2231
     40 C          21.3532   74.0197   -2.9659 C.3     1  UNL1        0.0946
     41 N          20.5481   73.8399   -0.6343 N.am    1  UNL1       -0.2994
     42 O          22.6956   74.2241   -1.0360 O.2     1  UNL1       -0.2751
     43 H          19.6568   73.6899   -0.9866 H       1  UNL1        0.1496
     44 C          22.6518   73.1133    4.5805 C.3     1  UNL1        0.1693
     45 O          21.4162   72.7829    5.2180 O.3     1  UNL1       -0.3794
     46 H          21.4738   72.7229    6.1813 H       1  UNL1        0.2105
@<TRIPOS>BOND
     1    29    30    1
     2    30    41    1
     3    30    31    1
     4    31    34    1
     5    31    32    1
     6    32    35    1
     7    32    33    1
     8    33    36    1
     9    33    44    1
    10    39    40    1
    11    39    42    2
    12    39    41   am
    13    41    43    1
    14    29    28    1
    15    34    37    1
    16    35    38    1
    17    29    36    1
    18    44    45    1
    19    45    46    1
    20    15     6    1
    21    15    16   ar
    22    16    21    2
    23    16    17   ar
    24    17    23    1
    25    17    18   ar
    26    18    19   ar
    27    19    20   ar
    28    15    20   ar
    29    18    22    2
    30     6     7    1
    31     6    11    1
    32     7     9    1
    33     7     8    1
    34     8    13    1
    35     9    10    1
    36     9    12    1
    37    10     5    1
    38    10    11    1
    39    12    14    1
    40     5     4    1
    41     4     1    1
    42     1     2    1
    43     1    24    1
    44     1     3    2
    45    24    25    1
    46    28    25    1
    47    25    26    1
    48    25    27    2
@<TRIPOS>MOLECULE
UD2
 46 48 0 0 0
SMALL
GASTEIGER

@<TRIPOS>ATOM
      1 P          22.7521   71.9470   -3.1669 P.3     1  UNL1        0.2189
      2 O          23.4900   73.1743   -2.4317 O.3     1  UNL1       -0.4371
      3 O          23.5119   70.6999   -2.9292 O.2     1  UNL1       -0.5170
      4 O          21.2612   71.7875   -2.5790 O.3     1  UNL1       -0.3112
      5 C          20.9851   71.6706   -1.1820 C.3     1  UNL1        0.1811
      6 C          22.9905   72.1446    1.7659 C.3     1  UNL1        0.2383
      7 C          22.6507   70.6324    1.7647 C.3     1  UNL1        0.1895
      8 O          23.6985   69.8738    2.3717 O.3     1  UNL1       -0.3779
      9 C          22.5502   70.3229    0.2509 C.3     1  UNL1        0.1713
     10 C          22.2999   71.6973   -0.3986 C.3     1  UNL1        0.1764
     11 O          22.2175   72.6630    0.6616 O.3     1  UNL1       -0.3308
     12 O          23.7735   69.7594   -0.2254 O.3     1  UNL1       -0.3794
     13 H          23.5322   68.9217    2.3953 H       1  UNL1        0.2106
     14 H          24.0106   68.9211    0.1934 H       1  UNL1        0.2105
     15 N          22.5732   72.7660    3.0248 N.ar    1  UNL1       -0.2551
     16 C          21.2915   72.6725    3.4214 C.ar    1  UNL1        0.3323
     17 N          20.8801   73.2340    4.5737 N.ar    1  UNL1       -0.2743
     18 C          21.7546   73.9019    5.3534 C.ar    1  UNL1        0.2626
     19 C          23.1070   74.0072    4.9486 C.ar    1  UNL1        0.0795
     20 C          23.4927   73.4309    3.7907 C.ar    1  UNL1        0.0869
     21 O          20.4921   72.0732    2.7285 O.2     1  UNL1       -0.2464
     22 O          21.3836   74.4102    6.3967 O.2     1  UNL1       -0.2670
     23 H          19.9521   73.1582    4.8442 H       1  UNL1        0.1734
     24 O          22.6761   72.2362   -4.7493 O.3     1  UNL1       -0.2703
     25 P          21.6669   73.0712   -5.6858 P.3     1  UNL1        0.2208
     26 O          21.3829   74.5096   -5.0194 O.3     1  UNL1       -0.4371
     27 O          22.2739   73.2584   -7.0218 O.2     1  UNL1       -0.5170
     28 O          20.2810   72.2648   -5.8338 O.3     1  UNL1       -0.2865
     29 C          19.0929   72.8506   -6.3691 C.3     1  UNL1        0.2611
     30 C          17.8724   72.0629   -5.8866 C.3     1  UNL1        0.1582
     31 C          17.9613   70.6272   -6.4134 C.3     1  UNL1        0.1625
     32 C          18.0639   70.6607   -7.9407 C.3     1  UNL1        0.1686
     33 C          19.2773   71.5026   -8.3440 C.3     1  UNL1        0.1760
     34 O          16.7893   69.9046   -6.0291 O.3     1  UNL1       -0.3801
     35 O          16.8773   71.2398   -8.4866 O.3     1  UNL1       -0.3794
     36 O          19.1468   72.8162   -7.7967 O.3     1  UNL1       -0.3263
     37 H          16.7785   68.9854   -6.3293 H       1  UNL1        0.2105
     38 H          16.8736   71.2936   -9.4525 H       1  UNL1        0.2105
     39 C          16.6734   72.1191   -3.7660 C.2     1  UNL1        0.2231
     40 C          16.6479   72.1020   -2.2602 C.3     1  UNL1        0.0946
     41 N          17.8485   72.0464   -4.4218 N.am    1  UNL1       -0.2994
     42 O          15.6356   72.1985   -4.3896 O.2     1  UNL1       -0.2751
     43 H          18.6785   71.9840   -3.9236 H       1  UNL1        0.1496
     44 C          19.3525   71.5905   -9.8695 C.3     1  UNL1        0.1693
     45 O          18.7013   70.4561  -10.4454 O.3     1  UNL1       -0.3794
     46 H          18.7104   70.4455  -11.4122 H       1  UNL1        0.2105
@<TRIPOS>BOND
     1    29    30    1
     2    30    41    1
     3    30    31    1
     4    31    34    1
     5    31    32    1
     6    32    35    1
     7    32    33    1
     8    33    36    1
     9    33    44    1
    10    39    40    1
    11    39    42    2
    12    39    41   am
    13    41    43    1
    14    29    28    1
    15    34    37    1
    16    35    38    1
    17    29    36    1
    18    44    45    1
    19    45    46    1
    20    15     6    1
    21    15    16   ar
    22    16    21    2
    23    16    17   ar
    24    17    23    1
    25    17    18   ar
    26    18    19   ar
    27    19    20   ar
    28    15    20   ar
    29    18    22    2
    30     6     7    1
    31     6    11    1
    32     7     9    1
    33     7     8    1
    34     8    13    1
    35     9    10    1
    36     9    12    1
    37    10     5    1
    38    10    11    1
    39    12    14    1
    40     5     4    1
    41     4     1    1
    42     1     2    1
    43     1    24    1
    44     1     3    2
    45    24    25    1
    46    28    25    1
    47    25    26    1
    48    25    27    2
@<TRIPOS>MOLECULE
UD2
 46 48 0 0 0
SMALL
GASTEIGER

@<TRIPOS>ATOM
      1 P          21.9628   70.3072   -0.2447 P.3     1  UNL1        0.2189
      2 O          22.4215   68.9516    0.4924 O.3     1  UNL1       -0.4371
      3 O          23.1342   70.9385   -0.8914 O.2     1  UNL1       -0.5170
      4 O          20.8544   69.9622   -1.3610 O.3     1  UNL1       -0.3112
      5 C          20.9764   70.3628   -2.7270 C.3     1  UNL1        0.1811
      6 C          18.4496   70.9299   -5.2231 C.3     1  UNL1        0.2383
      7 C          18.0509   69.5852   -4.5635 C.3     1  UNL1        0.1895
      8 O          16.6332   69.4080   -4.5831 O.3     1  UNL1       -0.3779
      9 C          18.5646   69.7688   -3.1144 C.3     1  UNL1        0.1713
     10 C          19.6259   70.8797   -3.2291 C.3     1  UNL1        0.1764
     11 O          19.7243   71.2358   -4.6172 O.3     1  UNL1       -0.3308
     12 O          17.4996   70.1806   -2.2560 O.3     1  UNL1       -0.3794
     13 H          16.3344   68.5806   -4.1821 H       1  UNL1        0.2106
     14 H          16.7752   69.5436   -2.1933 H       1  UNL1        0.2105
     15 N          18.5914   70.7716   -6.6722 N.ar    1  UNL1       -0.2551
     16 C          17.4953   70.7587   -7.4515 C.ar    1  UNL1        0.3323
     17 N          17.5960   70.6145   -8.7862 N.ar    1  UNL1       -0.2743
     18 C          18.8066   70.4818   -9.3652 C.ar    1  UNL1        0.2626
     19 C          19.9688   70.4947   -8.5569 C.ar    1  UNL1        0.0795
     20 C          19.8386   70.6450   -7.2220 C.ar    1  UNL1        0.0869
     21 O          16.3973   70.8775   -6.9432 O.2     1  UNL1       -0.2464
     22 O          18.8991   70.3517  -10.5731 O.2     1  UNL1       -0.2670
     23 H          16.7955   70.6061   -9.3333 H       1  UNL1        0.1734
     24 O          21.3356   71.3212    0.8378 O.3     1  UNL1       -0.2703
     25 P          21.5945   72.8684    1.2015 P.3     1  UNL1        0.2208
     26 O          20.4906   73.3609    2.2657 O.3     1  UNL1       -0.4371
     27 O          22.9447   73.0185    1.7871 O.2     1  UNL1       -0.5170
     28 O          21.4867   73.7591   -0.1354 O.3     1  UNL1       -0.2865
     29 C          22.5256   74.6379   -0.5713 C.3     1  UNL1        0.2611
     30 C          21.9205   75.9851   -0.9731 C.3     1  UNL1        0.1582
     31 C          20.9646   75.7746   -2.1514 C.3     1  UNL1        0.1625
     32 C          21.7283   75.1147   -3.3028 C.3     1  UNL1        0.1686
     33 C          22.3409   73.8006   -2.8110 C.3     1  UNL1        0.1760
     34 O          20.4511   77.0376   -2.5808 O.3     1  UNL1       -0.3801
     35 O          22.7665   75.9883   -3.7501 O.3     1  UNL1       -0.3794
     36 O          23.1947   74.0630   -1.6956 O.3     1  UNL1       -0.3263
     37 H          19.8367   76.9793   -3.3254 H       1  UNL1        0.2105
     38 H          23.2931   75.6332   -4.4799 H       1  UNL1        0.2105
     39 C          19.8668   76.2966    0.3008 C.2     1  UNL1        0.2231
     40 C          19.1082   76.8749    1.4665 C.3     1  UNL1        0.0946
     41 N          21.1833   76.5482    0.1609 N.am    1  UNL1       -0.2994
     42 O          19.2926   75.6038   -0.5132 O.2     1  UNL1       -0.2751
     43 H          21.6426   77.1029    0.8108 H       1  UNL1        0.1496
     44 C          23.1555   73.1643   -3.9388 C.3     1  UNL1        0.1693
     45 O          24.5016   73.6410   -3.8825 O.3     1  UNL1       -0.3794
     46 H          25.0769   73.2785   -4.5700 H       1  UNL1        0.2105
@<TRIPOS>BOND
     1    29    30    1
     2    30    41    1
     3    30    31    1
     4    31    34    1
     5    31    32    1
     6    32    35    1
     7    32    33    1
     8    33    36    1
     9    33    44    1
    10    39    40    1
    11    39    42    2
    12    39    41   am
    13    41    43    1
    14    29    28    1
    15    34    37    1
    16    35    38    1
    17    29    36    1
    18    44    45    1
    19    45    46    1
    20    15     6    1
    21    15    16   ar
    22    16    21    2
    23    16    17   ar
    24    17    23    1
    25    17    18   ar
    26    18    19   ar
    27    19    20   ar
    28    15    20   ar
    29    18    22    2
    30     6     7    1
    31     6    11    1
    32     7     9    1
    33     7     8    1
    34     8    13    1
    35     9    10    1
    36     9    12    1
    37    10     5    1
    38    10    11    1
    39    12    14    1
    40     5     4    1
    41     4     1    1
    42     1     2    1
    43     1    24    1
    44     1     3    2
    45    24    25    1
    46    28    25    1
    47    25    26    1
    48    25    27    2
@<TRIPOS>MOLECULE
UD2
 46 48 0 0 0
SMALL
GASTEIGER

@<TRIPOS>ATOM
      1 P          19.9602   70.9935   -3.4508 P.3     1  UNL1        0.2189
      2 O          19.9334   69.4147   -3.7638 O.3     1  UNL1       -0.4371
      3 O          18.7297   71.6227   -3.9788 O.2     1  UNL1       -0.5170
      4 O          20.0402   71.2236   -1.8589 O.3     1  UNL1       -0.3112
      5 C          20.4785   72.4503   -1.2720 C.3     1  UNL1        0.1811
      6 C          22.8242   72.3032    1.4507 C.3     1  UNL1        0.2383
      7 C          22.3463   70.8401    1.2685 C.3     1  UNL1        0.1895
      8 O          23.3776   69.9183    1.6270 O.3     1  UNL1       -0.3779
      9 C          22.0554   70.7798   -0.2511 C.3     1  UNL1        0.1713
     10 C          21.8664   72.2539   -0.6571 C.3     1  UNL1        0.1764
     11 O          21.9891   73.0452    0.5355 O.3     1  UNL1       -0.3308
     12 O          23.1624   70.2064   -0.9486 O.3     1  UNL1       -0.3794
     13 H          23.1264   68.9897    1.5305 H       1  UNL1        0.2106
     14 H          23.3636   69.2973   -0.6890 H       1  UNL1        0.2105
     15 N          22.6044   72.7498    2.8281 N.ar    1  UNL1       -0.2551
     16 C          21.4280   72.4998    3.4300 C.ar    1  UNL1        0.3323
     17 N          21.1984   72.8988    4.6951 N.ar    1  UNL1       -0.2743
     18 C          22.1529   73.5583    5.3825 C.ar    1  UNL1        0.2626
     19 C          23.3964   73.8273    4.7615 C.ar    1  UNL1        0.0795
     20 C          23.6006   73.4120    3.4937 C.ar    1  UNL1        0.0869
     21 O          20.5583   71.9058    2.8223 O.2     1  UNL1       -0.2464
     22 O          21.9466   73.9196    6.5277 O.2     1  UNL1       -0.2670
     23 H          20.3442   72.7114    5.1137 H       1  UNL1        0.1734
     24 O          21.2475   71.6585   -4.1538 O.3     1  UNL1       -0.2703
     25 P          21.4481   72.8374   -5.2321 P.3     1  UNL1        0.2208
     26 O          21.2413   74.2632   -4.5125 O.3     1  UNL1       -0.4371
     27 O          22.8138   72.7635   -5.7958 O.2     1  UNL1       -0.5170
     28 O          20.3689   72.6715   -6.4155 O.3     1  UNL1       -0.2865
     29 C          20.6919   72.8552   -7.7951 C.3     1  UNL1        0.2611
     30 C          20.0166   74.1274   -8.3131 C.3     1  UNL1        0.1582
     31 C          18.4968   73.9672   -8.2086 C.3     1  UNL1        0.1625
     32 C          18.0703   72.7231   -8.9927 C.3     1  UNL1        0.1686
     33 C          18.8207   71.5048   -8.4482 C.3     1  UNL1        0.1760
     34 O          17.8565   75.1210   -8.7582 O.3     1  UNL1       -0.3801
     35 O          18.3839   72.8992  -10.3754 O.3     1  UNL1       -0.3794
     36 O          20.2282   71.7314   -8.5462 O.3     1  UNL1       -0.3263
     37 H          16.8906   75.0878   -8.7243 H       1  UNL1        0.2105
     38 H          18.1410   72.1471  -10.9333 H       1  UNL1        0.2105
     39 C          21.4198   76.0871   -7.9550 C.2     1  UNL1        0.2231
     40 C          21.8606   77.2645   -7.1256 C.3     1  UNL1        0.0946
     41 N          20.4450   75.2723   -7.5056 N.am    1  UNL1       -0.2994
     42 O          21.9424   75.8716   -9.0287 O.2     1  UNL1       -0.2751
     43 H          20.0276   75.4437   -6.6468 H       1  UNL1        0.1496
     44 C          18.4448   70.2674   -9.2655 C.3     1  UNL1        0.1693
     45 O          19.0512   70.3465  -10.5572 O.3     1  UNL1       -0.3794
     46 H          18.8554   69.5933  -11.1311 H       1  UNL1        0.2105
@<TRIPOS>BOND
     1    29    30    1
     2    30    41    1
     3    30    31    1
     4    31    34    1
     5    31    32    1
     6    32    35    1
     7    32    33    1
     8    33    36    1
     9    33    44    1
    10    39    40    1
    11    39    42    2
    12    39    41   am
    13    41    43    1
    14    29    28    1
    15    34    37    1
    16    35    38    1
    17    29    36    1
    18    44    45    1
    19    45    46    1
    20    15     6    1
    21    15    16   ar
    22    16    21    2
    23    16    17   ar
    24    17    23    1
    25    17    18   ar
    26    18    19   ar
    27    19    20   ar
    28    15    20   ar
    29    18    22    2
    30     6     7    1
    31     6    11    1
    32     7     9    1
    33     7     8    1
    34     8    13    1
    35     9    10    1
    36     9    12    1
    37    10     5    1
    38    10    11    1
    39    12    14    1
    40     5     4    1
    41     4     1    1
    42     1     2    1
    43     1    24    1
    44     1     3    2
    45    24    25    1
    46    28    25    1
    47    25    26    1
    48    25    27    2
@<TRIPOS>MOLECULE
UD2
 46 48 0 0 0
SMALL
GASTEIGER

@<TRIPOS>ATOM
      1 P          21.8035   70.7844   -2.9136 P.3     1  UNL1        0.2189
      2 O          23.3803   70.7324   -3.2339 O.3     1  UNL1       -0.4371
      3 O          21.2909   69.4086   -2.7314 O.2     1  UNL1       -0.5170
      4 O          21.5574   71.6318   -1.5663 O.3     1  UNL1       -0.3112
      5 C          22.4078   72.7043   -1.1565 C.3     1  UNL1        0.1811
      6 C          22.3213   73.6899    2.3015 C.3     1  UNL1        0.2383
      7 C          21.1224   72.7207    2.1424 C.3     1  UNL1        0.1895
      8 O          20.8733   72.0135    3.3587 O.3     1  UNL1       -0.3779
      9 C          21.6255   71.7595    1.0377 C.3     1  UNL1        0.1713
     10 C          22.7415   72.5510    0.3294 C.3     1  UNL1        0.1764
     11 O          22.8094   73.8442    0.9511 O.3     1  UNL1       -0.3308
     12 O          22.1503   70.5641    1.6176 O.3     1  UNL1       -0.3794
     13 H          20.1318   71.3950    3.3097 H       1  UNL1        0.2106
     14 H          21.5039   70.0559    2.1259 H       1  UNL1        0.2105
     15 N          21.8761   74.9771    2.8399 N.ar    1  UNL1       -0.2551
     16 C          22.7398   75.7475    3.5250 C.ar    1  UNL1        0.3323
     17 N          22.3579   76.9350    4.0311 N.ar    1  UNL1       -0.2743
     18 C          21.0947   77.3730    3.8554 C.ar    1  UNL1        0.2626
     19 C          20.1753   76.5728    3.1354 C.ar    1  UNL1        0.0795
     20 C          20.5866   75.3886    2.6354 C.ar    1  UNL1        0.0869
     21 O          23.8821   75.3652    3.6909 O.2     1  UNL1       -0.2464
     22 O          20.7479   78.4478    4.3127 O.2     1  UNL1       -0.2670
     23 H          22.9930   77.4774    4.5236 H       1  UNL1        0.1734
     24 O          21.0298   71.4881   -4.1381 O.3     1  UNL1       -0.2703
     25 P          21.3529   72.7467   -5.0891 P.3     1  UNL1        0.2208
     26 O          20.9763   74.1106   -4.3199 O.3     1  UNL1       -0.4371
     27 O          22.7931   72.7532   -5.4269 O.2     1  UNL1       -0.5170
     28 O          20.4847   72.6350   -6.4406 O.3     1  UNL1       -0.2865
     29 C          20.4510   71.4574   -7.2490 C.3     1  UNL1        0.2611
     30 C          20.2898   71.8512   -8.7193 C.3     1  UNL1        0.1582
     31 C          18.9538   72.5783   -8.9006 C.3     1  UNL1        0.1625
     32 C          17.8206   71.6702   -8.4154 C.3     1  UNL1        0.1686
     33 C          18.0770   71.2834   -6.9564 C.3     1  UNL1        0.1760
     34 O          18.7613   72.8849  -10.2835 O.3     1  UNL1       -0.3801
     35 O          17.7746   70.4915   -9.2215 O.3     1  UNL1       -0.3794
     36 O          19.3484   70.6393   -6.8524 O.3     1  UNL1       -0.3263
     37 H          17.9333   73.3477  -10.4717 H       1  UNL1        0.2105
     38 H          17.0786   69.8686   -8.9693 H       1  UNL1        0.2105
     39 C          21.2570   74.0731   -8.9747 C.2     1  UNL1        0.2231
     40 C          22.3852   74.9863   -9.3773 C.3     1  UNL1        0.0946
     41 N          21.3875   72.7388   -9.1113 N.am    1  UNL1       -0.2994
     42 O          20.2298   74.5387   -8.5272 O.2     1  UNL1       -0.2751
     43 H          22.2082   72.3662   -9.4700 H       1  UNL1        0.1496
     44 C          16.9805   70.3278   -6.4821 C.3     1  UNL1        0.1693
     45 O          16.4297   70.8060   -5.2532 O.3     1  UNL1       -0.3794
     46 H          15.7270   70.2479   -4.8929 H       1  UNL1        0.2105
@<TRIPOS>BOND
     1    29    30    1
     2    30    41    1
     3    30    31    1
     4    31    34    1
     5    31    32    1
     6    32    35    1
     7    32    33    1
     8    33    36    1
     9    33    44    1
    10    39    40    1
    11    39    42    2
    12    39    41   am
    13    41    43    1
    14    29    28    1
    15    34    37    1
    16    35    38    1
    17    29    36    1
    18    44    45    1
    19    45    46    1
    20    15     6    1
    21    15    16   ar
    22    16    21    2
    23    16    17   ar
    24    17    23    1
    25    17    18   ar
    26    18    19   ar
    27    19    20   ar
    28    15    20   ar
    29    18    22    2
    30     6     7    1
    31     6    11    1
    32     7     9    1
    33     7     8    1
    34     8    13    1
    35     9    10    1
    36     9    12    1
    37    10     5    1
    38    10    11    1
    39    12    14    1
    40     5     4    1
    41     4     1    1
    42     1     2    1
    43     1    24    1
    44     1     3    2
    45    24    25    1
    46    28    25    1
    47    25    26    1
    48    25    27    2
@<TRIPOS>MOLECULE
UD2
 46 48 0 0 0
SMALL
GASTEIGER

@<TRIPOS>ATOM
      1 P          22.9376   71.9489   -3.1936 P.3     1  UNL1        0.2189
      2 O          23.8518   72.9397   -4.0734 O.3     1  UNL1       -0.4371
      3 O          23.5224   70.5900   -3.2126 O.2     1  UNL1       -0.5170
      4 O          22.8730   72.4844   -1.6761 O.3     1  UNL1       -0.3112
      5 C          22.6587   71.6230   -0.5565 C.3     1  UNL1        0.1811
      6 C          20.6299   72.9019    2.1240 C.3     1  UNL1        0.2383
      7 C          20.8542   74.1185    1.1903 C.3     1  UNL1        0.1895
      8 O          19.7387   75.0103    1.2378 O.3     1  UNL1       -0.3779
      9 C          20.9646   73.4457   -0.1999 C.3     1  UNL1        0.1713
     10 C          21.3327   71.9837    0.1176 C.3     1  UNL1        0.1764
     11 O          21.4642   71.8757    1.5440 O.3     1  UNL1       -0.3308
     12 O          19.7131   73.5092   -0.8857 O.3     1  UNL1       -0.3794
     13 H          19.8319   75.7877    0.6707 H       1  UNL1        0.2106
     14 H          19.4039   74.4086   -1.0591 H       1  UNL1        0.2105
     15 N          21.0649   73.2113    3.4878 N.ar    1  UNL1       -0.2551
     16 C          20.1775   73.6897    4.3780 C.ar    1  UNL1        0.3323
     17 N          20.5495   73.9829    5.6381 N.ar    1  UNL1       -0.2743
     18 C          21.8268   73.7977    6.0291 C.ar    1  UNL1        0.2626
     19 C          22.7712   73.2937    5.1028 C.ar    1  UNL1        0.0795
     20 C          22.3696   73.0044    3.8472 C.ar    1  UNL1        0.0869
     21 O          19.0224   73.8615    4.0393 O.2     1  UNL1       -0.2464
     22 O          22.1647   74.0622    7.1694 O.2     1  UNL1       -0.2670
     23 H          19.8972   74.3282    6.2669 H       1  UNL1        0.1734
     24 O          21.4503   71.9021   -3.8092 O.3     1  UNL1       -0.2703
     25 P          20.2229   70.8667   -3.6893 P.3     1  UNL1        0.2208
     26 O          20.7971   69.3753   -3.4901 O.3     1  UNL1       -0.4371
     27 O          19.3822   71.2302   -2.5276 O.2     1  UNL1       -0.5170
     28 O          19.3374   70.9263   -5.0328 O.3     1  UNL1       -0.2865
     29 C          19.2784   72.0783   -5.8757 C.3     1  UNL1        0.2611
     30 C          17.8280   72.5536   -5.9911 C.3     1  UNL1        0.1582
     31 C          16.9899   71.4528   -6.6485 C.3     1  UNL1        0.1625
     32 C          17.5978   71.1080   -8.0108 C.3     1  UNL1        0.1686
     33 C          19.0574   70.6882   -7.8175 C.3     1  UNL1        0.1760
     34 O          15.6495   71.9161   -6.8272 O.3     1  UNL1       -0.3801
     35 O          17.5384   72.2525   -8.8639 O.3     1  UNL1       -0.3794
     36 O          19.7737   71.7440   -7.1739 O.3     1  UNL1       -0.3263
     37 H          15.0613   71.2681   -7.2388 H       1  UNL1        0.2105
     38 H          17.9080   72.1061   -9.7459 H       1  UNL1        0.2105
     39 C          16.6051   71.8964   -3.9886 C.2     1  UNL1        0.2231
     40 C          16.0613   72.1897   -2.6150 C.3     1  UNL1        0.0946
     41 N          17.2992   72.8398   -4.6552 N.am    1  UNL1       -0.2994
     42 O          16.4184   70.8101   -4.4958 O.2     1  UNL1       -0.2751
     43 H          17.4478   73.7088   -4.2504 H       1  UNL1        0.1496
     44 C          19.6896   70.3994   -9.1803 C.3     1  UNL1        0.1693
     45 O          18.6606   70.1517  -10.1407 O.3     1  UNL1       -0.3794
     46 H          18.9893   69.9607  -11.0298 H       1  UNL1        0.2105
@<TRIPOS>BOND
     1    29    30    1
     2    30    41    1
     3    30    31    1
     4    31    34    1
     5    31    32    1
     6    32    35    1
     7    32    33    1
     8    33    36    1
     9    33    44    1
    10    39    40    1
    11    39    42    2
    12    39    41   am
    13    41    43    1
    14    29    28    1
    15    34    37    1
    16    35    38    1
    17    29    36    1
    18    44    45    1
    19    45    46    1
    20    15     6    1
    21    15    16   ar
    22    16    21    2
    23    16    17   ar
    24    17    23    1
    25    17    18   ar
    26    18    19   ar
    27    19    20   ar
    28    15    20   ar
    29    18    22    2
    30     6     7    1
    31     6    11    1
    32     7     9    1
    33     7     8    1
    34     8    13    1
    35     9    10    1
    36     9    12    1
    37    10     5    1
    38    10    11    1
    39    12    14    1
    40     5     4    1
    41     4     1    1
    42     1     2    1
    43     1    24    1
    44     1     3    2
    45    24    25    1
    46    28    25    1
    47    25    26    1
    48    25    27    2
@<TRIPOS>MOLECULE
UD2
 46 48 0 0 0
SMALL
GASTEIGER

@<TRIPOS>ATOM
      1 P          22.7454   72.4770   -3.6588 P.3     1  UNL1        0.2189
      2 O          23.7600   73.7264   -3.6895 O.3     1  UNL1       -0.4371
      3 O          23.4852   71.2489   -3.2936 O.2     1  UNL1       -0.5170
      4 O          21.5898   72.7510   -2.5710 O.3     1  UNL1       -0.3112
      5 C          21.3292   71.8713   -1.4757 C.3     1  UNL1        0.1811
      6 C          23.0585   72.2286    1.6577 C.3     1  UNL1        0.2383
      7 C          22.6171   70.7433    1.6233 C.3     1  UNL1        0.1895
      8 O          23.5442   69.9191    2.3324 O.3     1  UNL1       -0.3779
      9 C          22.6469   70.4301    0.1073 C.3     1  UNL1        0.1713
     10 C          22.5579   71.8135   -0.5648 C.3     1  UNL1        0.1764
     11 O          22.4371   72.7905    0.4813 O.3     1  UNL1       -0.3308
     12 O          23.8697   69.7805   -0.2440 O.3     1  UNL1       -0.3794
     13 H          23.3111   68.9809    2.3398 H       1  UNL1        0.2106
     14 H          24.0055   68.9310    0.1969 H       1  UNL1        0.2105
     15 N          22.5616   72.8865    2.8682 N.ar    1  UNL1       -0.2551
     16 C          21.2978   72.6693    3.2738 C.ar    1  UNL1        0.3323
     17 N          20.8147   73.2608    4.3823 N.ar    1  UNL1       -0.2743
     18 C          21.5978   74.0844    5.1084 C.ar    1  UNL1        0.2626
     19 C          22.9304   74.3211    4.6936 C.ar    1  UNL1        0.0795
     20 C          23.3898   73.7115    3.5806 C.ar    1  UNL1        0.0869
     21 O          20.5805   71.9290    2.6290 O.2     1  UNL1       -0.2464
     22 O          21.1618   74.6200    6.1122 O.2     1  UNL1       -0.2670
     23 H          19.9007   73.0943    4.6600 H       1  UNL1        0.1734
     24 O          22.0793   72.2903   -5.1130 O.3     1  UNL1       -0.2703
     25 P          21.0038   73.1319   -5.9663 P.3     1  UNL1        0.2208
     26 O          21.2485   74.7066   -5.7334 O.3     1  UNL1       -0.4371
     27 O          21.1583   72.8165   -7.4033 O.2     1  UNL1       -0.5170
     28 O          19.5164   72.7428   -5.4878 O.3     1  UNL1       -0.2865
     29 C          18.7388   71.7218   -6.1156 C.3     1  UNL1        0.2611
     30 C          17.2515   71.9912   -5.8749 C.3     1  UNL1        0.1582
     31 C          16.9678   71.9332   -4.3707 C.3     1  UNL1        0.1625
     32 C          17.4051   70.5684   -3.8319 C.3     1  UNL1        0.1686
     33 C          18.8869   70.3538   -4.1514 C.3     1  UNL1        0.1760
     34 O          15.5680   72.1109   -4.1419 O.3     1  UNL1       -0.3801
     35 O          16.6290   69.5401   -4.4496 O.3     1  UNL1       -0.3794
     36 O          19.0871   70.4508   -5.5629 O.3     1  UNL1       -0.3263
     37 H          15.3162   72.0862   -3.2085 H       1  UNL1        0.2105
     38 H          16.8535   68.6463   -4.1550 H       1  UNL1        0.2105
     39 C          16.1788   73.4380   -7.5163 C.2     1  UNL1        0.2231
     40 C          15.8226   74.8030   -8.0439 C.3     1  UNL1        0.0946
     41 N          16.9056   73.3194   -6.3876 N.am    1  UNL1       -0.2994
     42 O          15.8116   72.4441   -8.1075 O.2     1  UNL1       -0.2751
     43 H          17.2003   74.1137   -5.9152 H       1  UNL1        0.1496
     44 C          19.3168   68.9671   -3.6690 C.3     1  UNL1        0.1693
     45 O          18.4720   68.5531   -2.5932 O.3     1  UNL1       -0.3794
     46 H          18.6873   67.6805   -2.2367 H       1  UNL1        0.2105
@<TRIPOS>BOND
     1    29    30    1
     2    30    41    1
     3    30    31    1
     4    31    34    1
     5    31    32    1
     6    32    35    1
     7    32    33    1
     8    33    36    1
     9    33    44    1
    10    39    40    1
    11    39    42    2
    12    39    41   am
    13    41    43    1
    14    29    28    1
    15    34    37    1
    16    35    38    1
    17    29    36    1
    18    44    45    1
    19    45    46    1
    20    15     6    1
    21    15    16   ar
    22    16    21    2
    23    16    17   ar
    24    17    23    1
    25    17    18   ar
    26    18    19   ar
    27    19    20   ar
    28    15    20   ar
    29    18    22    2
    30     6     7    1
    31     6    11    1
    32     7     9    1
    33     7     8    1
    34     8    13    1
    35     9    10    1
    36     9    12    1
    37    10     5    1
    38    10    11    1
    39    12    14    1
    40     5     4    1
    41     4     1    1
    42     1     2    1
    43     1    24    1
    44     1     3    2
    45    24    25    1
    46    28    25    1
    47    25    26    1
    48    25    27    2
@<TRIPOS>MOLECULE
UD2
 46 48 0 0 0
SMALL
GASTEIGER

@<TRIPOS>ATOM
      1 P          22.2159   73.4885   -3.3149 P.3     1  UNL1        0.2189
      2 O          23.5652   74.2803   -2.9355 O.3     1  UNL1       -0.4371
      3 O          22.5261   72.0577   -3.5278 O.2     1  UNL1       -0.5170
      4 O          21.1527   73.6343   -2.1140 O.3     1  UNL1       -0.3112
      5 C          20.9519   72.6213   -1.1266 C.3     1  UNL1        0.1811
      6 C          23.0444   72.3633    1.7873 C.3     1  UNL1        0.2383
      7 C          22.5065   70.9268    1.5654 C.3     1  UNL1        0.1895
      8 O          23.4526   69.9533    2.0116 O.3     1  UNL1       -0.3779
      9 C          22.3440   70.8745    0.0265 C.3     1  UNL1        0.1713
     10 C          22.2695   72.3545   -0.3948 C.3     1  UNL1        0.1764
     11 O          22.3316   73.1441    0.8035 O.3     1  UNL1       -0.3308
     12 O          23.4745   70.2395   -0.5732 O.3     1  UNL1       -0.3794
     13 H          23.1614   69.0390    1.8943 H       1  UNL1        0.2106
     14 H          23.6039   69.3223   -0.2968 H       1  UNL1        0.2105
     15 N          22.7316   72.8279    3.1406 N.ar    1  UNL1       -0.2551
     16 C          21.4993   72.6346    3.6434 C.ar    1  UNL1        0.3323
     17 N          21.1839   73.0513    4.8840 N.ar    1  UNL1       -0.2743
     18 C          22.1069   73.6718    5.6466 C.ar    1  UNL1        0.2626
     19 C          23.4084   73.8810    5.1304 C.ar    1  UNL1        0.0795
     20 C          23.6981   73.4490    3.8851 C.ar    1  UNL1        0.0869
     21 O          20.6571   72.0764    2.9670 O.2     1  UNL1       -0.2464
     22 O          21.8229   74.0491    6.7698 O.2     1  UNL1       -0.2670
     23 H          20.2903   72.9050    5.2306 H       1  UNL1        0.1734
     24 O          21.5903   74.1088   -4.6629 O.3     1  UNL1       -0.2703
     25 P          21.1023   73.4784   -6.0619 P.3     1  UNL1        0.2208
     26 O          20.8668   74.6608   -7.1297 O.3     1  UNL1       -0.4371
     27 O          22.1360   72.5517   -6.5730 O.2     1  UNL1       -0.5170
     28 O          19.7248   72.6754   -5.8372 O.3     1  UNL1       -0.2865
     29 C          19.6779   71.3240   -5.3758 C.3     1  UNL1        0.2611
     30 C          18.7395   70.5106   -6.2705 C.3     1  UNL1        0.1582
     31 C          17.3238   71.0866   -6.1678 C.3     1  UNL1        0.1625
     32 C          16.8839   71.0733   -4.7013 C.3     1  UNL1        0.1686
     33 C          17.8941   71.8652   -3.8669 C.3     1  UNL1        0.1760
     34 O          16.4265   70.2881   -6.9429 O.3     1  UNL1       -0.3801
     35 O          16.8281   69.7251   -4.2315 O.3     1  UNL1       -0.3794
     36 O          19.1948   71.2967   -4.0311 O.3     1  UNL1       -0.3263
     37 H          15.5100   70.5964   -6.9241 H       1  UNL1        0.2105
     38 H          16.5563   69.6410   -3.3069 H       1  UNL1        0.2105
     39 C          18.7499   71.5685   -8.4655 C.2     1  UNL1        0.2231
     40 C          19.2226   71.6476   -9.8934 C.3     1  UNL1        0.0946
     41 N          19.1996   70.5867   -7.6594 N.am    1  UNL1       -0.2994
     42 O          17.9637   72.3891   -8.0403 O.2     1  UNL1       -0.2751
     43 H          19.8274   69.9299   -7.9992 H       1  UNL1        0.1496
     44 C          17.4940   71.8066   -2.3915 C.3     1  UNL1        0.1693
     45 O          16.0925   71.5472   -2.2872 O.3     1  UNL1       -0.3794
     46 H          15.7679   71.4967   -1.3777 H       1  UNL1        0.2105
@<TRIPOS>BOND
     1    29    30    1
     2    30    41    1
     3    30    31    1
     4    31    34    1
     5    31    32    1
     6    32    35    1
     7    32    33    1
     8    33    36    1
     9    33    44    1
    10    39    40    1
    11    39    42    2
    12    39    41   am
    13    41    43    1
    14    29    28    1
    15    34    37    1
    16    35    38    1
    17    29    36    1
    18    44    45    1
    19    45    46    1
    20    15     6    1
    21    15    16   ar
    22    16    21    2
    23    16    17   ar
    24    17    23    1
    25    17    18   ar
    26    18    19   ar
    27    19    20   ar
    28    15    20   ar
    29    18    22    2
    30     6     7    1
    31     6    11    1
    32     7     9    1
    33     7     8    1
    34     8    13    1
    35     9    10    1
    36     9    12    1
    37    10     5    1
    38    10    11    1
    39    12    14    1
    40     5     4    1
    41     4     1    1
    42     1     2    1
    43     1    24    1
    44     1     3    2
    45    24    25    1
    46    28    25    1
    47    25    26    1
    48    25    27    2
