@<TRIPOS>MOLECULE
GDU
 43 45 0 0 0
SMALL
GASTEIGER

@<TRIPOS>ATOM
      1 P          22.1360   70.8903   -2.4457 P.3     1  UNL1        0.2189
      2 O          21.5471   69.6302   -1.9409 O.2     1  UNL1       -0.5170
      3 O          23.5349   70.5735   -3.1774 O.3     1  UNL1       -0.4371
      4 O          21.1250   71.5736   -3.4935 O.3     1  UNL1       -0.3112
      5 C          20.1463   72.2764   -2.7261 C.3     1  UNL1        0.1811
      6 C          17.9119   71.3499   -5.3862 C.3     1  UNL1        0.2383
      7 C          17.9985   70.0860   -4.4929 C.3     1  UNL1        0.1895
      8 O          16.7767   69.3455   -4.5373 O.3     1  UNL1       -0.3779
      9 C          18.2238   70.6977   -3.0856 C.3     1  UNL1        0.1713
     10 C          18.7707   72.1081   -3.3738 C.3     1  UNL1        0.1764
     11 O          18.8830   72.2432   -4.8011 O.3     1  UNL1       -0.3308
     12 O          16.9898   70.7691   -2.3686 O.3     1  UNL1       -0.3794
     13 H          16.8962   68.5757   -3.9638 H       1  UNL1        0.2106
     14 H          16.6693   69.8621   -2.2716 H       1  UNL1        0.2105
     15 N          18.2709   71.0322   -6.7694 N.ar    1  UNL1       -0.2551
     16 C          17.3076   70.7144   -7.6521 C.ar    1  UNL1        0.3323
     17 N          17.6104   70.4216   -8.9306 N.ar    1  UNL1       -0.2743
     18 C          18.8918   70.4329   -9.3455 C.ar    1  UNL1        0.2626
     19 C          19.9176   70.7601   -8.4253 C.ar    1  UNL1        0.0795
     20 C          19.5857   71.0538   -7.1501 C.ar    1  UNL1        0.0869
     21 O          16.1471   70.7006   -7.2926 O.2     1  UNL1       -0.2464
     22 O          19.1674   70.1633  -10.5014 O.2     1  UNL1       -0.2670
     23 H          16.9020   70.1987   -9.5553 H       1  UNL1        0.1734
     24 O          22.3920   71.8936   -1.2127 O.3     1  UNL1       -0.2703
     25 P          22.4714   70.9892    0.1161 P.3     1  UNL1        0.2208
     26 O          21.1681   70.3253    0.3392 O.2     1  UNL1       -0.5170
     27 O          23.6182   69.8726   -0.0628 O.3     1  UNL1       -0.4371
     28 O          22.8236   71.9207    1.3803 O.3     1  UNL1       -0.2858
     29 C          22.0267   73.1000    1.2617 C.3     1  UNL1        0.2704
     30 C          22.9364   74.3086    1.0357 C.3     1  UNL1        0.1967
     31 C          23.9080   74.4286    2.2138 C.3     1  UNL1        0.1715
     32 C          23.0989   74.4555    3.5155 C.3     1  UNL1        0.1694
     33 C          22.1777   73.2337    3.5543 C.3     1  UNL1        0.1761
     34 O          23.6714   74.1342   -0.1770 O.3     1  UNL1       -0.3775
     35 O          24.6648   75.6347    2.0911 O.3     1  UNL1       -0.3794
     36 O          22.3183   75.6504    3.5682 O.3     1  UNL1       -0.3794
     37 O          21.2686   73.2812    2.4555 O.3     1  UNL1       -0.3258
     38 H          23.0214   74.0562   -0.8884 H       1  UNL1        0.2106
     39 H          25.1463   75.5792    1.2560 H       1  UNL1        0.2105
     40 H          22.9376   76.3911    3.5354 H       1  UNL1        0.2105
     41 C          21.3898   73.2327    4.8663 C.3     1  UNL1        0.1693
     42 O          22.2981   73.1564    5.9663 O.3     1  UNL1       -0.3794
     43 H          21.7629   73.1590    6.7719 H       1  UNL1        0.2105
@<TRIPOS>BOND
     1    15    16   ar
     2    15    20   ar
     3    15     6    1
     4    16    17   ar
     5    16    21    2
     6    17    18   ar
     7    17    23    1
     8    18    19   ar
     9    18    22    2
    10    19    20   ar
    11     6     7    1
    12     6    11    1
    13     7     8    1
    14     7     9    1
    15     8    13    1
    16     9    10    1
    17     9    12    1
    18    10    11    1
    19    10     5    1
    20    12    14    1
    21     5     4    1
    22     4     1    1
    23     1     2    2
    24     1     3    1
    25     1    24    1
    26    24    25    1
    27    25    26    2
    28    25    27    1
    29    25    28    1
    30    28    29    1
    31    29    30    1
    32    29    37    1
    33    30    31    1
    34    30    34    1
    35    31    32    1
    36    31    35    1
    37    32    33    1
    38    32    36    1
    39    33    41    1
    40    33    37    1
    41    41    42    1
    42    34    38    1
    43    35    39    1
    44    36    40    1
    45    42    43    1
@<TRIPOS>MOLECULE
GDU
 43 45 0 0 0
SMALL
GASTEIGER

@<TRIPOS>ATOM
      1 P          22.1108   70.9542   -2.5872 P.3     1  UNL1        0.2189
      2 O          21.5261   69.6155   -2.3511 O.2     1  UNL1       -0.5170
      3 O          23.5537   70.7942   -3.2840 O.3     1  UNL1       -0.4371
      4 O          21.1407   71.8015   -3.5505 O.3     1  UNL1       -0.3112
      5 C          20.1346   72.3811   -2.7184 C.3     1  UNL1        0.1811
      6 C          17.9115   71.3832   -5.3621 C.3     1  UNL1        0.2383
      7 C          18.0266   70.1302   -4.4568 C.3     1  UNL1        0.1895
      8 O          16.8200   69.3646   -4.4900 O.3     1  UNL1       -0.3779
      9 C          18.2436   70.7601   -3.0563 C.3     1  UNL1        0.1713
     10 C          18.7608   72.1785   -3.3599 C.3     1  UNL1        0.1764
     11 O          18.8660   72.3018   -4.7889 O.3     1  UNL1       -0.3308
     12 O          17.0106   70.8135   -2.3360 O.3     1  UNL1       -0.3794
     13 H          16.9569   68.6030   -3.9093 H       1  UNL1        0.2106
     14 H          16.7090   69.9012   -2.2291 H       1  UNL1        0.2105
     15 N          18.2727   71.0593   -6.7432 N.ar    1  UNL1       -0.2551
     16 C          17.3118   70.7274   -7.6235 C.ar    1  UNL1        0.3323
     17 N          17.6168   70.4286   -8.9001 N.ar    1  UNL1       -0.2743
     18 C          18.8978   70.4479   -9.3156 C.ar    1  UNL1        0.2626
     19 C          19.9211   70.7900   -8.3979 C.ar    1  UNL1        0.0795
     20 C          19.5872   71.0895   -7.1246 C.ar    1  UNL1        0.0869
     21 O          16.1517   70.7062   -7.2634 O.2     1  UNL1       -0.2464
     22 O          19.1753   70.1730  -10.4697 O.2     1  UNL1       -0.2670
     23 H          16.9101   70.1955   -9.5229 H       1  UNL1        0.1734
     24 O          22.2773   71.7216   -1.1816 O.3     1  UNL1       -0.2703
     25 P          21.9246   70.6592   -0.0253 P.3     1  UNL1        0.2208
     26 O          20.8893   69.7227   -0.5153 O.2     1  UNL1       -0.5170
     27 O          23.2509   69.8343    0.3679 O.3     1  UNL1       -0.4371
     28 O          21.3747   71.4382    1.2711 O.3     1  UNL1       -0.2858
     29 C          22.4459   72.2512    1.7522 C.3     1  UNL1        0.2704
     30 C          22.1856   72.6246    3.2124 C.3     1  UNL1        0.1967
     31 C          20.8534   73.3749    3.3053 C.3     1  UNL1        0.1715
     32 C          20.8857   74.5539    2.3263 C.3     1  UNL1        0.1694
     33 C          21.2429   74.0334    0.9318 C.3     1  UNL1        0.1761
     34 O          22.1249   71.4383    4.0062 O.3     1  UNL1       -0.3775
     35 O          20.6666   73.8585    4.6371 O.3     1  UNL1       -0.3794
     36 O          21.8647   75.5024    2.7528 O.3     1  UNL1       -0.3794
     37 O          22.5368   73.4325    0.9592 O.3     1  UNL1       -0.3258
     38 H          22.9794   70.9957    3.9123 H       1  UNL1        0.2106
     39 H          20.6648   73.0868    5.2174 H       1  UNL1        0.2105
     40 H          21.6030   75.7976    3.6346 H       1  UNL1        0.2105
     41 C          21.2443   75.1983   -0.0606 C.3     1  UNL1        0.1693
     42 O          22.1637   74.9208   -1.1183 O.3     1  UNL1       -0.3794
     43 H          22.1338   75.6768   -1.7207 H       1  UNL1        0.2105
@<TRIPOS>BOND
     1    15    16   ar
     2    15    20   ar
     3    15     6    1
     4    16    17   ar
     5    16    21    2
     6    17    18   ar
     7    17    23    1
     8    18    19   ar
     9    18    22    2
    10    19    20   ar
    11     6     7    1
    12     6    11    1
    13     7     8    1
    14     7     9    1
    15     8    13    1
    16     9    10    1
    17     9    12    1
    18    10    11    1
    19    10     5    1
    20    12    14    1
    21     5     4    1
    22     4     1    1
    23     1     2    2
    24     1     3    1
    25     1    24    1
    26    24    25    1
    27    25    26    2
    28    25    27    1
    29    25    28    1
    30    28    29    1
    31    29    30    1
    32    29    37    1
    33    30    31    1
    34    30    34    1
    35    31    32    1
    36    31    35    1
    37    32    33    1
    38    32    36    1
    39    33    41    1
    40    33    37    1
    41    41    42    1
    42    34    38    1
    43    35    39    1
    44    36    40    1
    45    42    43    1
@<TRIPOS>MOLECULE
GDU
 43 45 0 0 0
SMALL
GASTEIGER

@<TRIPOS>ATOM
      1 P          21.9245   74.6419   -4.3351 P.3     1  UNL1        0.2189
      2 O          23.0701   74.3212   -5.2151 O.2     1  UNL1       -0.5170
      3 O          21.0886   75.8647   -4.9668 O.3     1  UNL1       -0.4371
      4 O          20.9720   73.3528   -4.2022 O.3     1  UNL1       -0.3112
      5 C          19.8581   73.7425   -3.3973 C.3     1  UNL1        0.1811
      6 C          17.9640   71.7547   -5.7185 C.3     1  UNL1        0.2383
      7 C          18.4916   70.7371   -4.6749 C.3     1  UNL1        0.1895
      8 O          17.5805   69.6466   -4.5201 O.3     1  UNL1       -0.3779
      9 C          18.5506   71.5959   -3.3848 C.3     1  UNL1        0.1713
     10 C          18.5932   73.0458   -3.9021 C.3     1  UNL1        0.1764
     11 O          18.6066   72.9902   -5.3390 O.3     1  UNL1       -0.3308
     12 O          17.3868   71.3769   -2.5852 O.3     1  UNL1       -0.3794
     13 H          17.9658   69.0527   -3.8608 H       1  UNL1        0.2106
     14 H          17.3858   70.4411   -2.3423 H       1  UNL1        0.2105
     15 N          18.3605   71.3615   -7.0717 N.ar    1  UNL1       -0.2551
     16 C          17.4800   70.7291   -7.8673 C.ar    1  UNL1        0.3323
     17 N          17.8182   70.3600   -9.1168 N.ar    1  UNL1       -0.2743
     18 C          19.0544   70.6110   -9.5890 C.ar    1  UNL1        0.2626
     19 C          19.9942   71.2712   -8.7600 C.ar    1  UNL1        0.0795
     20 C          19.6275   71.6342   -7.5125 C.ar    1  UNL1        0.0869
     21 O          16.3610   70.4963   -7.4555 O.2     1  UNL1       -0.2464
     22 O          19.3629   70.2730  -10.7181 O.2     1  UNL1       -0.2670
     23 H          17.1686   69.9083   -9.6789 H       1  UNL1        0.1734
     24 O          22.4685   75.0612   -2.8789 O.3     1  UNL1       -0.2703
     25 P          23.6204   74.0069   -2.4897 P.3     1  UNL1        0.2208
     26 O          23.4877   72.7982   -3.3326 O.2     1  UNL1       -0.5170
     27 O          25.0649   74.6757   -2.7351 O.3     1  UNL1       -0.4371
     28 O          23.4753   73.5998   -0.9395 O.3     1  UNL1       -0.2858
     29 C          22.0921   73.3282   -0.7095 C.3     1  UNL1        0.2704
     30 C          21.5975   74.1679    0.4693 C.3     1  UNL1        0.1967
     31 C          22.4294   73.8255    1.7092 C.3     1  UNL1        0.1715
     32 C          22.3856   72.3086    1.9250 C.3     1  UNL1        0.1694
     33 C          22.8227   71.6094    0.6354 C.3     1  UNL1        0.1761
     34 O          21.7422   75.5558    0.1624 O.3     1  UNL1       -0.3775
     35 O          21.8857   74.4913    2.8510 O.3     1  UNL1       -0.3794
     36 O          21.0554   71.9121    2.2620 O.3     1  UNL1       -0.3794
     37 O          21.9233   71.9422   -0.4211 O.3     1  UNL1       -0.3258
     38 H          21.2090   75.7241   -0.6264 H       1  UNL1        0.2106
     39 H          21.9223   75.4383    2.6665 H       1  UNL1        0.2105
     40 H          20.8213   72.3797    3.0742 H       1  UNL1        0.2105
     41 C          22.8154   70.0944    0.8509 C.3     1  UNL1        0.1693
     42 O          21.5471   69.5647    0.4612 O.3     1  UNL1       -0.3794
     43 H          21.5843   68.6101    0.6115 H       1  UNL1        0.2105
@<TRIPOS>BOND
     1    15    16   ar
     2    15    20   ar
     3    15     6    1
     4    16    17   ar
     5    16    21    2
     6    17    18   ar
     7    17    23    1
     8    18    19   ar
     9    18    22    2
    10    19    20   ar
    11     6     7    1
    12     6    11    1
    13     7     8    1
    14     7     9    1
    15     8    13    1
    16     9    10    1
    17     9    12    1
    18    10    11    1
    19    10     5    1
    20    12    14    1
    21     5     4    1
    22     4     1    1
    23     1     2    2
    24     1     3    1
    25     1    24    1
    26    24    25    1
    27    25    26    2
    28    25    27    1
    29    25    28    1
    30    28    29    1
    31    29    30    1
    32    29    37    1
    33    30    31    1
    34    30    34    1
    35    31    32    1
    36    31    35    1
    37    32    33    1
    38    32    36    1
    39    33    41    1
    40    33    37    1
    41    41    42    1
    42    34    38    1
    43    35    39    1
    44    36    40    1
    45    42    43    1
@<TRIPOS>MOLECULE
GDU
 43 45 0 0 0
SMALL
GASTEIGER

@<TRIPOS>ATOM
      1 P          22.1132   73.9473   -6.7331 P.3     1  UNL1        0.2189
      2 O          22.8452   72.6881   -6.9944 O.2     1  UNL1       -0.5170
      3 O          23.1579   75.1705   -6.6621 O.3     1  UNL1       -0.4371
      4 O          21.0580   74.2108   -7.9181 O.3     1  UNL1       -0.3112
      5 C          21.3253   73.2420   -8.9332 C.3     1  UNL1        0.1811
      6 C          18.6516   71.1877   -7.6848 C.3     1  UNL1        0.2383
      7 C          18.0029   72.5779   -7.9074 C.3     1  UNL1        0.1895
      8 O          16.6215   72.4468   -8.2506 O.3     1  UNL1       -0.3779
      9 C          18.8202   73.1299   -9.1043 C.3     1  UNL1        0.1713
     10 C          20.1224   72.3083   -9.0789 C.3     1  UNL1        0.1764
     11 O          20.0513   71.4232   -7.9477 O.3     1  UNL1       -0.3308
     12 O          18.1140   72.9232  -10.3292 O.3     1  UNL1       -0.3794
     13 H          16.2787   73.3429   -8.3747 H       1  UNL1        0.2106
     14 H          17.2838   73.4137  -10.2601 H       1  UNL1        0.2105
     15 N          18.4543   70.7389   -6.3055 N.ar    1  UNL1       -0.2551
     16 C          17.3187   70.1032   -5.9671 C.ar    1  UNL1        0.3323
     17 N          17.1139   69.6772   -4.7068 N.ar    1  UNL1       -0.2743
     18 C          18.0446   69.8911   -3.7570 C.ar    1  UNL1        0.2626
     19 C          19.2433   70.5646   -4.0976 C.ar    1  UNL1        0.0795
     20 C          19.4249   70.9775   -5.3700 C.ar    1  UNL1        0.0869
     21 O          16.4701   69.9026   -6.8131 O.2     1  UNL1       -0.2464
     22 O          17.8581   69.5101   -2.6148 O.2     1  UNL1       -0.2670
     23 H          16.2902   69.2163   -4.4812 H       1  UNL1        0.1734
     24 O          21.3297   73.8304   -5.3314 O.3     1  UNL1       -0.2703
     25 P          22.4468   73.6650   -4.1848 P.3     1  UNL1        0.2208
     26 O          23.4866   72.7171   -4.6425 O.2     1  UNL1       -0.5170
     27 O          23.1215   75.0961   -3.8828 O.3     1  UNL1       -0.4371
     28 O          21.7603   73.1028   -2.8422 O.3     1  UNL1       -0.2858
     29 C          22.8190   72.7057   -1.9697 C.3     1  UNL1        0.2704
     30 C          22.6146   71.2488   -1.5513 C.3     1  UNL1        0.1967
     31 C          21.2586   71.1166   -0.8514 C.3     1  UNL1        0.1715
     32 C          21.1945   72.1380    0.2898 C.3     1  UNL1        0.1694
     33 C          21.5048   73.5288   -0.2691 C.3     1  UNL1        0.1761
     34 O          22.6417   70.4104   -2.7079 O.3     1  UNL1       -0.3775
     35 O          21.1167   69.7955   -0.3249 O.3     1  UNL1       -0.3794
     36 O          22.1529   71.7957    1.2919 O.3     1  UNL1       -0.3794
     37 O          22.8223   73.5445   -0.8169 O.3     1  UNL1       -0.3258
     38 H          23.5083   70.5309   -3.1196 H       1  UNL1        0.2106
     39 H          21.1751   69.1883   -1.0734 H       1  UNL1        0.2105
     40 H          21.9222   70.9131    1.6099 H       1  UNL1        0.2105
     41 C          21.4098   74.5617    0.8561 C.3     1  UNL1        0.1693
     42 O          20.4868   74.1033    1.8456 O.3     1  UNL1       -0.3794
     43 H          20.4567   74.7805    2.5353 H       1  UNL1        0.2105
@<TRIPOS>BOND
     1    15    16   ar
     2    15    20   ar
     3    15     6    1
     4    16    17   ar
     5    16    21    2
     6    17    18   ar
     7    17    23    1
     8    18    19   ar
     9    18    22    2
    10    19    20   ar
    11     6     7    1
    12     6    11    1
    13     7     8    1
    14     7     9    1
    15     8    13    1
    16     9    10    1
    17     9    12    1
    18    10    11    1
    19    10     5    1
    20    12    14    1
    21     5     4    1
    22     4     1    1
    23     1     2    2
    24     1     3    1
    25     1    24    1
    26    24    25    1
    27    25    26    2
    28    25    27    1
    29    25    28    1
    30    28    29    1
    31    29    30    1
    32    29    37    1
    33    30    31    1
    34    30    34    1
    35    31    32    1
    36    31    35    1
    37    32    33    1
    38    32    36    1
    39    33    41    1
    40    33    37    1
    41    41    42    1
    42    34    38    1
    43    35    39    1
    44    36    40    1
    45    42    43    1
@<TRIPOS>MOLECULE
GDU
 43 45 0 0 0
SMALL
GASTEIGER

@<TRIPOS>ATOM
      1 P          22.3957   74.9089   -8.0065 P.3     1  UNL1        0.2189
      2 O          23.4946   74.0404   -8.4837 O.2     1  UNL1       -0.5170
      3 O          22.4174   76.2979   -8.8210 O.3     1  UNL1       -0.4371
      4 O          20.9865   74.1705   -8.2422 O.3     1  UNL1       -0.3112
      5 C          21.2227   73.1171   -9.1776 C.3     1  UNL1        0.1811
      6 C          18.5360   71.1225   -7.8620 C.3     1  UNL1        0.2383
      7 C          17.9395   72.5482   -7.9821 C.3     1  UNL1        0.1895
      8 O          16.5357   72.4931   -8.2461 O.3     1  UNL1       -0.3779
      9 C          18.7093   73.1209   -9.2006 C.3     1  UNL1        0.1713
     10 C          19.9718   72.2438   -9.2915 C.3     1  UNL1        0.1764
     11 O          19.9270   71.3099   -8.1988 O.3     1  UNL1       -0.3308
     12 O          17.9235   73.0030  -10.3883 O.3     1  UNL1       -0.3794
     13 H          16.2276   73.4079   -8.3088 H       1  UNL1        0.2106
     14 H          17.1221   73.5249  -10.2468 H       1  UNL1        0.2105
     15 N          18.3999   70.6176   -6.4947 N.ar    1  UNL1       -0.2551
     16 C          17.2426   70.0556   -6.1035 C.ar    1  UNL1        0.3323
     17 N          17.0926   69.5803   -4.8531 N.ar    1  UNL1       -0.2743
     18 C          18.1021   69.6698   -3.9660 C.ar    1  UNL1        0.2626
     19 C          19.3250   70.2646   -4.3623 C.ar    1  UNL1        0.0795
     20 C          19.4501   70.7292   -5.6236 C.ar    1  UNL1        0.0869
     21 O          16.3231   69.9674   -6.8928 O.2     1  UNL1       -0.2464
     22 O          17.9657   69.2442   -2.8325 O.2     1  UNL1       -0.2670
     23 H          16.2518   69.1739   -4.5892 H       1  UNL1        0.1734
     24 O          22.5913   75.2062   -6.4362 O.3     1  UNL1       -0.2703
     25 P          22.0048   73.9340   -5.6439 P.3     1  UNL1        0.2208
     26 O          20.5310   73.9100   -5.7719 O.2     1  UNL1       -0.5170
     27 O          22.6194   72.5828   -6.2690 O.3     1  UNL1       -0.4371
     28 O          22.4078   74.0363   -4.0892 O.3     1  UNL1       -0.2858
     29 C          21.1888   74.1051   -3.3482 C.3     1  UNL1        0.2704
     30 C          21.3301   75.1395   -2.2305 C.3     1  UNL1        0.1967
     31 C          22.4940   74.7347   -1.3206 C.3     1  UNL1        0.1715
     32 C          22.2700   73.2930   -0.8506 C.3     1  UNL1        0.1694
     33 C          22.0592   72.3976   -2.0741 C.3     1  UNL1        0.1761
     34 O          21.5890   76.4249   -2.7979 O.3     1  UNL1       -0.3775
     35 O          22.5463   75.6080   -0.1905 O.3     1  UNL1       -0.3794
     36 O          21.1176   73.2385   -0.0085 O.3     1  UNL1       -0.3794
     37 O          20.9013   72.8252   -2.7898 O.3     1  UNL1       -0.3258
     38 H          20.8362   76.6354   -3.3670 H       1  UNL1        0.2106
     39 H          22.6758   76.5014   -0.5331 H       1  UNL1        0.2105
     40 H          21.2925   73.8197    0.7431 H       1  UNL1        0.2105
     41 C          21.8686   70.9495   -1.6174 C.3     1  UNL1        0.1693
     42 O          23.0573   70.4954   -0.9679 O.3     1  UNL1       -0.3794
     43 H          22.8958   69.5816   -0.6956 H       1  UNL1        0.2105
@<TRIPOS>BOND
     1    15    16   ar
     2    15    20   ar
     3    15     6    1
     4    16    17   ar
     5    16    21    2
     6    17    18   ar
     7    17    23    1
     8    18    19   ar
     9    18    22    2
    10    19    20   ar
    11     6     7    1
    12     6    11    1
    13     7     8    1
    14     7     9    1
    15     8    13    1
    16     9    10    1
    17     9    12    1
    18    10    11    1
    19    10     5    1
    20    12    14    1
    21     5     4    1
    22     4     1    1
    23     1     2    2
    24     1     3    1
    25     1    24    1
    26    24    25    1
    27    25    26    2
    28    25    27    1
    29    25    28    1
    30    28    29    1
    31    29    30    1
    32    29    37    1
    33    30    31    1
    34    30    34    1
    35    31    32    1
    36    31    35    1
    37    32    33    1
    38    32    36    1
    39    33    41    1
    40    33    37    1
    41    41    42    1
    42    34    38    1
    43    35    39    1
    44    36    40    1
    45    42    43    1
@<TRIPOS>MOLECULE
GDU
 43 45 0 0 0
SMALL
GASTEIGER

@<TRIPOS>ATOM
      1 P          21.7741   70.5940   -0.9366 P.3     1  UNL1        0.2189
      2 O          23.2061   70.2558   -0.7804 O.2     1  UNL1       -0.5170
      3 O          21.0200   69.3950   -1.7026 O.3     1  UNL1       -0.4371
      4 O          21.1109   70.8055    0.5133 O.3     1  UNL1       -0.3112
      5 C          21.9925   71.6526    1.2520 C.3     1  UNL1        0.1811
      6 C          21.5438   74.7537    3.0153 C.3     1  UNL1        0.2383
      7 C          22.4458   75.1191    1.8087 C.3     1  UNL1        0.1895
      8 O          22.2128   76.4649    1.3869 O.3     1  UNL1       -0.3779
      9 C          21.9699   74.1113    0.7303 C.3     1  UNL1        0.1713
     10 C          21.2996   72.9857    1.5398 C.3     1  UNL1        0.1764
     11 O          21.4365   73.3167    2.9326 O.3     1  UNL1       -0.3308
     12 O          21.0311   74.7296   -0.1518 O.3     1  UNL1       -0.3794
     13 H          22.8022   76.6282    0.6374 H       1  UNL1        0.2106
     14 H          21.4926   75.4609   -0.5841 H       1  UNL1        0.2105
     15 N          22.1760   75.1522    4.2740 N.ar    1  UNL1       -0.2551
     16 C          21.4151   75.5857    5.2945 C.ar    1  UNL1        0.3323
     17 N          21.9710   75.9547    6.4635 N.ar    1  UNL1       -0.2743
     18 C          23.3071   75.9045    6.6269 C.ar    1  UNL1        0.2626
     19 C          24.1216   75.4555    5.5587 C.ar    1  UNL1        0.0795
     20 C          23.5378   75.0874    4.3984 C.ar    1  UNL1        0.0869
     21 O          20.2084   75.6359    5.1621 O.2     1  UNL1       -0.2464
     22 O          23.8116   76.2429    7.6831 O.2     1  UNL1       -0.2670
     23 H          21.4063   76.2609    7.1908 H       1  UNL1        0.1734
     24 O          21.6342   71.9491   -1.7949 O.3     1  UNL1       -0.2703
     25 P          22.0692   71.5933   -3.3029 P.3     1  UNL1        0.2208
     26 O          22.4362   72.8363   -4.0166 O.2     1  UNL1       -0.5170
     27 O          23.3346   70.5973   -3.2754 O.3     1  UNL1       -0.4371
     28 O          20.8426   70.8796   -4.0621 O.3     1  UNL1       -0.2858
     29 C          19.8505   71.8831   -4.2822 C.3     1  UNL1        0.2704
     30 C          18.5093   71.4040   -3.7244 C.3     1  UNL1        0.1967
     31 C          18.1190   70.0959   -4.4193 C.3     1  UNL1        0.1715
     32 C          18.1530   70.3175   -5.9357 C.3     1  UNL1        0.1694
     33 C          19.5230   70.8775   -6.3262 C.3     1  UNL1        0.1761
     34 O          18.6272   71.1838   -2.3177 O.3     1  UNL1       -0.3775
     35 O          16.8021   69.7130   -4.0171 O.3     1  UNL1       -0.3794
     36 O          17.1299   71.2426   -6.3065 O.3     1  UNL1       -0.3794
     37 O          19.7317   72.1329   -5.6808 O.3     1  UNL1       -0.3258
     38 H          18.8806   72.0294   -1.9232 H       1  UNL1        0.2106
     39 H          16.8249   69.5967   -3.0589 H       1  UNL1        0.2105
     40 H          16.2884   70.8520   -6.0371 H       1  UNL1        0.2105
     41 C          19.5797   71.0703   -7.8433 C.3     1  UNL1        0.1693
     42 O          20.3838   70.0419   -8.4236 O.3     1  UNL1       -0.3794
     43 H          20.3932   70.1989   -9.3778 H       1  UNL1        0.2105
@<TRIPOS>BOND
     1    15    16   ar
     2    15    20   ar
     3    15     6    1
     4    16    17   ar
     5    16    21    2
     6    17    18   ar
     7    17    23    1
     8    18    19   ar
     9    18    22    2
    10    19    20   ar
    11     6     7    1
    12     6    11    1
    13     7     8    1
    14     7     9    1
    15     8    13    1
    16     9    10    1
    17     9    12    1
    18    10    11    1
    19    10     5    1
    20    12    14    1
    21     5     4    1
    22     4     1    1
    23     1     2    2
    24     1     3    1
    25     1    24    1
    26    24    25    1
    27    25    26    2
    28    25    27    1
    29    25    28    1
    30    28    29    1
    31    29    30    1
    32    29    37    1
    33    30    31    1
    34    30    34    1
    35    31    32    1
    36    31    35    1
    37    32    33    1
    38    32    36    1
    39    33    41    1
    40    33    37    1
    41    41    42    1
    42    34    38    1
    43    35    39    1
    44    36    40    1
    45    42    43    1
@<TRIPOS>MOLECULE
GDU
 43 45 0 0 0
SMALL
GASTEIGER

@<TRIPOS>ATOM
      1 P          20.7519   70.2368   -2.8722 P.3     1  UNL1        0.2189
      2 O          22.1836   70.1658   -3.2392 O.2     1  UNL1       -0.5170
      3 O          19.8998   69.2805   -3.8481 O.3     1  UNL1       -0.4371
      4 O          20.5632   69.7546   -1.3495 O.3     1  UNL1       -0.3112
      5 C          21.6050   70.3685   -0.5890 C.3     1  UNL1        0.1811
      6 C          21.3753   73.3682    1.3798 C.3     1  UNL1        0.2383
      7 C          22.7604   73.4606    0.6900 C.3     1  UNL1        0.1895
      8 O          23.1214   74.8230    0.4515 O.3     1  UNL1       -0.3779
      9 C          22.5088   72.7132   -0.6454 C.3     1  UNL1        0.1713
     10 C          21.2704   71.8435   -0.3599 C.3     1  UNL1        0.1764
     11 O          20.9042   72.0535    1.0148 O.3     1  UNL1       -0.3308
     12 O          22.2433   73.6439   -1.6966 O.3     1  UNL1       -0.3794
     13 H          23.9886   74.8108    0.0230 H       1  UNL1        0.2106
     14 H          23.0314   74.1966   -1.7871 H       1  UNL1        0.2105
     15 N          21.5116   73.4823    2.8328 N.ar    1  UNL1       -0.2551
     16 C          21.9798   72.4405    3.5425 C.ar    1  UNL1        0.3323
     17 N          22.1181   72.5205    4.8790 N.ar    1  UNL1       -0.2743
     18 C          21.7784   73.6489    5.5314 C.ar    1  UNL1        0.2626
     19 C          21.2784   74.7524    4.7975 C.ar    1  UNL1        0.0795
     20 C          21.1537   74.6467    3.4575 C.ar    1  UNL1        0.0869
     21 O          22.2908   71.4162    2.9678 O.2     1  UNL1       -0.2464
     22 O          21.8987   73.7206    6.7417 O.2     1  UNL1       -0.2670
     23 H          22.4616   71.7603    5.3749 H       1  UNL1        0.1734
     24 O          20.2346   71.7540   -3.0241 O.3     1  UNL1       -0.2703
     25 P          20.8141   72.3071   -4.4198 P.3     1  UNL1        0.2208
     26 O          20.5544   73.7602   -4.5204 O.2     1  UNL1       -0.5170
     27 O          22.4012   72.0404   -4.4850 O.3     1  UNL1       -0.4371
     28 O          20.0929   71.5463   -5.6409 O.3     1  UNL1       -0.2858
     29 C          19.0017   72.3690   -6.0559 C.3     1  UNL1        0.2704
     30 C          17.6822   71.6763   -5.7118 C.3     1  UNL1        0.1967
     31 C          17.6337   70.3174   -6.4170 C.3     1  UNL1        0.1715
     32 C          17.8865   70.5326   -7.9134 C.3     1  UNL1        0.1694
     33 C          19.1926   71.3109   -8.0907 C.3     1  UNL1        0.1761
     34 O          17.5953   71.4871   -4.2983 O.3     1  UNL1       -0.3775
     35 O          16.3483   69.7227   -6.2254 O.3     1  UNL1       -0.3794
     36 O          16.8035   71.2719   -8.4795 O.3     1  UNL1       -0.3794
     37 O          19.0814   72.5872   -7.4625 O.3     1  UNL1       -0.3258
     38 H          17.6369   72.3654   -3.8962 H       1  UNL1        0.2106
     39 H          16.2278   69.6174   -5.2732 H       1  UNL1        0.2105
     40 H          16.0038   70.7482   -8.3399 H       1  UNL1        0.2105
     41 C          19.4722   71.5014   -9.5832 C.3     1  UNL1        0.1693
     42 O          18.5802   72.4839  -10.1124 O.3     1  UNL1       -0.3794
     43 H          18.7893   72.5745  -11.0522 H       1  UNL1        0.2105
@<TRIPOS>BOND
     1    15    16   ar
     2    15    20   ar
     3    15     6    1
     4    16    17   ar
     5    16    21    2
     6    17    18   ar
     7    17    23    1
     8    18    19   ar
     9    18    22    2
    10    19    20   ar
    11     6     7    1
    12     6    11    1
    13     7     8    1
    14     7     9    1
    15     8    13    1
    16     9    10    1
    17     9    12    1
    18    10    11    1
    19    10     5    1
    20    12    14    1
    21     5     4    1
    22     4     1    1
    23     1     2    2
    24     1     3    1
    25     1    24    1
    26    24    25    1
    27    25    26    2
    28    25    27    1
    29    25    28    1
    30    28    29    1
    31    29    30    1
    32    29    37    1
    33    30    31    1
    34    30    34    1
    35    31    32    1
    36    31    35    1
    37    32    33    1
    38    32    36    1
    39    33    41    1
    40    33    37    1
    41    41    42    1
    42    34    38    1
    43    35    39    1
    44    36    40    1
    45    42    43    1
@<TRIPOS>MOLECULE
GDU
 43 45 0 0 0
SMALL
GASTEIGER

@<TRIPOS>ATOM
      1 P          21.9044   70.5442    0.0176 P.3     1  UNL1        0.2189
      2 O          23.1381   71.2387   -0.4128 O.2     1  UNL1       -0.5170
      3 O          22.2401   69.0017    0.3354 O.3     1  UNL1       -0.4371
      4 O          21.3242   71.2507    1.3409 O.3     1  UNL1       -0.3112
      5 C          22.3651   72.0821    1.8563 C.3     1  UNL1        0.1811
      6 C          22.6527   74.1095    4.8118 C.3     1  UNL1        0.2383
      7 C          21.4257   74.6875    4.0613 C.3     1  UNL1        0.1895
      8 O          20.4727   75.2257    4.9807 O.3     1  UNL1       -0.3779
      9 C          20.8591   73.4317    3.3492 C.3     1  UNL1        0.1713
     10 C          22.0504   72.4567    3.3058 C.3     1  UNL1        0.1764
     11 O          23.1784   73.1286    3.8926 O.3     1  UNL1       -0.3308
     12 O          19.7772   72.8771    4.1000 O.3     1  UNL1       -0.3794
     13 H          19.7379   75.5676    4.4524 H       1  UNL1        0.2106
     14 H          19.0888   73.5546    4.1416 H       1  UNL1        0.2105
     15 N          23.6423   75.1567    5.0703 N.ar    1  UNL1       -0.2551
     16 C          23.6569   75.7811    6.2611 C.ar    1  UNL1        0.3323
     17 N          24.5586   76.7449    6.5255 N.ar    1  UNL1       -0.2743
     18 C          25.4594   77.1079    5.5923 C.ar    1  UNL1        0.2626
     19 C          25.4522   76.4628    4.3313 C.ar    1  UNL1        0.0795
     20 C          24.5398   75.4965    4.0939 C.ar    1  UNL1        0.0869
     21 O          22.8508   75.4642    7.1130 O.2     1  UNL1       -0.2464
     22 O          26.2729   77.9835    5.8290 O.2     1  UNL1       -0.2670
     23 H          24.5574   77.1821    7.3919 H       1  UNL1        0.1734
     24 O          20.8078   70.6219   -1.1587 O.3     1  UNL1       -0.2703
     25 P          20.7173   72.1637   -1.6112 P.3     1  UNL1        0.2208
     26 O          19.9898   72.9379   -0.5814 O.2     1  UNL1       -0.5170
     27 O          22.2035   72.7610   -1.7806 O.3     1  UNL1       -0.4371
     28 O          19.9354   72.2674   -3.0140 O.3     1  UNL1       -0.2858
     29 C          20.6405   71.4441   -3.9439 C.3     1  UNL1        0.2704
     30 C          21.0750   72.2878   -5.1434 C.3     1  UNL1        0.1967
     31 C          19.8331   72.9012   -5.7975 C.3     1  UNL1        0.1715
     32 C          18.8410   71.7769   -6.1159 C.3     1  UNL1        0.1694
     33 C          18.5743   70.9727   -4.8411 C.3     1  UNL1        0.1761
     34 O          21.9502   73.3283   -4.7048 O.3     1  UNL1       -0.3775
     35 O          20.2069   73.5708   -7.0035 O.3     1  UNL1       -0.3794
     36 O          19.3926   70.9227   -7.1189 O.3     1  UNL1       -0.3794
     37 O          19.7900   70.3858   -4.3790 O.3     1  UNL1       -0.3258
     38 H          22.7122   72.8974   -4.2944 H       1  UNL1        0.2106
     39 H          20.8381   74.2588   -6.7576 H       1  UNL1        0.2105
     40 H          19.5491   71.4713   -7.8986 H       1  UNL1        0.2105
     41 C          17.5581   69.8682   -5.1402 C.3     1  UNL1        0.1693
     42 O          16.6946   69.6990   -4.0147 O.3     1  UNL1       -0.3794
     43 H          16.0706   68.9966   -4.2437 H       1  UNL1        0.2105
@<TRIPOS>BOND
     1    15    16   ar
     2    15    20   ar
     3    15     6    1
     4    16    17   ar
     5    16    21    2
     6    17    18   ar
     7    17    23    1
     8    18    19   ar
     9    18    22    2
    10    19    20   ar
    11     6     7    1
    12     6    11    1
    13     7     8    1
    14     7     9    1
    15     8    13    1
    16     9    10    1
    17     9    12    1
    18    10    11    1
    19    10     5    1
    20    12    14    1
    21     5     4    1
    22     4     1    1
    23     1     2    2
    24     1     3    1
    25     1    24    1
    26    24    25    1
    27    25    26    2
    28    25    27    1
    29    25    28    1
    30    28    29    1
    31    29    30    1
    32    29    37    1
    33    30    31    1
    34    30    34    1
    35    31    32    1
    36    31    35    1
    37    32    33    1
    38    32    36    1
    39    33    41    1
    40    33    37    1
    41    41    42    1
    42    34    38    1
    43    35    39    1
    44    36    40    1
    45    42    43    1
@<TRIPOS>MOLECULE
GDU
 43 45 0 0 0
SMALL
GASTEIGER

@<TRIPOS>ATOM
      1 P          20.7959   70.3430   -2.5758 P.3     1  UNL1        0.2189
      2 O          22.2202   70.3936   -2.9738 O.2     1  UNL1       -0.5170
      3 O          20.0140   69.2923   -3.5126 O.3     1  UNL1       -0.4371
      4 O          20.6836   69.8794   -1.0398 O.3     1  UNL1       -0.3112
      5 C          21.7748   70.4843   -0.3442 C.3     1  UNL1        0.1811
      6 C          21.5288   73.5020    1.5950 C.3     1  UNL1        0.2383
      7 C          22.9670   73.5270    1.0172 C.3     1  UNL1        0.1895
      8 O          23.4084   74.8700    0.8058 O.3     1  UNL1       -0.3779
      9 C          22.7878   72.7847   -0.3326 C.3     1  UNL1        0.1713
     10 C          21.4917   71.9744   -0.1450 C.3     1  UNL1        0.1764
     11 O          21.0278   72.2084    1.1960 O.3     1  UNL1       -0.3308
     12 O          22.6498   73.7210   -1.4032 O.3     1  UNL1       -0.3794
     13 H          24.3054   74.8156    0.4476 H       1  UNL1        0.2106
     14 H          23.4673   74.2363   -1.4317 H       1  UNL1        0.2105
     15 N          21.5546   73.6176    3.0540 N.ar    1  UNL1       -0.2551
     16 C          22.0060   72.5912    3.7964 C.ar    1  UNL1        0.3323
     17 N          22.0435   72.6730    5.1394 N.ar    1  UNL1       -0.2743
     18 C          21.6177   73.7873    5.7649 C.ar    1  UNL1        0.2626
     19 C          21.1342   74.8743    4.9961 C.ar    1  UNL1        0.0795
     20 C          21.1115   74.7673    3.6506 C.ar    1  UNL1        0.0869
     21 O          22.3939   71.5797    3.2463 O.2     1  UNL1       -0.2464
     22 O          21.6468   73.8605    6.9807 O.2     1  UNL1       -0.2670
     23 H          22.3764   71.9242    5.6592 H       1  UNL1        0.1734
     24 O          20.1399   71.8035   -2.7462 O.3     1  UNL1       -0.2703
     25 P          20.6637   72.3894   -4.1506 P.3     1  UNL1        0.2208
     26 O          21.0462   73.8085   -3.9809 O.2     1  UNL1       -0.5170
     27 O          21.9441   71.5439   -4.6404 O.3     1  UNL1       -0.4371
     28 O          19.4944   72.2755   -5.2505 O.3     1  UNL1       -0.2858
     29 C          20.0403   71.5684   -6.3648 C.3     1  UNL1        0.2704
     30 C          20.3391   72.5535   -7.4961 C.3     1  UNL1        0.1967
     31 C          19.0427   73.2674   -7.8910 C.3     1  UNL1        0.1715
     32 C          17.9791   72.2108   -8.2101 C.3     1  UNL1        0.1694
     33 C          17.8578   71.2522   -7.0230 C.3     1  UNL1        0.1761
     34 O          21.3002   73.5135   -7.0533 O.3     1  UNL1       -0.3775
     35 O          19.2746   74.0818   -9.0423 O.3     1  UNL1       -0.3794
     36 O          18.3621   71.4852   -9.3792 O.3     1  UNL1       -0.3794
     37 O          19.1036   70.5900   -6.8097 O.3     1  UNL1       -0.3258
     38 H          22.0951   73.0202   -6.8089 H       1  UNL1        0.2106
     39 H          19.9562   74.7213   -8.8000 H       1  UNL1        0.2105
     40 H          18.4317   72.1277  -10.0972 H       1  UNL1        0.2105
     41 C          16.7736   70.2131   -7.3174 C.3     1  UNL1        0.1693
     42 O          16.3668   69.5915   -6.0971 O.3     1  UNL1       -0.3794
     43 H          15.6841   68.9458   -6.3259 H       1  UNL1        0.2105
@<TRIPOS>BOND
     1    15    16   ar
     2    15    20   ar
     3    15     6    1
     4    16    17   ar
     5    16    21    2
     6    17    18   ar
     7    17    23    1
     8    18    19   ar
     9    18    22    2
    10    19    20   ar
    11     6     7    1
    12     6    11    1
    13     7     8    1
    14     7     9    1
    15     8    13    1
    16     9    10    1
    17     9    12    1
    18    10    11    1
    19    10     5    1
    20    12    14    1
    21     5     4    1
    22     4     1    1
    23     1     2    2
    24     1     3    1
    25     1    24    1
    26    24    25    1
    27    25    26    2
    28    25    27    1
    29    25    28    1
    30    28    29    1
    31    29    30    1
    32    29    37    1
    33    30    31    1
    34    30    34    1
    35    31    32    1
    36    31    35    1
    37    32    33    1
    38    32    36    1
    39    33    41    1
    40    33    37    1
    41    41    42    1
    42    34    38    1
    43    35    39    1
    44    36    40    1
    45    42    43    1
@<TRIPOS>MOLECULE
GDU
 43 45 0 0 0
SMALL
GASTEIGER

@<TRIPOS>ATOM
      1 P          22.8465   72.1026   -3.2151 P.3     1  UNL1        0.2189
      2 O          23.2459   70.6807   -3.1249 O.2     1  UNL1       -0.5170
      3 O          23.6390   72.8066   -4.4273 O.3     1  UNL1       -0.4371
      4 O          21.2633   72.1999   -3.4808 O.3     1  UNL1       -0.3112
      5 C          20.8151   70.8812   -3.7982 C.3     1  UNL1        0.1811
      6 C          17.3254   71.1701   -4.6141 C.3     1  UNL1        0.2383
      7 C          17.6911   69.7089   -4.9807 C.3     1  UNL1        0.1895
      8 O          16.5665   68.8434   -4.8089 O.3     1  UNL1       -0.3779
      9 C          18.8022   69.3835   -3.9489 C.3     1  UNL1        0.1713
     10 C          19.3180   70.7653   -3.5060 C.3     1  UNL1        0.1764
     11 O          18.5955   71.7559   -4.2575 O.3     1  UNL1       -0.3308
     12 O          18.2589   68.6656   -2.8392 O.3     1  UNL1       -0.3794
     13 H          16.8593   67.9542   -5.0527 H       1  UNL1        0.2106
     14 H          17.9001   67.8388   -3.1891 H       1  UNL1        0.2105
     15 N          16.7429   71.8625   -5.7648 N.ar    1  UNL1       -0.2551
     16 C          17.0226   71.4384   -7.0099 C.ar    1  UNL1        0.3323
     17 N          16.4972   72.0552   -8.0848 N.ar    1  UNL1       -0.2743
     18 C          15.6862   73.1193   -7.9294 C.ar    1  UNL1        0.2626
     19 C          15.3875   73.5807   -6.6240 C.ar    1  UNL1        0.0795
     20 C          15.9244   72.9411   -5.5632 C.ar    1  UNL1        0.0869
     21 O          17.7521   70.4795   -7.1659 O.2     1  UNL1       -0.2464
     22 O          15.2141   73.6812   -8.9019 O.2     1  UNL1       -0.2670
     23 H          16.7064   71.7330   -8.9760 H       1  UNL1        0.1734
     24 O          23.2073   72.8490   -1.8348 O.3     1  UNL1       -0.2703
     25 P          22.4508   72.0497   -0.6606 P.3     1  UNL1        0.2208
     26 O          20.9901   72.2431   -0.7941 O.2     1  UNL1       -0.5170
     27 O          22.7961   70.4804   -0.7712 O.3     1  UNL1       -0.4371
     28 O          22.9383   72.6056    0.7689 O.3     1  UNL1       -0.2858
     29 C          21.9944   73.5989    1.1716 C.3     1  UNL1        0.2704
     30 C          22.6725   74.9699    1.1848 C.3     1  UNL1        0.1967
     31 C          23.8604   74.9293    2.1510 C.3     1  UNL1        0.1715
     32 C          23.3664   74.4328    3.5145 C.3     1  UNL1        0.1694
     33 C          22.6370   73.1005    3.3246 C.3     1  UNL1        0.1761
     34 O          23.1332   75.2886   -0.1294 O.3     1  UNL1       -0.3775
     35 O          24.4141   76.2398    2.2864 O.3     1  UNL1       -0.3794
     36 O          22.4747   75.3951    4.0790 O.3     1  UNL1       -0.3794
     37 O          21.5064   73.2877    2.4745 O.3     1  UNL1       -0.3258
     38 H          22.3552   75.2961   -0.7036 H       1  UNL1        0.2106
     39 H          24.6995   76.5154    1.4061 H       1  UNL1        0.2105
     40 H          22.9737   76.2167    4.1748 H       1  UNL1        0.2105
     41 C          22.1692   72.5787    4.6851 C.3     1  UNL1        0.1693
     42 O          20.8885   73.1323    4.9919 O.3     1  UNL1       -0.3794
     43 H          20.6301   72.7788    5.8543 H       1  UNL1        0.2105
@<TRIPOS>BOND
     1    15    16   ar
     2    15    20   ar
     3    15     6    1
     4    16    17   ar
     5    16    21    2
     6    17    18   ar
     7    17    23    1
     8    18    19   ar
     9    18    22    2
    10    19    20   ar
    11     6     7    1
    12     6    11    1
    13     7     8    1
    14     7     9    1
    15     8    13    1
    16     9    10    1
    17     9    12    1
    18    10    11    1
    19    10     5    1
    20    12    14    1
    21     5     4    1
    22     4     1    1
    23     1     2    2
    24     1     3    1
    25     1    24    1
    26    24    25    1
    27    25    26    2
    28    25    27    1
    29    25    28    1
    30    28    29    1
    31    29    30    1
    32    29    37    1
    33    30    31    1
    34    30    34    1
    35    31    32    1
    36    31    35    1
    37    32    33    1
    38    32    36    1
    39    33    41    1
    40    33    37    1
    41    41    42    1
    42    34    38    1
    43    35    39    1
    44    36    40    1
    45    42    43    1
@<TRIPOS>MOLECULE
GDU
 43 45 0 0 0
SMALL
GASTEIGER

@<TRIPOS>ATOM
      1 P          22.4702   74.9429   -8.2548 P.3     1  UNL1        0.2189
      2 O          23.5732   74.0265   -8.6196 O.2     1  UNL1       -0.5170
      3 O          22.4872   76.2201   -9.2353 O.3     1  UNL1       -0.4371
      4 O          21.0643   74.1749   -8.3982 O.3     1  UNL1       -0.3112
      5 C          21.2853   73.0670   -9.2723 C.3     1  UNL1        0.1811
      6 C          18.5563   71.1770   -7.8910 C.3     1  UNL1        0.2383
      7 C          17.9931   72.6121   -8.0531 C.3     1  UNL1        0.1895
      8 O          16.5877   72.5820   -8.3122 O.3     1  UNL1       -0.3779
      9 C          18.7726   73.1293   -9.2900 C.3     1  UNL1        0.1713
     10 C          20.0140   72.2204   -9.3570 C.3     1  UNL1        0.1764
     11 O          19.9504   71.3213   -8.2364 O.3     1  UNL1       -0.3308
     12 O          17.9809   72.9940  -10.4719 O.3     1  UNL1       -0.3794
     13 H          16.3009   73.5016   -8.4020 H       1  UNL1        0.2106
     14 H          17.1923   73.5387  -10.3447 H       1  UNL1        0.2105
     15 N          18.4123   70.7171   -6.5087 N.ar    1  UNL1       -0.2551
     16 C          17.2603   70.1481   -6.1119 C.ar    1  UNL1        0.3323
     17 N          17.1033   69.7136   -4.8476 N.ar    1  UNL1       -0.2743
     18 C          18.1002   69.8517   -3.9524 C.ar    1  UNL1        0.2626
     19 C          19.3172   70.4545   -4.3547 C.ar    1  UNL1        0.0795
     20 C          19.4496   70.8776   -5.6298 C.ar    1  UNL1        0.0869
     21 O          16.3524   70.0163   -6.9083 O.2     1  UNL1       -0.2464
     22 O          17.9573   69.4630   -2.8065 O.2     1  UNL1       -0.2670
     23 H          16.2667   69.3014   -4.5796 H       1  UNL1        0.1734
     24 O          22.6624   75.4335   -6.7333 O.3     1  UNL1       -0.2703
     25 P          22.0319   74.2910   -5.7914 P.3     1  UNL1        0.2208
     26 O          20.5701   74.2234   -6.0095 O.2     1  UNL1       -0.5170
     27 O          22.6947   72.8691   -6.1560 O.3     1  UNL1       -0.4371
     28 O          22.3297   74.6408   -4.2490 O.3     1  UNL1       -0.2858
     29 C          23.4938   73.9034   -3.8736 C.3     1  UNL1        0.2704
     30 C          23.3454   73.4175   -2.4309 C.3     1  UNL1        0.1967
     31 C          23.1538   74.6294   -1.5139 C.3     1  UNL1        0.1715
     32 C          24.3038   75.6136   -1.7557 C.3     1  UNL1        0.1694
     33 C          24.3782   75.9346   -3.2505 C.3     1  UNL1        0.1761
     34 O          22.2106   72.5553   -2.3306 O.3     1  UNL1       -0.3775
     35 O          23.1609   74.2048   -0.1493 O.3     1  UNL1       -0.3794
     36 O          25.5331   75.0268   -1.3263 O.3     1  UNL1       -0.3794
     37 O          24.6419   74.7411   -3.9866 O.3     1  UNL1       -0.3258
     38 H          22.3710   71.8123   -2.9281 H       1  UNL1        0.2106
     39 H          22.4315   73.5805   -0.0466 H       1  UNL1        0.2105
     40 H          25.4384   74.8367   -0.3838 H       1  UNL1        0.2105
     41 C          25.5019   76.9435   -3.4983 C.3     1  UNL1        0.1693
     42 O          25.6348   77.7964   -2.3600 O.3     1  UNL1       -0.3794
     43 H          26.3518   78.4151   -2.5560 H       1  UNL1        0.2105
@<TRIPOS>BOND
     1    15    16   ar
     2    15    20   ar
     3    15     6    1
     4    16    17   ar
     5    16    21    2
     6    17    18   ar
     7    17    23    1
     8    18    19   ar
     9    18    22    2
    10    19    20   ar
    11     6     7    1
    12     6    11    1
    13     7     8    1
    14     7     9    1
    15     8    13    1
    16     9    10    1
    17     9    12    1
    18    10    11    1
    19    10     5    1
    20    12    14    1
    21     5     4    1
    22     4     1    1
    23     1     2    2
    24     1     3    1
    25     1    24    1
    26    24    25    1
    27    25    26    2
    28    25    27    1
    29    25    28    1
    30    28    29    1
    31    29    30    1
    32    29    37    1
    33    30    31    1
    34    30    34    1
    35    31    32    1
    36    31    35    1
    37    32    33    1
    38    32    36    1
    39    33    41    1
    40    33    37    1
    41    41    42    1
    42    34    38    1
    43    35    39    1
    44    36    40    1
    45    42    43    1
@<TRIPOS>MOLECULE
GDU
 43 45 0 0 0
SMALL
GASTEIGER

@<TRIPOS>ATOM
      1 P          22.0823   73.9826   -7.1173 P.3     1  UNL1        0.2189
      2 O          22.7867   72.6859   -7.2275 O.2     1  UNL1       -0.5170
      3 O          23.1589   75.1801   -7.1222 O.3     1  UNL1       -0.4371
      4 O          21.0801   74.1569   -8.3632 O.3     1  UNL1       -0.3112
      5 C          21.2952   73.0395   -9.2267 C.3     1  UNL1        0.1811
      6 C          18.5445   71.1823   -7.8439 C.3     1  UNL1        0.2383
      7 C          17.9950   72.6216   -8.0156 C.3     1  UNL1        0.1895
      8 O          16.5902   72.6031   -8.2792 O.3     1  UNL1       -0.3779
      9 C          18.7833   73.1248   -9.2529 C.3     1  UNL1        0.1713
     10 C          20.0164   72.2041   -9.3108 C.3     1  UNL1        0.1764
     11 O          19.9409   71.3118   -8.1856 O.3     1  UNL1       -0.3308
     12 O          17.9941   72.9904  -10.4366 O.3     1  UNL1       -0.3794
     13 H          16.3123   73.5247   -8.3749 H       1  UNL1        0.2106
     14 H          17.2102   73.5430  -10.3148 H       1  UNL1        0.2105
     15 N          18.3918   70.7313   -6.4597 N.ar    1  UNL1       -0.2551
     16 C          17.2494   70.1357   -6.0745 C.ar    1  UNL1        0.3323
     17 N          17.0848   69.7087   -4.8087 N.ar    1  UNL1       -0.2743
     18 C          18.0641   69.8812   -3.9001 C.ar    1  UNL1        0.2626
     19 C          19.2708   70.5121   -4.2901 C.ar    1  UNL1        0.0795
     20 C          19.4112   70.9270   -5.5671 C.ar    1  UNL1        0.0869
     21 O          16.3572   69.9728   -6.8830 O.2     1  UNL1       -0.2464
     22 O          17.9143   69.4992   -2.7529 O.2     1  UNL1       -0.2670
     23 H          16.2553   69.2770   -4.5492 H       1  UNL1        0.1734
     24 O          21.2442   74.0219   -5.7431 O.3     1  UNL1       -0.2703
     25 P          22.2998   73.8118   -4.5466 P.3     1  UNL1        0.2208
     26 O          23.2907   72.7850   -4.9379 O.2     1  UNL1       -0.5170
     27 O          23.0571   75.2018   -4.2491 O.3     1  UNL1       -0.4371
     28 O          21.5224   73.3314   -3.2219 O.3     1  UNL1       -0.2858
     29 C          21.4651   74.4561   -2.3435 C.3     1  UNL1        0.2704
     30 C          21.8011   74.0082   -0.9202 C.3     1  UNL1        0.1967
     31 C          20.8008   72.9321   -0.4869 C.3     1  UNL1        0.1715
     32 C          19.3810   73.4761   -0.6815 C.3     1  UNL1        0.1694
     33 C          19.2279   73.9628   -2.1247 C.3     1  UNL1        0.1761
     34 O          23.1257   73.4738   -0.8867 O.3     1  UNL1       -0.3775
     35 O          21.0093   72.6090    0.8895 O.3     1  UNL1       -0.3794
     36 O          19.1572   74.5610    0.2201 O.3     1  UNL1       -0.3794
     37 O          20.1551   75.0174   -2.3778 O.3     1  UNL1       -0.3258
     38 H          23.7193   74.1813   -1.1729 H       1  UNL1        0.2106
     39 H          21.9151   72.2837    0.9665 H       1  UNL1        0.2105
     40 H          19.2694   74.2103    1.1132 H       1  UNL1        0.2105
     41 C          17.8025   74.4767   -2.3393 C.3     1  UNL1        0.1693
     42 O          16.9034   73.7492   -1.5005 O.3     1  UNL1       -0.3794
     43 H          16.0186   74.1032   -1.6651 H       1  UNL1        0.2105
@<TRIPOS>BOND
     1    15    16   ar
     2    15    20   ar
     3    15     6    1
     4    16    17   ar
     5    16    21    2
     6    17    18   ar
     7    17    23    1
     8    18    19   ar
     9    18    22    2
    10    19    20   ar
    11     6     7    1
    12     6    11    1
    13     7     8    1
    14     7     9    1
    15     8    13    1
    16     9    10    1
    17     9    12    1
    18    10    11    1
    19    10     5    1
    20    12    14    1
    21     5     4    1
    22     4     1    1
    23     1     2    2
    24     1     3    1
    25     1    24    1
    26    24    25    1
    27    25    26    2
    28    25    27    1
    29    25    28    1
    30    28    29    1
    31    29    30    1
    32    29    37    1
    33    30    31    1
    34    30    34    1
    35    31    32    1
    36    31    35    1
    37    32    33    1
    38    32    36    1
    39    33    41    1
    40    33    37    1
    41    41    42    1
    42    34    38    1
    43    35    39    1
    44    36    40    1
    45    42    43    1
@<TRIPOS>MOLECULE
GDU
 43 45 0 0 0
SMALL
GASTEIGER

@<TRIPOS>ATOM
      1 P          18.2446   70.0140   -3.4031 P.3     1  UNL1        0.2189
      2 O          18.6500   69.1350   -2.2838 O.2     1  UNL1       -0.5170
      3 O          17.0468   70.9768   -2.9224 O.3     1  UNL1       -0.4371
      4 O          19.4991   70.9080   -3.8654 O.3     1  UNL1       -0.3112
      5 C          19.6444   71.9488   -2.8979 C.3     1  UNL1        0.1811
      6 C          22.4495   72.3665   -0.6879 C.3     1  UNL1        0.2383
      7 C          22.3797   70.8392   -0.9437 C.3     1  UNL1        0.1895
      8 O          23.6820   70.2525   -0.8866 O.3     1  UNL1       -0.3779
      9 C          21.8077   70.7768   -2.3839 C.3     1  UNL1        0.1713
     10 C          21.1270   72.1448   -2.5758 C.3     1  UNL1        0.1764
     11 O          21.2670   72.8722   -1.3431 O.3     1  UNL1       -0.3308
     12 O          22.8611   70.5972   -3.3325 O.3     1  UNL1       -0.3794
     13 H          23.5691   69.3063   -1.0529 H       1  UNL1        0.2106
     14 H          23.2852   69.7538   -3.1239 H       1  UNL1        0.2105
     15 N          22.4070   72.6538    0.7468 N.ar    1  UNL1       -0.2551
     16 C          21.8881   71.7471    1.5935 C.ar    1  UNL1        0.3323
     17 N          21.8403   71.9851    2.9174 N.ar    1  UNL1       -0.2743
     18 C          22.3055   73.1463    3.4168 C.ar    1  UNL1        0.2626
     19 C          22.8496   74.1132    2.5363 C.ar    1  UNL1        0.0795
     20 C          22.8892   73.8471    1.2133 C.ar    1  UNL1        0.0869
     21 O          21.4651   70.6948    1.1578 O.2     1  UNL1       -0.2464
     22 O          22.2583   73.3646    4.6145 O.2     1  UNL1       -0.2670
     23 H          21.4663   71.3176    3.5144 H       1  UNL1        0.1734
     24 O          17.7429   69.1114   -4.6384 O.3     1  UNL1       -0.2703
     25 P          17.1394   70.1195   -5.7381 P.3     1  UNL1        0.2208
     26 O          16.1702   69.3964   -6.5907 O.2     1  UNL1       -0.5170
     27 O          16.3946   71.3396   -4.9958 O.3     1  UNL1       -0.4371
     28 O          18.3326   70.6965   -6.6509 O.3     1  UNL1       -0.2858
     29 C          17.9466   70.4994   -8.0117 C.3     1  UNL1        0.2704
     30 C          19.1766   70.6211   -8.9127 C.3     1  UNL1        0.1967
     31 C          19.7986   72.0080   -8.7224 C.3     1  UNL1        0.1715
     32 C          18.7145   73.0670   -8.9520 C.3     1  UNL1        0.1694
     33 C          17.5195   72.7606   -8.0459 C.3     1  UNL1        0.1761
     34 O          20.1287   69.6155   -8.5613 O.3     1  UNL1       -0.3775
     35 O          20.8593   72.1915   -9.6626 O.3     1  UNL1       -0.3794
     36 O          18.3027   73.0406  -10.3194 O.3     1  UNL1       -0.3794
     37 O          16.9800   71.4818   -8.3768 O.3     1  UNL1       -0.3258
     38 H          19.6929   68.7619   -8.6890 H       1  UNL1        0.2106
     39 H          21.5096   71.4991   -9.4894 H       1  UNL1        0.2105
     40 H          19.0859   73.2325  -10.8513 H       1  UNL1        0.2105
     41 C          16.4447   73.8321   -8.2424 C.3     1  UNL1        0.1693
     42 O          15.4655   73.3591   -9.1690 O.3     1  UNL1       -0.3794
     43 H          14.8078   74.0617   -9.2641 H       1  UNL1        0.2105
@<TRIPOS>BOND
     1    15    16   ar
     2    15    20   ar
     3    15     6    1
     4    16    17   ar
     5    16    21    2
     6    17    18   ar
     7    17    23    1
     8    18    19   ar
     9    18    22    2
    10    19    20   ar
    11     6     7    1
    12     6    11    1
    13     7     8    1
    14     7     9    1
    15     8    13    1
    16     9    10    1
    17     9    12    1
    18    10    11    1
    19    10     5    1
    20    12    14    1
    21     5     4    1
    22     4     1    1
    23     1     2    2
    24     1     3    1
    25     1    24    1
    26    24    25    1
    27    25    26    2
    28    25    27    1
    29    25    28    1
    30    28    29    1
    31    29    30    1
    32    29    37    1
    33    30    31    1
    34    30    34    1
    35    31    32    1
    36    31    35    1
    37    32    33    1
    38    32    36    1
    39    33    41    1
    40    33    37    1
    41    41    42    1
    42    34    38    1
    43    35    39    1
    44    36    40    1
    45    42    43    1
@<TRIPOS>MOLECULE
GDU
 43 45 0 0 0
SMALL
GASTEIGER

@<TRIPOS>ATOM
      1 P          23.2270   74.1693   -4.0093 P.3     1  UNL1        0.2189
      2 O          23.6856   72.7699   -4.1540 O.2     1  UNL1       -0.5170
      3 O          22.9954   74.4995   -2.4504 O.3     1  UNL1       -0.4371
      4 O          24.3398   75.1638   -4.6088 O.3     1  UNL1       -0.3112
      5 C          24.9061   75.8668   -3.5017 C.3     1  UNL1        0.1811
      6 C          28.3018   74.7747   -3.9533 C.3     1  UNL1        0.2383
      7 C          28.4260   76.1536   -3.2561 C.3     1  UNL1        0.1895
      8 O          29.5929   76.2051   -2.4322 O.3     1  UNL1       -0.3779
      9 C          27.1377   76.1989   -2.3938 C.3     1  UNL1        0.1713
     10 C          26.2010   75.1783   -3.0666 C.3     1  UNL1        0.1764
     11 O          26.8877   74.6570   -4.2177 O.3     1  UNL1       -0.3308
     12 O          27.4237   75.8140   -1.0477 O.3     1  UNL1       -0.3794
     13 H          29.6114   77.0846   -2.0296 H       1  UNL1        0.2106
     14 H          28.0585   76.4559   -0.7018 H       1  UNL1        0.2105
     15 N          29.0635   74.7558   -5.2032 N.ar    1  UNL1       -0.2551
     16 C          30.3012   74.2306   -5.2220 C.ar    1  UNL1        0.3323
     17 N          31.0213   74.1977   -6.3588 N.ar    1  UNL1       -0.2743
     18 C          30.5140   74.7025   -7.4999 C.ar    1  UNL1        0.2626
     19 C          29.2138   75.2642   -7.4938 C.ar    1  UNL1        0.0795
     20 C          28.5116   75.2805   -6.3409 C.ar    1  UNL1        0.0869
     21 O          30.7720   73.7710   -4.2006 O.2     1  UNL1       -0.2464
     22 O          31.1670   74.6775   -8.5283 O.2     1  UNL1       -0.2670
     23 H          31.9114   73.8110   -6.3550 H       1  UNL1        0.1734
     24 O          21.8435   74.3652   -4.8092 O.3     1  UNL1       -0.2703
     25 P          21.5976   73.0171   -5.6532 P.3     1  UNL1        0.2208
     26 O          22.7565   72.7721   -6.5397 O.2     1  UNL1       -0.5170
     27 O          21.4241   71.7755   -4.6421 O.3     1  UNL1       -0.4371
     28 O          20.2649   73.1744   -6.5416 O.3     1  UNL1       -0.2858
     29 C          19.7178   71.8653   -6.7043 C.3     1  UNL1        0.2704
     30 C          19.6617   71.5183   -8.1929 C.3     1  UNL1        0.1967
     31 C          18.7998   72.5584   -8.9152 C.3     1  UNL1        0.1715
     32 C          17.4397   72.6406   -8.2129 C.3     1  UNL1        0.1694
     33 C          17.6645   72.9046   -6.7220 C.3     1  UNL1        0.1761
     34 O          20.9828   71.5285   -8.7368 O.3     1  UNL1       -0.3775
     35 O          18.6165   72.1676  -10.2776 O.3     1  UNL1       -0.3794
     36 O          16.7381   71.4084   -8.3844 O.3     1  UNL1       -0.3794
     37 O          18.4053   71.8282   -6.1489 O.3     1  UNL1       -0.3258
     38 H          21.4905   70.8658   -8.2489 H       1  UNL1        0.2106
     39 H          19.4951   72.1172  -10.6749 H       1  UNL1        0.2105
     40 H          16.6246   71.2810   -9.3353 H       1  UNL1        0.2105
     41 C          16.3113   73.0227   -6.0170 C.3     1  UNL1        0.1693
     42 O          15.9077   71.7364   -5.5442 O.3     1  UNL1       -0.3794
     43 H          15.0533   71.8544   -5.1068 H       1  UNL1        0.2105
@<TRIPOS>BOND
     1    15    16   ar
     2    15    20   ar
     3    15     6    1
     4    16    17   ar
     5    16    21    2
     6    17    18   ar
     7    17    23    1
     8    18    19   ar
     9    18    22    2
    10    19    20   ar
    11     6     7    1
    12     6    11    1
    13     7     8    1
    14     7     9    1
    15     8    13    1
    16     9    10    1
    17     9    12    1
    18    10    11    1
    19    10     5    1
    20    12    14    1
    21     5     4    1
    22     4     1    1
    23     1     2    2
    24     1     3    1
    25     1    24    1
    26    24    25    1
    27    25    26    2
    28    25    27    1
    29    25    28    1
    30    28    29    1
    31    29    30    1
    32    29    37    1
    33    30    31    1
    34    30    34    1
    35    31    32    1
    36    31    35    1
    37    32    33    1
    38    32    36    1
    39    33    41    1
    40    33    37    1
    41    41    42    1
    42    34    38    1
    43    35    39    1
    44    36    40    1
    45    42    43    1
@<TRIPOS>MOLECULE
GDU
 43 45 0 0 0
SMALL
GASTEIGER

@<TRIPOS>ATOM
      1 P          20.7542   70.3902   -2.6108 P.3     1  UNL1        0.2189
      2 O          19.9571   69.1853   -2.2907 O.2     1  UNL1       -0.5170
      3 O          22.2769   69.9617   -2.9122 O.3     1  UNL1       -0.4371
      4 O          20.1346   71.1156   -3.9057 O.3     1  UNL1       -0.3112
      5 C          18.7138   71.0163   -3.7954 C.3     1  UNL1        0.1811
      6 C          18.6898   72.9194   -6.8458 C.3     1  UNL1        0.2383
      7 C          18.2887   71.4858   -7.2784 C.3     1  UNL1        0.1895
      8 O          17.4144   71.5201   -8.4087 O.3     1  UNL1       -0.3779
      9 C          17.5468   70.9627   -6.0209 C.3     1  UNL1        0.1713
     10 C          18.0554   71.8671   -4.8830 C.3     1  UNL1        0.1764
     11 O          19.0217   72.7694   -5.4491 O.3     1  UNL1       -0.3308
     12 O          16.1335   71.0975   -6.1825 O.3     1  UNL1       -0.3794
     13 H          17.2039   70.6013   -8.6264 H       1  UNL1        0.2106
     14 H          15.8857   70.5560   -6.9441 H       1  UNL1        0.2105
     15 N          19.8520   73.3834   -7.6052 N.ar    1  UNL1       -0.2551
     16 C          20.6961   72.4874   -8.1463 C.ar    1  UNL1        0.3323
     17 N          21.7702   72.8876   -8.8521 N.ar    1  UNL1       -0.2743
     18 C          22.0231   74.1999   -9.0199 C.ar    1  UNL1        0.2626
     19 C          21.1457   75.1552   -8.4507 C.ar    1  UNL1        0.0795
     20 C          20.0736   74.7264   -7.7512 C.ar    1  UNL1        0.0869
     21 O          20.4808   71.3002   -8.0038 O.2     1  UNL1       -0.2464
     22 O          22.9976   74.5632   -9.6545 O.2     1  UNL1       -0.2670
     23 H          22.3665   72.2271   -9.2393 H       1  UNL1        0.1734
     24 O          20.7208   71.4027   -1.3594 O.3     1  UNL1       -0.2703
     25 P          21.8950   70.9459   -0.3581 P.3     1  UNL1        0.2208
     26 O          21.4150   69.8319    0.4890 O.2     1  UNL1       -0.5170
     27 O          23.1698   70.4585   -1.2133 O.3     1  UNL1       -0.4371
     28 O          22.3189   72.1868    0.5750 O.3     1  UNL1       -0.2858
     29 C          21.1213   72.6844    1.1732 C.3     1  UNL1        0.2704
     30 C          20.8581   74.1074    0.6780 C.3     1  UNL1        0.1967
     31 C          22.0537   74.9920    1.0446 C.3     1  UNL1        0.1715
     32 C          22.3156   74.8629    2.5494 C.3     1  UNL1        0.1694
     33 C          22.4704   73.3816    2.9024 C.3     1  UNL1        0.1761
     34 O          20.6858   74.0964   -0.7402 O.3     1  UNL1       -0.3775
     35 O          21.7612   76.3529    0.7207 O.3     1  UNL1       -0.3794
     36 O          21.2186   75.4199    3.2748 O.3     1  UNL1       -0.3794
     37 O          21.2650   72.6842    2.5916 O.3     1  UNL1       -0.3258
     38 H          19.9293   73.5234   -0.9250 H       1  UNL1        0.2106
     39 H          21.5921   76.3843   -0.2294 H       1  UNL1        0.2105
     40 H          21.1556   76.3489    3.0174 H       1  UNL1        0.2105
     41 C          22.7665   73.2436    4.3975 C.3     1  UNL1        0.1693
     42 O          21.9333   72.2260    4.9553 O.3     1  UNL1       -0.3794
     43 H          22.1511   72.1703    5.8959 H       1  UNL1        0.2105
@<TRIPOS>BOND
     1    15    16   ar
     2    15    20   ar
     3    15     6    1
     4    16    17   ar
     5    16    21    2
     6    17    18   ar
     7    17    23    1
     8    18    19   ar
     9    18    22    2
    10    19    20   ar
    11     6     7    1
    12     6    11    1
    13     7     8    1
    14     7     9    1
    15     8    13    1
    16     9    10    1
    17     9    12    1
    18    10    11    1
    19    10     5    1
    20    12    14    1
    21     5     4    1
    22     4     1    1
    23     1     2    2
    24     1     3    1
    25     1    24    1
    26    24    25    1
    27    25    26    2
    28    25    27    1
    29    25    28    1
    30    28    29    1
    31    29    30    1
    32    29    37    1
    33    30    31    1
    34    30    34    1
    35    31    32    1
    36    31    35    1
    37    32    33    1
    38    32    36    1
    39    33    41    1
    40    33    37    1
    41    41    42    1
    42    34    38    1
    43    35    39    1
    44    36    40    1
    45    42    43    1
@<TRIPOS>MOLECULE
GDU
 43 45 0 0 0
SMALL
GASTEIGER

@<TRIPOS>ATOM
      1 P          21.9695   70.8987   -2.9308 P.3     1  UNL1        0.2189
      2 O          23.3862   70.7253   -3.3213 O.2     1  UNL1       -0.5170
      3 O          21.4331   69.5453   -2.2426 O.3     1  UNL1       -0.4371
      4 O          21.8450   72.1168   -1.8880 O.3     1  UNL1       -0.3112
      5 C          21.9140   73.3228   -2.6504 C.3     1  UNL1        0.1811
      6 C          22.5910   74.8390    0.5387 C.3     1  UNL1        0.2383
      7 C          23.9910   74.5877   -0.0777 C.3     1  UNL1        0.1895
      8 O          24.9267   75.5744    0.3627 O.3     1  UNL1       -0.3779
      9 C          23.7082   74.7321   -1.5958 C.3     1  UNL1        0.1713
     10 C          22.1902   74.5031   -1.7172 C.3     1  UNL1        0.1764
     11 O          21.6920   74.2113   -0.4001 O.3     1  UNL1       -0.3308
     12 O          24.0611   76.0411   -2.0473 O.3     1  UNL1       -0.3794
     13 H          25.7732   75.3618   -0.0544 H       1  UNL1        0.2106
     14 H          25.0095   76.1452   -1.8909 H       1  UNL1        0.2105
     15 N          22.4841   74.2087    1.8555 N.ar    1  UNL1       -0.2551
     16 C          22.7453   74.9271    2.9619 C.ar    1  UNL1        0.3323
     17 N          22.6510   74.3725    4.1848 N.ar    1  UNL1       -0.2743
     18 C          22.3011   73.0788    4.3196 C.ar    1  UNL1        0.2626
     19 C          22.0286   72.3083    3.1627 C.ar    1  UNL1        0.0795
     20 C          22.1266   72.8905    1.9487 C.ar    1  UNL1        0.0869
     21 O          23.0617   76.0953    2.8561 O.2     1  UNL1       -0.2464
     22 O          22.2201   72.5747    5.4258 O.2     1  UNL1       -0.2670
     23 H          22.8390   74.9070    4.9726 H       1  UNL1        0.1734
     24 O          21.0884   71.2190   -4.2399 O.3     1  UNL1       -0.2703
     25 P          19.6775   70.4691   -4.0477 P.3     1  UNL1        0.2208
     26 O          19.9155   69.0402   -3.7467 O.2     1  UNL1       -0.5170
     27 O          18.8715   71.1467   -2.8288 O.3     1  UNL1       -0.4371
     28 O          18.8121   70.5971   -5.3985 O.3     1  UNL1       -0.2858
     29 C          19.2004   71.8200   -6.0258 C.3     1  UNL1        0.2704
     30 C          17.9730   72.7163   -6.1975 C.3     1  UNL1        0.1967
     31 C          16.9324   71.9795   -7.0465 C.3     1  UNL1        0.1715
     32 C          17.5968   71.5262   -8.3514 C.3     1  UNL1        0.1694
     33 C          18.8526   70.7179   -8.0160 C.3     1  UNL1        0.1761
     34 O          17.4191   73.0200   -4.9160 O.3     1  UNL1       -0.3775
     35 O          15.8431   72.8571   -7.3392 O.3     1  UNL1       -0.3794
     36 O          17.9526   72.6702   -9.1290 O.3     1  UNL1       -0.3794
     37 O          19.7752   71.5371   -7.2994 O.3     1  UNL1       -0.3258
     38 H          18.1091   73.4754   -4.4147 H       1  UNL1        0.2106
     39 H          15.4645   73.1253   -6.4924 H       1  UNL1        0.2105
     40 H          17.1343   73.1505   -9.3110 H       1  UNL1        0.2105
     41 C          19.5050   70.2311   -9.3119 C.3     1  UNL1        0.1693
     42 O          18.5203   70.1666  -10.3449 O.3     1  UNL1       -0.3794
     43 H          18.9712   69.8572  -11.1426 H       1  UNL1        0.2105
@<TRIPOS>BOND
     1    15    16   ar
     2    15    20   ar
     3    15     6    1
     4    16    17   ar
     5    16    21    2
     6    17    18   ar
     7    17    23    1
     8    18    19   ar
     9    18    22    2
    10    19    20   ar
    11     6     7    1
    12     6    11    1
    13     7     8    1
    14     7     9    1
    15     8    13    1
    16     9    10    1
    17     9    12    1
    18    10    11    1
    19    10     5    1
    20    12    14    1
    21     5     4    1
    22     4     1    1
    23     1     2    2
    24     1     3    1
    25     1    24    1
    26    24    25    1
    27    25    26    2
    28    25    27    1
    29    25    28    1
    30    28    29    1
    31    29    30    1
    32    29    37    1
    33    30    31    1
    34    30    34    1
    35    31    32    1
    36    31    35    1
    37    32    33    1
    38    32    36    1
    39    33    41    1
    40    33    37    1
    41    41    42    1
    42    34    38    1
    43    35    39    1
    44    36    40    1
    45    42    43    1
@<TRIPOS>MOLECULE
GDU
 43 45 0 0 0
SMALL
GASTEIGER

@<TRIPOS>ATOM
      1 P          18.1023   70.0161   -3.2534 P.3     1  UNL1        0.2189
      2 O          18.4810   69.0639   -2.1859 O.2     1  UNL1       -0.5170
      3 O          16.9209   70.9736   -2.7239 O.3     1  UNL1       -0.4371
      4 O          19.3784   70.9094   -3.6537 O.3     1  UNL1       -0.3112
      5 C          19.5228   71.9033   -2.6379 C.3     1  UNL1        0.1811
      6 C          22.3356   72.2720   -0.4290 C.3     1  UNL1        0.2383
      7 C          22.2689   70.7515   -0.7235 C.3     1  UNL1        0.1895
      8 O          23.5729   70.1673   -0.6866 O.3     1  UNL1       -0.3779
      9 C          21.6913   70.7245   -2.1626 C.3     1  UNL1        0.1713
     10 C          21.0061   72.0950   -2.3167 C.3     1  UNL1        0.1764
     11 O          21.1491   72.7910   -1.0663 O.3     1  UNL1       -0.3308
     12 O          22.7414   70.5722   -3.1196 O.3     1  UNL1       -0.3794
     13 H          23.4619   69.2252   -0.8766 H       1  UNL1        0.2106
     14 H          23.1685   69.7249   -2.9343 H       1  UNL1        0.2105
     15 N          22.2981   72.5224    1.0128 N.ar    1  UNL1       -0.2551
     16 C          21.9853   71.5222    1.8555 C.ar    1  UNL1        0.3323
     17 N          21.9473   71.7250    3.1856 N.ar    1  UNL1       -0.2743
     18 C          22.2139   72.9427    3.6957 C.ar    1  UNL1        0.2626
     19 C          22.5392   74.0072    2.8197 C.ar    1  UNL1        0.0795
     20 C          22.5744   73.7753    1.4903 C.ar    1  UNL1        0.0869
     21 O          21.7429   70.4181    1.4101 O.2     1  UNL1       -0.2464
     22 O          22.1750   73.1284    4.8992 O.2     1  UNL1       -0.2670
     23 H          21.7238   70.9906    3.7793 H       1  UNL1        0.1734
     24 O          17.5915   69.1991   -4.5434 O.3     1  UNL1       -0.2703
     25 P          17.1250   70.2893   -5.6315 P.3     1  UNL1        0.2208
     26 O          16.1458   69.6759   -6.5556 O.2     1  UNL1       -0.5170
     27 O          16.4424   71.5395   -4.8796 O.3     1  UNL1       -0.4371
     28 O          18.4042   70.7991   -6.4645 O.3     1  UNL1       -0.2858
     29 C          18.2163   72.1950   -6.7006 C.3     1  UNL1        0.2704
     30 C          17.8442   72.4179   -8.1673 C.3     1  UNL1        0.1967
     31 C          18.9633   71.8651   -9.0551 C.3     1  UNL1        0.1715
     32 C          20.2916   72.4921   -8.6166 C.3     1  UNL1        0.1694
     33 C          20.4791   72.2616   -7.1151 C.3     1  UNL1        0.1761
     34 O          16.6208   71.7401   -8.4590 O.3     1  UNL1       -0.3775
     35 O          18.7009   72.1962  -10.4204 O.3     1  UNL1       -0.3794
     36 O          20.2720   73.8936   -8.8911 O.3     1  UNL1       -0.3794
     37 O          19.4213   72.8933   -6.3954 O.3     1  UNL1       -0.3258
     38 H          15.9482   72.1141   -7.8737 H       1  UNL1        0.2106
     39 H          17.8538   71.7928  -10.6483 H       1  UNL1        0.2105
     40 H          20.1465   73.9905   -9.8441 H       1  UNL1        0.2105
     41 C          21.8192   72.8541   -6.6733 C.3     1  UNL1        0.1693
     42 O          22.7670   72.7302   -7.7351 O.3     1  UNL1       -0.3794
     43 H          23.5953   73.1150   -7.4171 H       1  UNL1        0.2105
@<TRIPOS>BOND
     1    15    16   ar
     2    15    20   ar
     3    15     6    1
     4    16    17   ar
     5    16    21    2
     6    17    18   ar
     7    17    23    1
     8    18    19   ar
     9    18    22    2
    10    19    20   ar
    11     6     7    1
    12     6    11    1
    13     7     8    1
    14     7     9    1
    15     8    13    1
    16     9    10    1
    17     9    12    1
    18    10    11    1
    19    10     5    1
    20    12    14    1
    21     5     4    1
    22     4     1    1
    23     1     2    2
    24     1     3    1
    25     1    24    1
    26    24    25    1
    27    25    26    2
    28    25    27    1
    29    25    28    1
    30    28    29    1
    31    29    30    1
    32    29    37    1
    33    30    31    1
    34    30    34    1
    35    31    32    1
    36    31    35    1
    37    32    33    1
    38    32    36    1
    39    33    41    1
    40    33    37    1
    41    41    42    1
    42    34    38    1
    43    35    39    1
    44    36    40    1
    45    42    43    1
@<TRIPOS>MOLECULE
GDU
 43 45 0 0 0
SMALL
GASTEIGER

@<TRIPOS>ATOM
      1 P          22.3714   73.0666   -4.8668 P.3     1  UNL1        0.2189
      2 O          22.8204   71.9463   -4.0107 O.2     1  UNL1       -0.5170
      3 O          20.8723   73.4879   -4.4566 O.3     1  UNL1       -0.4371
      4 O          23.3555   74.3230   -4.6670 O.3     1  UNL1       -0.3112
      5 C          24.1585   74.0413   -3.5197 C.3     1  UNL1        0.1811
      6 C          27.3027   75.6035   -4.2947 C.3     1  UNL1        0.2383
      7 C          26.2804   76.3032   -5.2265 C.3     1  UNL1        0.1895
      8 O          26.6692   77.6539   -5.4871 O.3     1  UNL1       -0.3779
      9 C          24.9824   76.2549   -4.3792 C.3     1  UNL1        0.1713
     10 C          25.2352   75.1179   -3.3718 C.3     1  UNL1        0.1764
     11 O          26.5274   74.5602   -3.6672 O.3     1  UNL1       -0.3308
     12 O          24.7815   77.4970   -3.7018 O.3     1  UNL1       -0.3794
     13 H          25.9951   78.0306   -6.0697 H       1  UNL1        0.2106
     14 H          24.6889   78.1761   -4.3837 H       1  UNL1        0.2105
     15 N          28.4042   75.0316   -5.0710 N.ar    1  UNL1       -0.2551
     16 C          29.4265   74.4317   -4.4359 C.ar    1  UNL1        0.3323
     17 N          30.4498   73.8947   -5.1262 N.ar    1  UNL1       -0.2743
     18 C          30.4706   73.9592   -6.4714 C.ar    1  UNL1        0.2626
     19 C          29.4034   74.5932   -7.1535 C.ar    1  UNL1        0.0795
     20 C          28.3875   75.1196   -6.4370 C.ar    1  UNL1        0.0869
     21 O          29.4213   74.3654   -3.2228 O.2     1  UNL1       -0.2464
     22 O          31.3988   73.4777   -7.0968 O.2     1  UNL1       -0.2670
     23 H          31.1772   73.4617   -4.6517 H       1  UNL1        0.1734
     24 O          22.3946   72.6049   -6.4091 O.3     1  UNL1       -0.2703
     25 P          21.3124   73.5099   -7.1834 P.3     1  UNL1        0.2208
     26 O          21.4733   74.9243   -6.7801 O.2     1  UNL1       -0.5170
     27 O          21.5398   73.3763   -8.7723 O.3     1  UNL1       -0.4371
     28 O          19.8285   73.0103   -6.8112 O.3     1  UNL1       -0.2858
     29 C          19.6109   71.7907   -7.5218 C.3     1  UNL1        0.2704
     30 C          18.3961   71.9452   -8.4382 C.3     1  UNL1        0.1967
     31 C          17.1726   72.3017   -7.5883 C.3     1  UNL1        0.1715
     32 C          17.0240   71.2539   -6.4793 C.3     1  UNL1        0.1694
     33 C          18.3433   71.1533   -5.7097 C.3     1  UNL1        0.1761
     34 O          18.6413   72.9850   -9.3867 O.3     1  UNL1       -0.3775
     35 O          16.0024   72.3050   -8.4089 O.3     1  UNL1       -0.3794
     36 O          16.7050   69.9877   -7.0580 O.3     1  UNL1       -0.3794
     37 O          19.3841   70.7345   -6.5913 O.3     1  UNL1       -0.3258
     38 H          19.4219   72.7223   -9.8931 H       1  UNL1        0.2106
     39 H          16.1449   72.9675   -9.0967 H       1  UNL1        0.2105
     40 H          15.8729   70.0999   -7.5357 H       1  UNL1        0.2105
     41 C          18.1950   70.1341   -4.5778 C.3     1  UNL1        0.1693
     42 O          16.8120   69.9813   -4.2537 O.3     1  UNL1       -0.3794
     43 H          16.7622   69.3319   -3.5388 H       1  UNL1        0.2105
@<TRIPOS>BOND
     1    15    16   ar
     2    15    20   ar
     3    15     6    1
     4    16    17   ar
     5    16    21    2
     6    17    18   ar
     7    17    23    1
     8    18    19   ar
     9    18    22    2
    10    19    20   ar
    11     6     7    1
    12     6    11    1
    13     7     8    1
    14     7     9    1
    15     8    13    1
    16     9    10    1
    17     9    12    1
    18    10    11    1
    19    10     5    1
    20    12    14    1
    21     5     4    1
    22     4     1    1
    23     1     2    2
    24     1     3    1
    25     1    24    1
    26    24    25    1
    27    25    26    2
    28    25    27    1
    29    25    28    1
    30    28    29    1
    31    29    30    1
    32    29    37    1
    33    30    31    1
    34    30    34    1
    35    31    32    1
    36    31    35    1
    37    32    33    1
    38    32    36    1
    39    33    41    1
    40    33    37    1
    41    41    42    1
    42    34    38    1
    43    35    39    1
    44    36    40    1
    45    42    43    1
@<TRIPOS>MOLECULE
GDU
 43 45 0 0 0
SMALL
GASTEIGER

@<TRIPOS>ATOM
      1 P          22.4916   71.9916   -3.4079 P.3     1  UNL1        0.2189
      2 O          23.4056   73.1104   -3.7278 O.2     1  UNL1       -0.5170
      3 O          23.3517   70.6594   -3.1277 O.3     1  UNL1       -0.4371
      4 O          21.6300   72.3591   -2.1004 O.3     1  UNL1       -0.3112
      5 C          22.4335   73.2350   -1.3081 C.3     1  UNL1        0.1811
      6 C          22.7475   73.2082    2.2735 C.3     1  UNL1        0.2383
      7 C          21.2890   72.7556    2.0074 C.3     1  UNL1        0.1895
      8 O          20.8388   71.8606    3.0269 O.3     1  UNL1       -0.3779
      9 C          21.4193   72.0232    0.6465 C.3     1  UNL1        0.1713
     10 C          22.7222   72.5813    0.0444 C.3     1  UNL1        0.1764
     11 O          23.2348   73.5629    0.9619 O.3     1  UNL1       -0.3308
     12 O          21.5170   70.6116    0.8462 O.3     1  UNL1       -0.3794
     13 H          19.9293   71.6181    2.8035 H       1  UNL1        0.2106
     14 H          20.6984   70.3326    1.2784 H       1  UNL1        0.2105
     15 N          22.7751   74.3688    3.1652 N.ar    1  UNL1       -0.2551
     16 C          21.7946   75.2864    3.0961 C.ar    1  UNL1        0.3323
     17 N          21.7944   76.3607    3.9070 N.ar    1  UNL1       -0.2743
     18 C          22.7878   76.5396    4.7990 C.ar    1  UNL1        0.2626
     19 C          23.8303   75.5841    4.8790 C.ar    1  UNL1        0.0795
     20 C          23.8038   74.5137    4.0569 C.ar    1  UNL1        0.0869
     21 O          20.8916   75.1384    2.2968 O.2     1  UNL1       -0.2464
     22 O          22.7910   77.5142    5.5301 O.2     1  UNL1       -0.2670
     23 H          21.0765   77.0108    3.8464 H       1  UNL1        0.1734
     24 O          21.5006   71.7373   -4.6512 O.3     1  UNL1       -0.2703
     25 P          21.5366   73.0674   -5.5564 P.3     1  UNL1        0.2208
     26 O          21.5966   74.2584   -4.6806 O.2     1  UNL1       -0.5170
     27 O          22.8368   73.0345   -6.5065 O.3     1  UNL1       -0.4371
     28 O          20.2106   73.1350   -6.4658 O.3     1  UNL1       -0.2858
     29 C          19.7538   71.7924   -6.6340 C.3     1  UNL1        0.2704
     30 C          19.7589   71.4353   -8.1212 C.3     1  UNL1        0.1967
     31 C          18.8504   72.4137   -8.8720 C.3     1  UNL1        0.1715
     32 C          17.4701   72.4109   -8.2053 C.3     1  UNL1        0.1694
     33 C          17.6387   72.6962   -6.7109 C.3     1  UNL1        0.1761
     34 O          21.0902   71.5285   -8.6312 O.3     1  UNL1       -0.3775
     35 O          18.7282   72.0052  -10.2360 O.3     1  UNL1       -0.3794
     36 O          16.8545   71.1350   -8.3866 O.3     1  UNL1       -0.3794
     37 O          18.4324   71.6729   -6.1120 O.3     1  UNL1       -0.3258
     38 H          21.6269   70.9025   -8.1261 H       1  UNL1        0.2106
     39 H          19.6182   72.0101  -10.6105 H       1  UNL1        0.2105
     40 H          16.7741   70.9958   -9.3392 H       1  UNL1        0.2105
     41 C          16.2629   72.7296   -6.0414 C.3     1  UNL1        0.1693
     42 O          15.3234   73.3560   -6.9166 O.3     1  UNL1       -0.3794
     43 H          14.4715   73.3562   -6.4588 H       1  UNL1        0.2105
@<TRIPOS>BOND
     1    15    16   ar
     2    15    20   ar
     3    15     6    1
     4    16    17   ar
     5    16    21    2
     6    17    18   ar
     7    17    23    1
     8    18    19   ar
     9    18    22    2
    10    19    20   ar
    11     6     7    1
    12     6    11    1
    13     7     8    1
    14     7     9    1
    15     8    13    1
    16     9    10    1
    17     9    12    1
    18    10    11    1
    19    10     5    1
    20    12    14    1
    21     5     4    1
    22     4     1    1
    23     1     2    2
    24     1     3    1
    25     1    24    1
    26    24    25    1
    27    25    26    2
    28    25    27    1
    29    25    28    1
    30    28    29    1
    31    29    30    1
    32    29    37    1
    33    30    31    1
    34    30    34    1
    35    31    32    1
    36    31    35    1
    37    32    33    1
    38    32    36    1
    39    33    41    1
    40    33    37    1
    41    41    42    1
    42    34    38    1
    43    35    39    1
    44    36    40    1
    45    42    43    1
@<TRIPOS>MOLECULE
GDU
 43 45 0 0 0
SMALL
GASTEIGER

@<TRIPOS>ATOM
      1 P          19.7072   71.1567   -4.2664 P.3     1  UNL1        0.2189
      2 O          18.9878   71.4673   -3.0111 O.2     1  UNL1       -0.5170
      3 O          19.6305   69.5736   -4.5511 O.3     1  UNL1       -0.4371
      4 O          19.0278   71.9548   -5.4863 O.3     1  UNL1       -0.3112
      5 C          19.3576   71.2439   -6.6806 C.3     1  UNL1        0.1811
      6 C          16.8768   73.1504   -8.4521 C.3     1  UNL1        0.2383
      7 C          18.1483   73.2527   -9.3329 C.3     1  UNL1        0.1895
      8 O          17.8031   73.3732  -10.7147 O.3     1  UNL1       -0.3779
      9 C          18.8470   71.8966   -9.0536 C.3     1  UNL1        0.1713
     10 C          18.2453   71.4346   -7.7134 C.3     1  UNL1        0.1764
     11 O          17.3393   72.4604   -7.2716 O.3     1  UNL1       -0.3308
     12 O          18.5522   70.9596  -10.0914 O.3     1  UNL1       -0.3794
     13 H          18.6345   73.4327  -11.2057 H       1  UNL1        0.2106
     14 H          18.9013   71.3321  -10.9124 H       1  UNL1        0.2105
     15 N          16.3764   74.4823   -8.1082 N.ar    1  UNL1       -0.2551
     16 C          15.1325   74.8417   -8.4714 C.ar    1  UNL1        0.3323
     17 N          14.6470   76.0590   -8.1645 N.ar    1  UNL1       -0.2743
     18 C          15.4077   76.9451   -7.4934 C.ar    1  UNL1        0.2626
     19 C          16.7220   76.5825   -7.1093 C.ar    1  UNL1        0.0795
     20 C          17.1825   75.3536   -7.4261 C.ar    1  UNL1        0.0869
     21 O          14.4344   74.0529   -9.0768 O.2     1  UNL1       -0.2464
     22 O          14.9708   78.0489   -7.2193 O.2     1  UNL1       -0.2670
     23 H          13.7455   76.3000   -8.4308 H       1  UNL1        0.1734
     24 O          21.2482   71.6010   -4.1246 O.3     1  UNL1       -0.2703
     25 P          21.8583   70.7795   -2.8824 P.3     1  UNL1        0.2208
     26 O          21.2695   69.4225   -2.8518 O.2     1  UNL1       -0.5170
     27 O          23.4566   70.6668   -3.0470 O.3     1  UNL1       -0.4371
     28 O          21.5142   71.5460   -1.5098 O.3     1  UNL1       -0.2858
     29 C          22.6903   71.4969   -0.7010 C.3     1  UNL1        0.2704
     30 C          22.3186   71.0411    0.7109 C.3     1  UNL1        0.1967
     31 C          21.2984   72.0208    1.2988 C.3     1  UNL1        0.1715
     32 C          21.8691   73.4401    1.2007 C.3     1  UNL1        0.1694
     33 C          22.2733   73.7149   -0.2499 C.3     1  UNL1        0.1761
     34 O          21.7506   69.7313    0.6569 O.3     1  UNL1       -0.3775
     35 O          21.0521   71.6934    2.6680 O.3     1  UNL1       -0.3794
     36 O          23.0115   73.5555    2.0501 O.3     1  UNL1       -0.3794
     37 O          23.2848   72.7918   -0.6508 O.3     1  UNL1       -0.3258
     38 H          22.4231   69.1510    0.2748 H       1  UNL1        0.2106
     39 H          20.7069   70.7918    2.6823 H       1  UNL1        0.2105
     40 H          22.7116   73.3692    2.9494 H       1  UNL1        0.2105
     41 C          22.8129   75.1423   -0.3655 C.3     1  UNL1        0.1693
     42 O          22.1855   75.9688    0.6164 O.3     1  UNL1       -0.3794
     43 H          22.5527   76.8571    0.5106 H       1  UNL1        0.2105
@<TRIPOS>BOND
     1    15    16   ar
     2    15    20   ar
     3    15     6    1
     4    16    17   ar
     5    16    21    2
     6    17    18   ar
     7    17    23    1
     8    18    19   ar
     9    18    22    2
    10    19    20   ar
    11     6     7    1
    12     6    11    1
    13     7     8    1
    14     7     9    1
    15     8    13    1
    16     9    10    1
    17     9    12    1
    18    10    11    1
    19    10     5    1
    20    12    14    1
    21     5     4    1
    22     4     1    1
    23     1     2    2
    24     1     3    1
    25     1    24    1
    26    24    25    1
    27    25    26    2
    28    25    27    1
    29    25    28    1
    30    28    29    1
    31    29    30    1
    32    29    37    1
    33    30    31    1
    34    30    34    1
    35    31    32    1
    36    31    35    1
    37    32    33    1
    38    32    36    1
    39    33    41    1
    40    33    37    1
    41    41    42    1
    42    34    38    1
    43    35    39    1
    44    36    40    1
    45    42    43    1
