@<TRIPOS>MOLECULE
GDU
 43 45 0 0 0
SMALL
GASTEIGER

@<TRIPOS>ATOM
      1 P          20.6515   71.7458   -1.5424 P.3     1  UNL1        0.2189
      2 O          19.7451   72.7656   -0.9697 O.2     1  UNL1       -0.5170
      3 O          20.8433   70.5450   -0.4869 O.3     1  UNL1       -0.4371
      4 O          20.0184   71.1681   -2.9034 O.3     1  UNL1       -0.3112
      5 C          19.0015   70.2390   -2.5249 C.3     1  UNL1        0.1811
      6 C          17.2103   70.4243   -5.6369 C.3     1  UNL1        0.2383
      7 C          17.0053   68.9649   -5.1562 C.3     1  UNL1        0.1895
      8 O          15.7444   68.4554   -5.5965 O.3     1  UNL1       -0.3779
      9 C          17.0293   69.1245   -3.6137 C.3     1  UNL1        0.1713
     10 C          17.7578   70.4622   -3.3871 C.3     1  UNL1        0.1764
     11 O          18.1423   70.9672   -4.6776 O.3     1  UNL1       -0.3308
     12 O          15.6984   69.1780   -3.0963 O.3     1  UNL1       -0.3794
     13 H          15.6795   67.5485   -5.2663 H       1  UNL1        0.2106
     14 H          15.2765   68.3376   -3.3208 H       1  UNL1        0.2105
     15 N          17.7827   70.4505   -6.9839 N.ar    1  UNL1       -0.2551
     16 C          16.9695   70.4267   -8.0546 C.ar    1  UNL1        0.3323
     17 N          17.4700   70.4534   -9.3039 N.ar    1  UNL1       -0.2743
     18 C          18.8016   70.4946   -9.5021 C.ar    1  UNL1        0.2626
     19 C          19.6706   70.5143   -8.3837 C.ar    1  UNL1        0.0795
     20 C          19.1420   70.4911   -7.1417 C.ar    1  UNL1        0.0869
     21 O          15.7661   70.3899   -7.8915 O.2     1  UNL1       -0.2464
     22 O          19.2558   70.5140  -10.6325 O.2     1  UNL1       -0.2670
     23 H          16.8682   70.4399  -10.0650 H       1  UNL1        0.1734
     24 O          22.0815   72.4160   -1.8564 O.3     1  UNL1       -0.2703
     25 P          22.5292   71.8992   -3.3133 P.3     1  UNL1        0.2208
     26 O          23.9230   71.4064   -3.2548 O.2     1  UNL1       -0.5170
     27 O          21.5568   70.7032   -3.7804 O.3     1  UNL1       -0.4371
     28 O          22.4313   73.1114   -4.3673 O.3     1  UNL1       -0.2858
     29 C          21.4284   72.7537   -5.3192 C.3     1  UNL1        0.2704
     30 C          21.9471   73.0262   -6.7320 C.3     1  UNL1        0.1967
     31 C          22.3040   74.5108   -6.8544 C.3     1  UNL1        0.1715
     32 C          21.0875   75.3434   -6.4343 C.3     1  UNL1        0.1694
     33 C          20.6350   74.8961   -5.0421 C.3     1  UNL1        0.1761
     34 O          23.1088   72.2313   -6.9770 O.3     1  UNL1       -0.3775
     35 O          22.6502   74.8113   -8.2081 O.3     1  UNL1       -0.3794
     36 O          20.0280   75.1483   -7.3720 O.3     1  UNL1       -0.3794
     37 O          20.2519   73.5222   -5.0788 O.3     1  UNL1       -0.3258
     38 H          22.8397   71.3075   -6.8824 H       1  UNL1        0.2106
     39 H          23.4093   74.2583   -8.4322 H       1  UNL1        0.2105
     40 H          20.3590   75.4370   -8.2325 H       1  UNL1        0.2105
     41 C          19.4414   75.7450   -4.5985 C.3     1  UNL1        0.1693
     42 O          18.2358   75.1746   -5.1104 O.3     1  UNL1       -0.3794
     43 H          17.5096   75.7374   -4.8084 H       1  UNL1        0.2105
@<TRIPOS>BOND
     1    15    16   ar
     2    15    20   ar
     3    15     6    1
     4    16    17   ar
     5    16    21    2
     6    17    18   ar
     7    17    23    1
     8    18    19   ar
     9    18    22    2
    10    19    20   ar
    11     6     7    1
    12     6    11    1
    13     7     8    1
    14     7     9    1
    15     8    13    1
    16     9    10    1
    17     9    12    1
    18    10    11    1
    19    10     5    1
    20    12    14    1
    21     5     4    1
    22     4     1    1
    23     1     2    2
    24     1     3    1
    25     1    24    1
    26    24    25    1
    27    25    26    2
    28    25    27    1
    29    25    28    1
    30    28    29    1
    31    29    30    1
    32    29    37    1
    33    30    31    1
    34    30    34    1
    35    31    32    1
    36    31    35    1
    37    32    33    1
    38    32    36    1
    39    33    41    1
    40    33    37    1
    41    41    42    1
    42    34    38    1
    43    35    39    1
    44    36    40    1
    45    42    43    1
@<TRIPOS>MOLECULE
GDU
 43 45 0 0 0
SMALL
GASTEIGER

@<TRIPOS>ATOM
      1 P          20.7479   71.3029   -3.1073 P.3     1  UNL1        0.2189
      2 O          21.0331   71.7250   -4.4966 O.2     1  UNL1       -0.5170
      3 O          20.4575   72.6017   -2.2008 O.3     1  UNL1       -0.4371
      4 O          19.4603   70.3393   -3.0924 O.3     1  UNL1       -0.3112
      5 C          18.3643   71.1206   -2.6138 C.3     1  UNL1        0.1811
      6 C          16.8697   70.6053   -5.8430 C.3     1  UNL1        0.2383
      7 C          16.8953   69.1965   -5.1969 C.3     1  UNL1        0.1895
      8 O          15.7980   68.4044   -5.6570 O.3     1  UNL1       -0.3779
      9 C          16.7445   69.5277   -3.6893 C.3     1  UNL1        0.1713
     10 C          17.1872   70.9989   -3.5832 C.3     1  UNL1        0.1764
     11 O          17.5905   71.4231   -4.8968 O.3     1  UNL1       -0.3308
     12 O          15.3843   69.3768   -3.2782 O.3     1  UNL1       -0.3794
     13 H          15.8720   67.5446   -5.2198 H       1  UNL1        0.2106
     14 H          15.1489   68.4504   -3.4236 H       1  UNL1        0.2105
     15 N          17.5509   70.5934   -7.1386 N.ar    1  UNL1       -0.2551
     16 C          16.8291   70.5232   -8.2710 C.ar    1  UNL1        0.3323
     17 N          17.4307   70.5143   -9.4751 N.ar    1  UNL1       -0.2743
     18 C          18.7736   70.5659   -9.5646 C.ar    1  UNL1        0.2626
     19 C          19.5471   70.6343   -8.3800 C.ar    1  UNL1        0.0795
     20 C          18.9181   70.6461   -7.1856 C.ar    1  UNL1        0.0869
     21 O          15.6168   70.4766   -8.2061 O.2     1  UNL1       -0.2464
     22 O          19.3193   70.5530  -10.6540 O.2     1  UNL1       -0.2670
     23 H          16.8939   70.4675  -10.2822 H       1  UNL1        0.1734
     24 O          22.0193   70.5111   -2.5164 O.3     1  UNL1       -0.2703
     25 P          23.1655   71.6071   -2.2426 P.3     1  UNL1        0.2208
     26 O          24.4919   71.0132   -2.5202 O.2     1  UNL1       -0.5170
     27 O          22.9345   72.8770   -3.2059 O.3     1  UNL1       -0.4371
     28 O          23.0999   72.0816   -0.7062 O.3     1  UNL1       -0.2858
     29 C          23.1393   70.9000    0.0951 C.3     1  UNL1        0.2704
     30 C          21.9210   70.8706    1.0193 C.3     1  UNL1        0.1967
     31 C          21.9340   72.1229    1.9013 C.3     1  UNL1        0.1715
     32 C          23.2896   72.2079    2.6116 C.3     1  UNL1        0.1694
     33 C          24.4049   72.1378    1.5656 C.3     1  UNL1        0.1761
     34 O          20.7264   70.8475    0.2359 O.3     1  UNL1       -0.3775
     35 O          20.8863   72.0390    2.8697 O.3     1  UNL1       -0.3794
     36 O          23.4181   71.1198    3.5278 O.3     1  UNL1       -0.3794
     37 O          24.3356   70.8936    0.8707 O.3     1  UNL1       -0.3258
     38 H          20.7645   70.0485   -0.3073 H       1  UNL1        0.2106
     39 H          20.0567   71.9753    2.3797 H       1  UNL1        0.2105
     40 H          22.6942   71.2011    4.1623 H       1  UNL1        0.2105
     41 C          25.7627   72.2564    2.2615 C.3     1  UNL1        0.1693
     42 O          26.4135   70.9847    2.2542 O.3     1  UNL1       -0.3794
     43 H          27.2635   71.1026    2.7002 H       1  UNL1        0.2105
@<TRIPOS>BOND
     1    15    16   ar
     2    15    20   ar
     3    15     6    1
     4    16    17   ar
     5    16    21    2
     6    17    18   ar
     7    17    23    1
     8    18    19   ar
     9    18    22    2
    10    19    20   ar
    11     6     7    1
    12     6    11    1
    13     7     8    1
    14     7     9    1
    15     8    13    1
    16     9    10    1
    17     9    12    1
    18    10    11    1
    19    10     5    1
    20    12    14    1
    21     5     4    1
    22     4     1    1
    23     1     2    2
    24     1     3    1
    25     1    24    1
    26    24    25    1
    27    25    26    2
    28    25    27    1
    29    25    28    1
    30    28    29    1
    31    29    30    1
    32    29    37    1
    33    30    31    1
    34    30    34    1
    35    31    32    1
    36    31    35    1
    37    32    33    1
    38    32    36    1
    39    33    41    1
    40    33    37    1
    41    41    42    1
    42    34    38    1
    43    35    39    1
    44    36    40    1
    45    42    43    1
@<TRIPOS>MOLECULE
GDU
 43 45 0 0 0
SMALL
GASTEIGER

@<TRIPOS>ATOM
      1 P          20.9130   70.9700   -2.9491 P.3     1  UNL1        0.2189
      2 O          21.9001   70.0500   -3.5562 O.2     1  UNL1       -0.5170
      3 O          20.7134   72.2500   -3.9056 O.3     1  UNL1       -0.4371
      4 O          19.5075   70.2086   -2.7715 O.3     1  UNL1       -0.3112
      5 C          18.5329   71.2058   -2.4613 C.3     1  UNL1        0.1811
      6 C          16.9550   70.6502   -5.6439 C.3     1  UNL1        0.2383
      7 C          17.0344   69.2432   -4.9980 C.3     1  UNL1        0.1895
      8 O          15.9435   68.4241   -5.4246 O.3     1  UNL1       -0.3779
      9 C          16.9208   69.5726   -3.4868 C.3     1  UNL1        0.1713
     10 C          17.3305   71.0542   -3.3948 C.3     1  UNL1        0.1764
     11 O          17.6837   71.4865   -4.7202 O.3     1  UNL1       -0.3308
     12 O          15.5777   69.3890   -3.0350 O.3     1  UNL1       -0.3794
     13 H          16.0516   67.5669   -4.9894 H       1  UNL1        0.2106
     14 H          15.3607   68.4570   -3.1728 H       1  UNL1        0.2105
     15 N          17.5972   70.6533   -6.9593 N.ar    1  UNL1       -0.2551
     16 C          16.8526   70.4781   -8.0653 C.ar    1  UNL1        0.3323
     17 N          17.4179   70.4803   -9.2869 N.ar    1  UNL1       -0.2743
     18 C          18.7475   70.6491   -9.4207 C.ar    1  UNL1        0.2626
     19 C          19.5451   70.8290   -8.2641 C.ar    1  UNL1        0.0795
     20 C          18.9520   70.8268   -7.0514 C.ar    1  UNL1        0.0869
     21 O          15.6519   70.3251   -7.9605 O.2     1  UNL1       -0.2464
     22 O          19.2606   70.6464  -10.5258 O.2     1  UNL1       -0.2670
     23 H          16.8647   70.3567  -10.0746 H       1  UNL1        0.1734
     24 O          21.4474   71.4554   -1.5100 O.3     1  UNL1       -0.2703
     25 P          22.9599   71.9633   -1.7209 P.3     1  UNL1        0.2208
     26 O          23.7613   70.8830   -2.3372 O.2     1  UNL1       -0.5170
     27 O          22.9633   73.2516   -2.6876 O.3     1  UNL1       -0.4371
     28 O          23.5973   72.3604   -0.2975 O.3     1  UNL1       -0.2858
     29 C          22.9437   73.5558    0.1309 C.3     1  UNL1        0.2704
     30 C          23.9908   74.6315    0.4241 C.3     1  UNL1        0.1967
     31 C          24.9433   74.1177    1.5081 C.3     1  UNL1        0.1715
     32 C          24.1140   73.6682    2.7163 C.3     1  UNL1        0.1694
     33 C          23.0581   72.6633    2.2491 C.3     1  UNL1        0.1761
     34 O          24.7277   74.9190   -0.7657 O.3     1  UNL1       -0.3775
     35 O          25.8360   75.1635    1.8978 O.3     1  UNL1       -0.3794
     36 O          23.4745   74.8015    3.3052 O.3     1  UNL1       -0.3794
     37 O          22.1851   73.2853    1.3073 O.3     1  UNL1       -0.3258
     38 H          24.0889   75.2314   -1.4208 H       1  UNL1        0.2106
     39 H          26.3264   75.4220    1.1072 H       1  UNL1        0.2105
     40 H          24.1754   75.4078    3.5782 H       1  UNL1        0.2105
     41 C          22.2463   72.1819    3.4538 C.3     1  UNL1        0.1693
     42 O          20.8613   72.1367    3.1065 O.3     1  UNL1       -0.3794
     43 H          20.3861   71.8287    3.8904 H       1  UNL1        0.2105
@<TRIPOS>BOND
     1    15    16   ar
     2    15    20   ar
     3    15     6    1
     4    16    17   ar
     5    16    21    2
     6    17    18   ar
     7    17    23    1
     8    18    19   ar
     9    18    22    2
    10    19    20   ar
    11     6     7    1
    12     6    11    1
    13     7     8    1
    14     7     9    1
    15     8    13    1
    16     9    10    1
    17     9    12    1
    18    10    11    1
    19    10     5    1
    20    12    14    1
    21     5     4    1
    22     4     1    1
    23     1     2    2
    24     1     3    1
    25     1    24    1
    26    24    25    1
    27    25    26    2
    28    25    27    1
    29    25    28    1
    30    28    29    1
    31    29    30    1
    32    29    37    1
    33    30    31    1
    34    30    34    1
    35    31    32    1
    36    31    35    1
    37    32    33    1
    38    32    36    1
    39    33    41    1
    40    33    37    1
    41    41    42    1
    42    34    38    1
    43    35    39    1
    44    36    40    1
    45    42    43    1
@<TRIPOS>MOLECULE
GDU
 43 45 0 0 0
SMALL
GASTEIGER

@<TRIPOS>ATOM
      1 P          19.9492   72.0134   -1.6309 P.3     1  UNL1        0.2189
      2 O          21.1982   72.6826   -2.0568 O.2     1  UNL1       -0.5170
      3 O          19.1140   72.9982   -0.6688 O.3     1  UNL1       -0.4371
      4 O          19.0657   71.6510   -2.9251 O.3     1  UNL1       -0.3112
      5 C          17.7380   72.1068   -2.6606 C.3     1  UNL1        0.1811
      6 C          16.7615   70.5480   -5.7499 C.3     1  UNL1        0.2383
      7 C          17.2601   69.3776   -4.8641 C.3     1  UNL1        0.1895
      8 O          16.5657   68.1684   -5.1785 O.3     1  UNL1       -0.3779
      9 C          16.8958   69.8704   -3.4395 C.3     1  UNL1        0.1713
     10 C          16.7573   71.3962   -3.5952 C.3     1  UNL1        0.1764
     11 O          17.0643   71.7192   -4.9625 O.3     1  UNL1       -0.3308
     12 O          15.6622   69.2906   -3.0106 O.3     1  UNL1       -0.3794
     13 H          16.9212   67.4831   -4.5956 H       1  UNL1        0.2106
     14 H          15.7950   68.3331   -2.9898 H       1  UNL1        0.2105
     15 N          17.4857   70.5801   -7.0217 N.ar    1  UNL1       -0.2551
     16 C          16.8008   70.6161   -8.1783 C.ar    1  UNL1        0.3323
     17 N          17.4425   70.6496   -9.3611 N.ar    1  UNL1       -0.2743
     18 C          18.7887   70.6376   -9.4050 C.ar    1  UNL1        0.2626
     19 C          19.5232   70.5940   -8.1947 C.ar    1  UNL1        0.0795
     20 C          18.8546   70.5653   -7.0223 C.ar    1  UNL1        0.0869
     21 O          15.5862   70.6278   -8.1546 O.2     1  UNL1       -0.2464
     22 O          19.3703   70.6631  -10.4753 O.2     1  UNL1       -0.2670
     23 H          16.9323   70.6797  -10.1861 H       1  UNL1        0.1734
     24 O          20.3106   70.6635   -0.8311 O.3     1  UNL1       -0.2703
     25 P          21.5173   71.0236    0.1710 P.3     1  UNL1        0.2208
     26 O          21.8031   69.8588    1.0372 O.2     1  UNL1       -0.5170
     27 O          22.8321   71.3921   -0.6832 O.3     1  UNL1       -0.4371
     28 O          21.1012   72.2826    1.0830 O.3     1  UNL1       -0.2858
     29 C          22.3023   72.9974    1.3766 C.3     1  UNL1        0.2704
     30 C          22.6658   72.7992    2.8490 C.3     1  UNL1        0.1967
     31 C          21.5105   73.3024    3.7198 C.3     1  UNL1        0.1715
     32 C          21.1853   74.7451    3.3167 C.3     1  UNL1        0.1694
     33 C          20.9319   74.7953    1.8079 C.3     1  UNL1        0.1761
     34 O          22.8902   71.4115    3.1040 O.3     1  UNL1       -0.3775
     35 O          21.8931   73.2606    5.0962 O.3     1  UNL1       -0.3794
     36 O          22.2847   75.5938    3.6499 O.3     1  UNL1       -0.3794
     37 O          22.1058   74.3838    1.1088 O.3     1  UNL1       -0.3258
     38 H          23.6187   71.1367    2.5307 H       1  UNL1        0.2106
     39 H          22.0993   72.3400    5.3015 H       1  UNL1        0.2105
     40 H          22.4109   75.5261    4.6053 H       1  UNL1        0.2105
     41 C          20.5725   76.2258    1.4001 C.3     1  UNL1        0.1693
     42 O          19.8843   76.8679    2.4748 O.3     1  UNL1       -0.3794
     43 H          19.6769   77.7648    2.1783 H       1  UNL1        0.2105
@<TRIPOS>BOND
     1    15    16   ar
     2    15    20   ar
     3    15     6    1
     4    16    17   ar
     5    16    21    2
     6    17    18   ar
     7    17    23    1
     8    18    19   ar
     9    18    22    2
    10    19    20   ar
    11     6     7    1
    12     6    11    1
    13     7     8    1
    14     7     9    1
    15     8    13    1
    16     9    10    1
    17     9    12    1
    18    10    11    1
    19    10     5    1
    20    12    14    1
    21     5     4    1
    22     4     1    1
    23     1     2    2
    24     1     3    1
    25     1    24    1
    26    24    25    1
    27    25    26    2
    28    25    27    1
    29    25    28    1
    30    28    29    1
    31    29    30    1
    32    29    37    1
    33    30    31    1
    34    30    34    1
    35    31    32    1
    36    31    35    1
    37    32    33    1
    38    32    36    1
    39    33    41    1
    40    33    37    1
    41    41    42    1
    42    34    38    1
    43    35    39    1
    44    36    40    1
    45    42    43    1
@<TRIPOS>MOLECULE
GDU
 43 45 0 0 0
SMALL
GASTEIGER

@<TRIPOS>ATOM
      1 P          19.8090   72.0197   -1.1855 P.3     1  UNL1        0.2189
      2 O          20.9477   72.1464   -2.1218 O.2     1  UNL1       -0.5170
      3 O          18.6987   73.1316   -1.5373 O.3     1  UNL1       -0.4371
      4 O          19.1621   70.5535   -1.3220 O.3     1  UNL1       -0.3112
      5 C          19.3570   70.1396   -2.6752 C.3     1  UNL1        0.1811
      6 C          17.4450   70.4137   -5.7078 C.3     1  UNL1        0.2383
      7 C          17.2011   68.9613   -5.2240 C.3     1  UNL1        0.1895
      8 O          15.9030   68.5058   -5.6121 O.3     1  UNL1       -0.3779
      9 C          17.2967   69.1118   -3.6833 C.3     1  UNL1        0.1713
     10 C          18.0881   70.4175   -3.4832 C.3     1  UNL1        0.1764
     11 O          18.4381   70.9132   -4.7870 O.3     1  UNL1       -0.3308
     12 O          15.9921   69.2167   -3.1097 O.3     1  UNL1       -0.3794
     13 H          15.8151   67.6005   -5.2826 H       1  UNL1        0.2106
     14 H          15.5272   68.3952   -3.3191 H       1  UNL1        0.2105
     15 N          17.9606   70.4236   -7.0778 N.ar    1  UNL1       -0.2551
     16 C          17.1026   70.4415   -8.1131 C.ar    1  UNL1        0.3323
     17 N          17.5506   70.4544   -9.3823 N.ar    1  UNL1       -0.2743
     18 C          18.8732   70.4396   -9.6367 C.ar    1  UNL1        0.2626
     19 C          19.7887   70.4148   -8.5562 C.ar    1  UNL1        0.0795
     20 C          19.3125   70.4066   -7.2930 C.ar    1  UNL1        0.0869
     21 O          15.9067   70.4555   -7.8992 O.2     1  UNL1       -0.2464
     22 O          19.2796   70.4464  -10.7853 O.2     1  UNL1       -0.2670
     23 H          16.9172   70.4716  -10.1173 H       1  UNL1        0.1734
     24 O          20.3283   72.2402    0.3226 O.3     1  UNL1       -0.2703
     25 P          21.7313   71.4625    0.4514 P.3     1  UNL1        0.2208
     26 O          21.5312   70.2066    1.2076 O.2     1  UNL1       -0.5170
     27 O          22.2914   71.1193   -1.0192 O.3     1  UNL1       -0.4371
     28 O          22.7927   72.3926    1.2250 O.3     1  UNL1       -0.2858
     29 C          22.9342   71.8550    2.5405 C.3     1  UNL1        0.2704
     30 C          21.9942   72.5923    3.4956 C.3     1  UNL1        0.1967
     31 C          22.3390   74.0847    3.4813 C.3     1  UNL1        0.1715
     32 C          23.8332   74.2454    3.7832 C.3     1  UNL1        0.1694
     33 C          24.6343   73.3836    2.8042 C.3     1  UNL1        0.1761
     34 O          20.6418   72.4078    3.0735 O.3     1  UNL1       -0.3775
     35 O          21.5700   74.7647    4.4756 O.3     1  UNL1       -0.3794
     36 O          24.0977   73.8266    5.1228 O.3     1  UNL1       -0.3794
     37 O          24.2837   72.0108    2.9731 O.3     1  UNL1       -0.3258
     38 H          20.4714   71.4562    3.0909 H       1  UNL1        0.2106
     39 H          20.6405   74.6270    4.2532 H       1  UNL1        0.2105
     40 H          23.5694   74.3912    5.7020 H       1  UNL1        0.2105
     41 C          26.1297   73.5633    3.0749 C.3     1  UNL1        0.1693
     42 O          26.3088   74.2837    4.2955 O.3     1  UNL1       -0.3794
     43 H          27.2622   74.3747    4.4295 H       1  UNL1        0.2105
@<TRIPOS>BOND
     1    15    16   ar
     2    15    20   ar
     3    15     6    1
     4    16    17   ar
     5    16    21    2
     6    17    18   ar
     7    17    23    1
     8    18    19   ar
     9    18    22    2
    10    19    20   ar
    11     6     7    1
    12     6    11    1
    13     7     8    1
    14     7     9    1
    15     8    13    1
    16     9    10    1
    17     9    12    1
    18    10    11    1
    19    10     5    1
    20    12    14    1
    21     5     4    1
    22     4     1    1
    23     1     2    2
    24     1     3    1
    25     1    24    1
    26    24    25    1
    27    25    26    2
    28    25    27    1
    29    25    28    1
    30    28    29    1
    31    29    30    1
    32    29    37    1
    33    30    31    1
    34    30    34    1
    35    31    32    1
    36    31    35    1
    37    32    33    1
    38    32    36    1
    39    33    41    1
    40    33    37    1
    41    41    42    1
    42    34    38    1
    43    35    39    1
    44    36    40    1
    45    42    43    1
@<TRIPOS>MOLECULE
GDU
 43 45 0 0 0
SMALL
GASTEIGER

@<TRIPOS>ATOM
      1 P          20.9349   71.6544   -1.3913 P.3     1  UNL1        0.2189
      2 O          20.4907   70.6761   -0.3739 O.2     1  UNL1       -0.5170
      3 O          22.5319   71.5538   -1.5712 O.3     1  UNL1       -0.4371
      4 O          20.2157   71.3347   -2.7939 O.3     1  UNL1       -0.3112
      5 C          19.2924   70.2717   -2.5526 C.3     1  UNL1        0.1811
      6 C          17.3804   70.4652   -5.5914 C.3     1  UNL1        0.2383
      7 C          17.1770   69.0107   -5.0956 C.3     1  UNL1        0.1895
      8 O          15.8933   68.5149   -5.4826 O.3     1  UNL1       -0.3779
      9 C          17.2646   69.1769   -3.5562 C.3     1  UNL1        0.1713
     10 C          18.0180   70.5064   -3.3656 C.3     1  UNL1        0.1764
     11 O          18.3567   71.0007   -4.6730 O.3     1  UNL1       -0.3308
     12 O          15.9563   69.2494   -2.9862 O.3     1  UNL1       -0.3794
     13 H          15.8305   67.6103   -5.1454 H       1  UNL1        0.2106
     14 H          15.5155   68.4132   -3.1894 H       1  UNL1        0.2105
     15 N          17.8987   70.4781   -6.9604 N.ar    1  UNL1       -0.2551
     16 C          17.0441   70.4283   -7.9975 C.ar    1  UNL1        0.3323
     17 N          17.4945   70.4423   -9.2659 N.ar    1  UNL1       -0.2743
     18 C          18.8166   70.4969   -9.5175 C.ar    1  UNL1        0.2626
     19 C          19.7288   70.5439   -8.4349 C.ar    1  UNL1        0.0795
     20 C          19.2500   70.5329   -7.1727 C.ar    1  UNL1        0.0869
     21 O          15.8487   70.3793   -7.7862 O.2     1  UNL1       -0.2464
     22 O          19.2254   70.5048  -10.6652 O.2     1  UNL1       -0.2670
     23 H          16.8632   70.4101  -10.0023 H       1  UNL1        0.1734
     24 O          20.5429   73.1408   -0.9123 O.3     1  UNL1       -0.2703
     25 P          20.9181   73.2419    0.6494 P.3     1  UNL1        0.2208
     26 O          20.1665   74.3573    1.2659 O.2     1  UNL1       -0.5170
     27 O          20.5297   71.8626    1.3848 O.3     1  UNL1       -0.4371
     28 O          22.4978   73.5062    0.8069 O.3     1  UNL1       -0.2858
     29 C          22.7404   73.7578    2.1917 C.3     1  UNL1        0.2704
     30 C          23.5563   75.0430    2.3403 C.3     1  UNL1        0.1967
     31 C          24.8766   74.8861    1.5797 C.3     1  UNL1        0.1715
     32 C          25.5740   73.6108    2.0663 C.3     1  UNL1        0.1694
     33 C          24.6049   72.4331    1.9364 C.3     1  UNL1        0.1761
     34 O          22.8198   76.1425    1.8020 O.3     1  UNL1       -0.3775
     35 O          25.7122   76.0183    1.8296 O.3     1  UNL1       -0.3794
     36 O          25.9608   73.7691    3.4321 O.3     1  UNL1       -0.3794
     37 O          23.4577   72.6613    2.7536 O.3     1  UNL1       -0.3258
     38 H          21.9958   76.1991    2.3047 H       1  UNL1        0.2106
     39 H          25.2302   76.7956    1.5200 H       1  UNL1        0.2105
     40 H          26.5641   74.5229    3.4665 H       1  UNL1        0.2105
     41 C          25.3031   71.1482    2.3878 C.3     1  UNL1        0.1693
     42 O          25.8794   70.4969    1.2543 O.3     1  UNL1       -0.3794
     43 H          26.3090   69.6945    1.5811 H       1  UNL1        0.2105
@<TRIPOS>BOND
     1    15    16   ar
     2    15    20   ar
     3    15     6    1
     4    16    17   ar
     5    16    21    2
     6    17    18   ar
     7    17    23    1
     8    18    19   ar
     9    18    22    2
    10    19    20   ar
    11     6     7    1
    12     6    11    1
    13     7     8    1
    14     7     9    1
    15     8    13    1
    16     9    10    1
    17     9    12    1
    18    10    11    1
    19    10     5    1
    20    12    14    1
    21     5     4    1
    22     4     1    1
    23     1     2    2
    24     1     3    1
    25     1    24    1
    26    24    25    1
    27    25    26    2
    28    25    27    1
    29    25    28    1
    30    28    29    1
    31    29    30    1
    32    29    37    1
    33    30    31    1
    34    30    34    1
    35    31    32    1
    36    31    35    1
    37    32    33    1
    38    32    36    1
    39    33    41    1
    40    33    37    1
    41    41    42    1
    42    34    38    1
    43    35    39    1
    44    36    40    1
    45    42    43    1
@<TRIPOS>MOLECULE
GDU
 43 45 0 0 0
SMALL
GASTEIGER

@<TRIPOS>ATOM
      1 P          20.4710   71.0952   -2.4063 P.3     1  UNL1        0.2189
      2 O          20.4189   72.5063   -2.8487 O.2     1  UNL1       -0.5170
      3 O          20.4573   71.0364   -0.7972 O.3     1  UNL1       -0.4371
      4 O          19.1949   70.3041   -2.9830 O.3     1  UNL1       -0.3112
      5 C          18.0345   70.9668   -2.4783 C.3     1  UNL1        0.1811
      6 C          16.6861   70.5600   -5.7865 C.3     1  UNL1        0.2383
      7 C          16.7123   69.1262   -5.1979 C.3     1  UNL1        0.1895
      8 O          15.6508   68.3345   -5.7363 O.3     1  UNL1       -0.3779
      9 C          16.4923   69.3916   -3.6858 C.3     1  UNL1        0.1713
     10 C          16.9014   70.8647   -3.5010 C.3     1  UNL1        0.1764
     11 O          17.3507   71.3503   -4.7779 O.3     1  UNL1       -0.3308
     12 O          15.1193   69.1994   -3.3395 O.3     1  UNL1       -0.3794
     13 H          15.7234   67.4587   -5.3318 H       1  UNL1        0.2106
     14 H          14.9084   68.2759   -3.5324 H       1  UNL1        0.2105
     15 N          17.4209   70.6142   -7.0513 N.ar    1  UNL1       -0.2551
     16 C          16.7487   70.5733   -8.2153 C.ar    1  UNL1        0.3323
     17 N          17.4001   70.6251   -9.3922 N.ar    1  UNL1       -0.2743
     18 C          18.7440   70.7094   -9.4224 C.ar    1  UNL1        0.2626
     19 C          19.4656   70.7476   -8.2041 C.ar    1  UNL1        0.0795
     20 C          18.7872   70.6983   -7.0380 C.ar    1  UNL1        0.0869
     21 O          15.5362   70.4978   -8.2040 O.2     1  UNL1       -0.2464
     22 O          19.3348   70.7515  -10.4871 O.2     1  UNL1       -0.2670
     23 H          16.8986   70.5988  -10.2226 H       1  UNL1        0.1734
     24 O          21.8212   70.4112   -2.9555 O.3     1  UNL1       -0.2703
     25 P          23.0477   71.3083   -2.4255 P.3     1  UNL1        0.2208
     26 O          23.0764   71.2798   -0.9465 O.2     1  UNL1       -0.5170
     27 O          24.4317   70.7179   -3.0000 O.3     1  UNL1       -0.4371
     28 O          22.8620   72.8251   -2.9304 O.3     1  UNL1       -0.2858
     29 C          23.9862   73.1275   -3.7578 C.3     1  UNL1        0.2704
     30 C          24.3563   74.6026   -3.5947 C.3     1  UNL1        0.1967
     31 C          23.1513   75.4648   -3.9832 C.3     1  UNL1        0.1715
     32 C          22.6910   75.0593   -5.3879 C.3     1  UNL1        0.1694
     33 C          22.4452   73.5487   -5.4144 C.3     1  UNL1        0.1761
     34 O          24.7119   74.8593   -2.2349 O.3     1  UNL1       -0.3775
     35 O          23.5260   76.8440   -3.9776 O.3     1  UNL1       -0.3794
     36 O          23.7007   75.4007   -6.3387 O.3     1  UNL1       -0.3794
     37 O          23.6585   72.8583   -5.1189 O.3     1  UNL1       -0.3258
     38 H          25.4678   74.2914   -2.0323 H       1  UNL1        0.2106
     39 H          23.8187   77.0508   -3.0810 H       1  UNL1        0.2105
     40 H          23.8259   76.3570   -6.2829 H       1  UNL1        0.2105
     41 C          21.9521   73.1382   -6.8038 C.3     1  UNL1        0.1693
     42 O          23.0723   72.8151   -7.6296 O.3     1  UNL1       -0.3794
     43 H          22.7192   72.5617   -8.4935 H       1  UNL1        0.2105
@<TRIPOS>BOND
     1    15    16   ar
     2    15    20   ar
     3    15     6    1
     4    16    17   ar
     5    16    21    2
     6    17    18   ar
     7    17    23    1
     8    18    19   ar
     9    18    22    2
    10    19    20   ar
    11     6     7    1
    12     6    11    1
    13     7     8    1
    14     7     9    1
    15     8    13    1
    16     9    10    1
    17     9    12    1
    18    10    11    1
    19    10     5    1
    20    12    14    1
    21     5     4    1
    22     4     1    1
    23     1     2    2
    24     1     3    1
    25     1    24    1
    26    24    25    1
    27    25    26    2
    28    25    27    1
    29    25    28    1
    30    28    29    1
    31    29    30    1
    32    29    37    1
    33    30    31    1
    34    30    34    1
    35    31    32    1
    36    31    35    1
    37    32    33    1
    38    32    36    1
    39    33    41    1
    40    33    37    1
    41    41    42    1
    42    34    38    1
    43    35    39    1
    44    36    40    1
    45    42    43    1
@<TRIPOS>MOLECULE
GDU
 43 45 0 0 0
SMALL
GASTEIGER

@<TRIPOS>ATOM
      1 P          22.7543   71.0866    0.3299 P.3     1  UNL1        0.2189
      2 O          24.1005   70.6475    0.7594 O.2     1  UNL1       -0.5170
      3 O          21.6360   70.2597    1.1414 O.3     1  UNL1       -0.4371
      4 O          22.5814   72.6577    0.6277 O.3     1  UNL1       -0.3112
      5 C          22.1694   72.7777    1.9902 C.3     1  UNL1        0.1811
      6 C          25.3034   73.9752    3.2830 C.3     1  UNL1        0.2383
      7 C          25.2059   74.5933    1.8648 C.3     1  UNL1        0.1895
      8 O          25.8725   75.8567    1.8123 O.3     1  UNL1       -0.3779
      9 C          23.6747   74.7683    1.6913 C.3     1  UNL1        0.1713
     10 C          23.0679   73.7853    2.7097 C.3     1  UNL1        0.1764
     11 O          24.1584   73.0987    3.3480 O.3     1  UNL1       -0.3308
     12 O          23.2882   76.1111    1.9906 O.3     1  UNL1       -0.3794
     13 H          25.7755   76.1858    0.9078 H       1  UNL1        0.2106
     14 H          23.7454   76.6817    1.3581 H       1  UNL1        0.2105
     15 N          26.5448   73.2139    3.4319 N.ar    1  UNL1       -0.2551
     16 C          27.4866   73.6360    4.2940 C.ar    1  UNL1        0.3323
     17 N          28.6354   72.9525    4.4524 N.ar    1  UNL1       -0.2743
     18 C          28.8649   71.8338    3.7383 C.ar    1  UNL1        0.2626
     19 C          27.8843   71.3804    2.8223 C.ar    1  UNL1        0.0795
     20 C          26.7393   72.0825    2.6861 C.ar    1  UNL1        0.0869
     21 O          27.2936   74.6432    4.9454 O.2     1  UNL1       -0.2464
     22 O          29.9065   71.2171    3.8775 O.2     1  UNL1       -0.2670
     23 H          29.3023   73.2694    5.0821 H       1  UNL1        0.1734
     24 O          22.5805   70.8158   -1.2477 O.3     1  UNL1       -0.2703
     25 P          21.1284   71.3739   -1.6597 P.3     1  UNL1        0.2208
     26 O          20.0962   70.7339   -0.8147 O.2     1  UNL1       -0.5170
     27 O          21.0854   72.9692   -1.4426 O.3     1  UNL1       -0.4371
     28 O          20.8417   71.0363   -3.2070 O.3     1  UNL1       -0.2858
     29 C          19.9546   72.0440   -3.6941 C.3     1  UNL1        0.2704
     30 C          18.6139   71.4070   -4.0628 C.3     1  UNL1        0.1967
     31 C          18.8488   70.3321   -5.1286 C.3     1  UNL1        0.1715
     32 C          19.6159   70.9605   -6.2975 C.3     1  UNL1        0.1694
     33 C          20.8827   71.6301   -5.7590 C.3     1  UNL1        0.1761
     34 O          18.0309   70.8126   -2.9018 O.3     1  UNL1       -0.3775
     35 O          17.5926   69.8306   -5.5898 O.3     1  UNL1       -0.3794
     36 O          18.7922   71.9334   -6.9416 O.3     1  UNL1       -0.3794
     37 O          20.5279   72.6645   -4.8425 O.3     1  UNL1       -0.3258
     38 H          17.9078   71.5224   -2.2569 H       1  UNL1        0.2106
     39 H          17.1415   69.4571   -4.8222 H       1  UNL1        0.2105
     40 H          18.0065   71.4693   -7.2586 H       1  UNL1        0.2105
     41 C          21.6738   72.2313   -6.9229 C.3     1  UNL1        0.1693
     42 O          23.0722   72.1369   -6.6463 O.3     1  UNL1       -0.3794
     43 H          23.5339   72.5250   -7.4023 H       1  UNL1        0.2105
@<TRIPOS>BOND
     1    15    16   ar
     2    15    20   ar
     3    15     6    1
     4    16    17   ar
     5    16    21    2
     6    17    18   ar
     7    17    23    1
     8    18    19   ar
     9    18    22    2
    10    19    20   ar
    11     6     7    1
    12     6    11    1
    13     7     8    1
    14     7     9    1
    15     8    13    1
    16     9    10    1
    17     9    12    1
    18    10    11    1
    19    10     5    1
    20    12    14    1
    21     5     4    1
    22     4     1    1
    23     1     2    2
    24     1     3    1
    25     1    24    1
    26    24    25    1
    27    25    26    2
    28    25    27    1
    29    25    28    1
    30    28    29    1
    31    29    30    1
    32    29    37    1
    33    30    31    1
    34    30    34    1
    35    31    32    1
    36    31    35    1
    37    32    33    1
    38    32    36    1
    39    33    41    1
    40    33    37    1
    41    41    42    1
    42    34    38    1
    43    35    39    1
    44    36    40    1
    45    42    43    1
@<TRIPOS>MOLECULE
GDU
 43 45 0 0 0
SMALL
GASTEIGER

@<TRIPOS>ATOM
      1 P          23.4613   72.3769   -3.4088 P.3     1  UNL1        0.2189
      2 O          24.2063   73.1786   -4.4047 O.2     1  UNL1       -0.5170
      3 O          24.1867   70.9523   -3.2157 O.3     1  UNL1       -0.4371
      4 O          23.4316   73.1589   -2.0036 O.3     1  UNL1       -0.3112
      5 C          22.0717   73.1732   -1.5667 C.3     1  UNL1        0.1811
      6 C          23.2657   72.0445    1.6314 C.3     1  UNL1        0.2383
      7 C          22.5090   73.3614    1.9412 C.3     1  UNL1        0.1895
      8 O          21.9313   73.3222    3.2482 O.3     1  UNL1       -0.3779
      9 C          21.4073   73.3677    0.8496 C.3     1  UNL1        0.1713
     10 C          21.9531   72.4241   -0.2382 C.3     1  UNL1        0.1764
     11 O          23.2521   71.9794    0.1895 O.3     1  UNL1       -0.3308
     12 O          20.1762   72.8723    1.3794 O.3     1  UNL1       -0.3794
     13 H          21.4778   74.1668    3.3780 H       1  UNL1        0.2106
     14 H          19.9174   73.4708    2.0932 H       1  UNL1        0.2105
     15 N          24.6398   72.1066    2.1320 N.ar    1  UNL1       -0.2551
     16 C          25.3644   70.9783    2.2331 C.ar    1  UNL1        0.3323
     17 N          26.6312   71.0083    2.6870 N.ar    1  UNL1       -0.2743
     18 C          27.1930   72.1748    3.0585 C.ar    1  UNL1        0.2626
     19 C          26.4398   73.3706    2.9628 C.ar    1  UNL1        0.0795
     20 C          25.1728   73.3126    2.5002 C.ar    1  UNL1        0.0869
     21 O          24.8713   69.9186    1.9014 O.2     1  UNL1       -0.2464
     22 O          28.3380   72.2024    3.4740 O.2     1  UNL1       -0.2670
     23 H          27.1410   70.1849    2.7494 H       1  UNL1        0.1734
     24 O          21.9547   72.1446   -3.9270 O.3     1  UNL1       -0.2703
     25 P          21.8450   72.8447   -5.3719 P.3     1  UNL1        0.2208
     26 O          21.9861   74.3098   -5.2219 O.2     1  UNL1       -0.5170
     27 O          23.0159   72.2884   -6.3278 O.3     1  UNL1       -0.4371
     28 O          20.4140   72.5066   -6.0260 O.3     1  UNL1       -0.2858
     29 C          20.4541   71.1363   -6.4266 C.3     1  UNL1        0.2704
     30 C          20.0531   71.0241   -7.8983 C.3     1  UNL1        0.1967
     31 C          18.6444   71.5986   -8.0765 C.3     1  UNL1        0.1715
     32 C          17.7022   70.9013   -7.0887 C.3     1  UNL1        0.1694
     33 C          18.2810   71.0247   -5.6771 C.3     1  UNL1        0.1761
     34 O          20.9767   71.7589   -8.7034 O.3     1  UNL1       -0.3775
     35 O          18.1975   71.3681   -9.4143 O.3     1  UNL1       -0.3794
     36 O          17.5769   69.5226   -7.4401 O.3     1  UNL1       -0.3794
     37 O          19.5530   70.3808   -5.6204 O.3     1  UNL1       -0.3258
     38 H          21.8487   71.3685   -8.5545 H       1  UNL1        0.2106
     39 H          18.8239   71.8129   -9.9991 H       1  UNL1        0.2105
     40 H          17.2155   69.4937   -8.3356 H       1  UNL1        0.2105
     41 C          17.3303   70.3611   -4.6781 C.3     1  UNL1        0.1693
     42 O          15.9963   70.4097   -5.1870 O.3     1  UNL1       -0.3794
     43 H          15.4303   69.9818   -4.5298 H       1  UNL1        0.2105
@<TRIPOS>BOND
     1    15    16   ar
     2    15    20   ar
     3    15     6    1
     4    16    17   ar
     5    16    21    2
     6    17    18   ar
     7    17    23    1
     8    18    19   ar
     9    18    22    2
    10    19    20   ar
    11     6     7    1
    12     6    11    1
    13     7     8    1
    14     7     9    1
    15     8    13    1
    16     9    10    1
    17     9    12    1
    18    10    11    1
    19    10     5    1
    20    12    14    1
    21     5     4    1
    22     4     1    1
    23     1     2    2
    24     1     3    1
    25     1    24    1
    26    24    25    1
    27    25    26    2
    28    25    27    1
    29    25    28    1
    30    28    29    1
    31    29    30    1
    32    29    37    1
    33    30    31    1
    34    30    34    1
    35    31    32    1
    36    31    35    1
    37    32    33    1
    38    32    36    1
    39    33    41    1
    40    33    37    1
    41    41    42    1
    42    34    38    1
    43    35    39    1
    44    36    40    1
    45    42    43    1
@<TRIPOS>MOLECULE
GDU
 43 45 0 0 0
SMALL
GASTEIGER

@<TRIPOS>ATOM
      1 P          23.6128   72.2402   -3.2229 P.3     1  UNL1        0.2189
      2 O          24.0550   70.8384   -3.0530 O.2     1  UNL1       -0.5170
      3 O          24.6318   73.0090   -4.2046 O.3     1  UNL1       -0.4371
      4 O          22.1352   72.2640   -3.8576 O.3     1  UNL1       -0.3112
      5 C          22.2805   72.6306   -5.2306 C.3     1  UNL1        0.1811
      6 C          19.3518   70.6889   -5.9919 C.3     1  UNL1        0.2383
      7 C          19.0843   72.0689   -6.6452 C.3     1  UNL1        0.1895
      8 O          18.2727   71.9312   -7.8137 O.3     1  UNL1       -0.3779
      9 C          20.5159   72.5349   -7.0179 C.3     1  UNL1        0.1713
     10 C          21.4310   71.7025   -6.1007 C.3     1  UNL1        0.1764
     11 O          20.5839   70.8920   -5.2679 O.3     1  UNL1       -0.3308
     12 O          20.7892   72.2582   -8.3929 O.3     1  UNL1       -0.3794
     13 H          18.1438   72.8213   -8.1703 H       1  UNL1        0.2106
     14 H          20.1476   72.7610   -8.9127 H       1  UNL1        0.2105
     15 N          18.2680   70.3309   -5.0754 N.ar    1  UNL1       -0.2551
     16 C          17.1730   69.7095   -5.5478 C.ar    1  UNL1        0.3323
     17 N          16.1638   69.3664   -4.7258 N.ar    1  UNL1       -0.2743
     18 C          16.2312   69.6507   -3.4110 C.ar    1  UNL1        0.2626
     19 C          17.3759   70.3102   -2.9002 C.ar    1  UNL1        0.0795
     20 C          18.3754   70.6392   -3.7459 C.ar    1  UNL1        0.0869
     21 O          17.0982   69.4460   -6.7315 O.2     1  UNL1       -0.2464
     22 O          15.3161   69.3448   -2.6670 O.2     1  UNL1       -0.2670
     23 H          15.3829   68.9145   -5.0832 H       1  UNL1        0.1734
     24 O          23.5945   72.9735   -1.7896 O.3     1  UNL1       -0.2703
     25 P          22.2158   72.5586   -1.0707 P.3     1  UNL1        0.2208
     26 O          21.0803   73.1854   -1.7828 O.2     1  UNL1       -0.5170
     27 O          22.0528   70.9566   -1.1070 O.3     1  UNL1       -0.4371
     28 O          22.2343   73.0603    0.4583 O.3     1  UNL1       -0.2858
     29 C          21.6068   72.0409    1.2372 C.3     1  UNL1        0.2704
     30 C          20.8450   72.6832    2.3976 C.3     1  UNL1        0.1967
     31 C          21.8269   73.4899    3.2529 C.3     1  UNL1        0.1715
     32 C          22.9872   72.5752    3.6611 C.3     1  UNL1        0.1694
     33 C          23.5882   71.9423    2.4037 C.3     1  UNL1        0.1761
     34 O          19.8317   73.5495    1.8838 O.3     1  UNL1       -0.3775
     35 O          21.1605   73.9744    4.4207 O.3     1  UNL1       -0.3794
     36 O          22.5050   71.5520    4.5332 O.3     1  UNL1       -0.3794
     37 O          22.6004   71.1524    1.7432 O.3     1  UNL1       -0.3258
     38 H          19.2422   73.0020    1.3475 H       1  UNL1        0.2106
     39 H          20.4340   74.5331    4.1168 H       1  UNL1        0.2105
     40 H          22.1316   71.9958    5.3058 H       1  UNL1        0.2105
     41 C          24.7701   71.0533    2.7973 C.3     1  UNL1        0.1693
     42 O          25.9931   71.7283    2.4979 O.3     1  UNL1       -0.3794
     43 H          26.7112   71.1362    2.7609 H       1  UNL1        0.2105
@<TRIPOS>BOND
     1    15    16   ar
     2    15    20   ar
     3    15     6    1
     4    16    17   ar
     5    16    21    2
     6    17    18   ar
     7    17    23    1
     8    18    19   ar
     9    18    22    2
    10    19    20   ar
    11     6     7    1
    12     6    11    1
    13     7     8    1
    14     7     9    1
    15     8    13    1
    16     9    10    1
    17     9    12    1
    18    10    11    1
    19    10     5    1
    20    12    14    1
    21     5     4    1
    22     4     1    1
    23     1     2    2
    24     1     3    1
    25     1    24    1
    26    24    25    1
    27    25    26    2
    28    25    27    1
    29    25    28    1
    30    28    29    1
    31    29    30    1
    32    29    37    1
    33    30    31    1
    34    30    34    1
    35    31    32    1
    36    31    35    1
    37    32    33    1
    38    32    36    1
    39    33    41    1
    40    33    37    1
    41    41    42    1
    42    34    38    1
    43    35    39    1
    44    36    40    1
    45    42    43    1
@<TRIPOS>MOLECULE
GDU
 43 45 0 0 0
SMALL
GASTEIGER

@<TRIPOS>ATOM
      1 P          16.1421   69.6009   -2.4532 P.3     1  UNL1        0.2189
      2 O          17.0245   68.6800   -1.7030 O.2     1  UNL1       -0.5170
      3 O          15.9713   69.0691   -3.9635 O.3     1  UNL1       -0.4371
      4 O          14.7017   69.6643   -1.7405 O.3     1  UNL1       -0.3112
      5 C          14.8281   68.9841   -0.4907 C.3     1  UNL1        0.1811
      6 C          12.4852   67.4590    1.7703 C.3     1  UNL1        0.2383
      7 C          12.1329   68.9682    1.8045 C.3     1  UNL1        0.1895
      8 O          10.7384   69.1609    2.0525 O.3     1  UNL1       -0.3779
      9 C          12.5073   69.4218    0.3694 C.3     1  UNL1        0.1713
     10 C          13.4901   68.3419   -0.1200 C.3     1  UNL1        0.1764
     11 O          13.6779   67.4098    0.9589 O.3     1  UNL1       -0.3308
     12 O          11.3449   69.4631   -0.4607 O.3     1  UNL1       -0.3794
     13 H          10.5862   70.1162    2.0617 H       1  UNL1        0.2106
     14 H          10.7447   70.1127   -0.0702 H       1  UNL1        0.2105
     15 N          12.7580   66.9602    3.1192 N.ar    1  UNL1       -0.2551
     16 C          13.0783   67.8249    4.0979 C.ar    1  UNL1        0.3323
     17 N          13.3303   67.3926    5.3475 N.ar    1  UNL1       -0.2743
     18 C          13.2748   66.0782    5.6364 C.ar    1  UNL1        0.2626
     19 C          12.9444   65.1552    4.6142 C.ar    1  UNL1        0.0795
     20 C          12.6921   65.6161    3.3706 C.ar    1  UNL1        0.0869
     21 O          13.1317   69.0136    3.8525 O.2     1  UNL1       -0.2464
     22 O          13.5075   65.6855    6.7661 O.2     1  UNL1       -0.2670
     23 H          13.5557   68.0312    6.0426 H       1  UNL1        0.1734
     24 O          16.7969   71.0717   -2.4745 O.3     1  UNL1       -0.2703
     25 P          18.0778   70.9982   -3.4461 P.3     1  UNL1        0.2208
     26 O          18.7608   72.3106   -3.4617 O.2     1  UNL1       -0.5170
     27 O          19.0948   69.8708   -2.9086 O.3     1  UNL1       -0.4371
     28 O          17.6012   70.6224   -4.9367 O.3     1  UNL1       -0.2858
     29 C          17.7636   71.7970   -5.7328 C.3     1  UNL1        0.2704
     30 C          16.5876   71.9213   -6.7027 C.3     1  UNL1        0.1967
     31 C          16.5362   70.6715   -7.5869 C.3     1  UNL1        0.1715
     32 C          17.9072   70.4802   -8.2452 C.3     1  UNL1        0.1694
     33 C          18.9838   70.4632   -7.1571 C.3     1  UNL1        0.1761
     34 O          15.3694   72.0382   -5.9654 O.3     1  UNL1       -0.3775
     35 O          15.5361   70.8368   -8.5943 O.3     1  UNL1       -0.3794
     36 O          18.1555   71.5546   -9.1529 O.3     1  UNL1       -0.3794
     37 O          18.9855   71.7093   -6.4621 O.3     1  UNL1       -0.3258
     38 H          15.4491   72.8320   -5.4191 H       1  UNL1        0.2106
     39 H          14.6959   70.9655   -8.1361 H       1  UNL1        0.2105
     40 H          17.4522   71.5300   -9.8148 H       1  UNL1        0.2105
     41 C          20.3537   70.2383   -7.8010 C.3     1  UNL1        0.1693
     42 O          20.2133   69.3696   -8.9265 O.3     1  UNL1       -0.3794
     43 H          21.0966   69.2544   -9.3031 H       1  UNL1        0.2105
@<TRIPOS>BOND
     1    15    16   ar
     2    15    20   ar
     3    15     6    1
     4    16    17   ar
     5    16    21    2
     6    17    18   ar
     7    17    23    1
     8    18    19   ar
     9    18    22    2
    10    19    20   ar
    11     6     7    1
    12     6    11    1
    13     7     8    1
    14     7     9    1
    15     8    13    1
    16     9    10    1
    17     9    12    1
    18    10    11    1
    19    10     5    1
    20    12    14    1
    21     5     4    1
    22     4     1    1
    23     1     2    2
    24     1     3    1
    25     1    24    1
    26    24    25    1
    27    25    26    2
    28    25    27    1
    29    25    28    1
    30    28    29    1
    31    29    30    1
    32    29    37    1
    33    30    31    1
    34    30    34    1
    35    31    32    1
    36    31    35    1
    37    32    33    1
    38    32    36    1
    39    33    41    1
    40    33    37    1
    41    41    42    1
    42    34    38    1
    43    35    39    1
    44    36    40    1
    45    42    43    1
@<TRIPOS>MOLECULE
GDU
 43 45 0 0 0
SMALL
GASTEIGER

@<TRIPOS>ATOM
      1 P          21.7227   71.7005   -0.5212 P.3     1  UNL1        0.2189
      2 O          20.8992   70.6648    0.1412 O.2     1  UNL1       -0.5170
      3 O          22.9757   71.0026   -1.2533 O.3     1  UNL1       -0.4371
      4 O          20.8316   72.4805   -1.6095 O.3     1  UNL1       -0.3112
      5 C          20.7374   71.6301   -2.7533 C.3     1  UNL1        0.1811
      6 C          18.2930   71.2982   -5.3690 C.3     1  UNL1        0.2383
      7 C          18.2424   69.9446   -4.6152 C.3     1  UNL1        0.1895
      8 O          16.9304   69.3800   -4.6686 O.3     1  UNL1       -0.3779
      9 C          18.6050   70.3655   -3.1672 C.3     1  UNL1        0.1713
     10 C          19.3269   71.7149   -3.3393 C.3     1  UNL1        0.1764
     11 O          19.3993   71.9878   -4.7494 O.3     1  UNL1       -0.3308
     12 O          17.4220   70.5200   -2.3808 O.3     1  UNL1       -0.3794
     13 H          16.9668   68.5436   -4.1838 H       1  UNL1        0.2106
     14 H          16.9851   69.6578   -2.3596 H       1  UNL1        0.2105
     15 N          18.5497   71.0878   -6.7947 N.ar    1  UNL1       -0.2551
     16 C          17.6532   71.5111   -7.7033 C.ar    1  UNL1        0.3323
     17 N          17.8667   71.3331   -9.0204 N.ar    1  UNL1       -0.2743
     18 C          18.9838   70.7158   -9.4508 C.ar    1  UNL1        0.2626
     19 C          19.9342   70.2596   -8.5049 C.ar    1  UNL1        0.0795
     20 C          19.6972   70.4547   -7.1903 C.ar    1  UNL1        0.0869
     21 O          16.6411   72.0700   -7.3301 O.2     1  UNL1       -0.2464
     22 O          19.1757   70.5501  -10.6425 O.2     1  UNL1       -0.2670
     23 H          17.2110   71.6488   -9.6623 H       1  UNL1        0.1734
     24 O          22.2601   72.7436    0.5814 O.3     1  UNL1       -0.2703
     25 P          22.4517   71.9187    1.9499 P.3     1  UNL1        0.2208
     26 O          21.1488   71.8009    2.6410 O.2     1  UNL1       -0.5170
     27 O          23.0158   70.4478    1.6151 O.3     1  UNL1       -0.4371
     28 O          23.4968   72.6894    2.9005 O.3     1  UNL1       -0.2858
     29 C          23.2082   74.0838    2.7899 C.3     1  UNL1        0.2704
     30 C          24.4814   74.8381    2.4035 C.3     1  UNL1        0.1967
     31 C          25.5513   74.5903    3.4714 C.3     1  UNL1        0.1715
     32 C          24.9687   74.9530    4.8421 C.3     1  UNL1        0.1694
     33 C          23.6586   74.1877    5.0444 C.3     1  UNL1        0.1761
     34 O          24.9494   74.3702    1.1374 O.3     1  UNL1       -0.3775
     35 O          26.6953   75.4037    3.2028 O.3     1  UNL1       -0.3794
     36 O          24.7205   76.3584    4.8991 O.3     1  UNL1       -0.3794
     37 O          22.7196   74.5667    4.0391 O.3     1  UNL1       -0.3258
     38 H          24.2432   74.5394    0.4990 H       1  UNL1        0.2106
     39 H          27.0198   75.1505    2.3294 H       1  UNL1        0.2105
     40 H          25.5695   76.7983    4.7613 H       1  UNL1        0.2105
     41 C          23.0859   74.5165    6.4249 C.3     1  UNL1        0.1693
     42 O          23.3235   73.4217    7.3114 O.3     1  UNL1       -0.3794
     43 H          22.9490   73.6688    8.1681 H       1  UNL1        0.2105
@<TRIPOS>BOND
     1    15    16   ar
     2    15    20   ar
     3    15     6    1
     4    16    17   ar
     5    16    21    2
     6    17    18   ar
     7    17    23    1
     8    18    19   ar
     9    18    22    2
    10    19    20   ar
    11     6     7    1
    12     6    11    1
    13     7     8    1
    14     7     9    1
    15     8    13    1
    16     9    10    1
    17     9    12    1
    18    10    11    1
    19    10     5    1
    20    12    14    1
    21     5     4    1
    22     4     1    1
    23     1     2    2
    24     1     3    1
    25     1    24    1
    26    24    25    1
    27    25    26    2
    28    25    27    1
    29    25    28    1
    30    28    29    1
    31    29    30    1
    32    29    37    1
    33    30    31    1
    34    30    34    1
    35    31    32    1
    36    31    35    1
    37    32    33    1
    38    32    36    1
    39    33    41    1
    40    33    37    1
    41    41    42    1
    42    34    38    1
    43    35    39    1
    44    36    40    1
    45    42    43    1
@<TRIPOS>MOLECULE
GDU
 43 45 0 0 0
SMALL
GASTEIGER

@<TRIPOS>ATOM
      1 P          17.3730   70.3119   -2.5790 P.3     1  UNL1        0.2189
      2 O          17.6039   71.5751   -3.3141 O.2     1  UNL1       -0.5170
      3 O          18.6878   69.9384   -1.7276 O.3     1  UNL1       -0.4371
      4 O          16.1222   70.4906   -1.5838 O.3     1  UNL1       -0.3112
      5 C          15.5849   69.1867   -1.3562 C.3     1  UNL1        0.1811
      6 C          12.6057   68.5203    0.5431 C.3     1  UNL1        0.2383
      7 C          13.1402   69.8585    1.1145 C.3     1  UNL1        0.1895
      8 O          12.0664   70.6797    1.5791 O.3     1  UNL1       -0.3779
      9 C          13.8238   70.4912   -0.1255 C.3     1  UNL1        0.1713
     10 C          14.0883   69.2947   -1.0582 C.3     1  UNL1        0.1764
     11 O          13.6391   68.1103   -0.3774 O.3     1  UNL1       -0.3308
     12 O          12.9522   71.4367   -0.7485 O.3     1  UNL1       -0.3794
     13 H          12.4646   71.4926    1.9205 H       1  UNL1        0.2106
     14 H          12.7774   72.1286   -0.0963 H       1  UNL1        0.2105
     15 N          12.4421   67.5305    1.6091 N.ar    1  UNL1       -0.2551
     16 C          13.5280   66.9949    2.1941 C.ar    1  UNL1        0.3323
     17 N          13.4052   66.0855    3.1789 N.ar    1  UNL1       -0.2743
     18 C          12.1854   65.6882    3.5894 C.ar    1  UNL1        0.2626
     19 C          11.0327   66.2397    2.9784 C.ar    1  UNL1        0.0795
     20 C          11.1843   67.1530    1.9960 C.ar    1  UNL1        0.0869
     21 O          14.6349   67.3437    1.8348 O.2     1  UNL1       -0.2464
     22 O          12.0733   64.8616    4.4775 O.2     1  UNL1       -0.2670
     23 H          14.1997   65.7125    3.5929 H       1  UNL1        0.1734
     24 O          17.0613   69.1309   -3.6280 O.3     1  UNL1       -0.2703
     25 P          16.9275   69.8174   -5.0774 P.3     1  UNL1        0.2208
     26 O          16.1732   68.9202   -5.9803 O.2     1  UNL1       -0.5170
     27 O          16.1450   71.2182   -4.9372 O.3     1  UNL1       -0.4371
     28 O          18.3943   70.0819   -5.6846 O.3     1  UNL1       -0.2858
     29 C          18.3074   71.2660   -6.4785 C.3     1  UNL1        0.2704
     30 C          18.3825   70.8925   -7.9597 C.3     1  UNL1        0.1967
     31 C          19.7019   70.1603   -8.2231 C.3     1  UNL1        0.1715
     32 C          20.8556   71.0297   -7.7104 C.3     1  UNL1        0.1694
     33 C          20.5937   71.3913   -6.2463 C.3     1  UNL1        0.1761
     34 O          17.2855   70.0406   -8.2947 O.3     1  UNL1       -0.3775
     35 O          19.8542   69.9349   -9.6261 O.3     1  UNL1       -0.3794
     36 O          20.9410   72.2208   -8.4939 O.3     1  UNL1       -0.3794
     37 O          19.3832   72.1399   -6.1445 O.3     1  UNL1       -0.3258
     38 H          16.4782   70.5384   -8.1068 H       1  UNL1        0.2106
     39 H          19.1033   69.3964   -9.9062 H       1  UNL1        0.2105
     40 H          21.1002   71.9450   -9.4060 H       1  UNL1        0.2105
     41 C          21.7571   72.2312   -5.7142 C.3     1  UNL1        0.1693
     42 O          22.8735   72.1107   -6.5975 O.3     1  UNL1       -0.3794
     43 H          23.5829   72.6540   -6.2276 H       1  UNL1        0.2105
@<TRIPOS>BOND
     1    15    16   ar
     2    15    20   ar
     3    15     6    1
     4    16    17   ar
     5    16    21    2
     6    17    18   ar
     7    17    23    1
     8    18    19   ar
     9    18    22    2
    10    19    20   ar
    11     6     7    1
    12     6    11    1
    13     7     8    1
    14     7     9    1
    15     8    13    1
    16     9    10    1
    17     9    12    1
    18    10    11    1
    19    10     5    1
    20    12    14    1
    21     5     4    1
    22     4     1    1
    23     1     2    2
    24     1     3    1
    25     1    24    1
    26    24    25    1
    27    25    26    2
    28    25    27    1
    29    25    28    1
    30    28    29    1
    31    29    30    1
    32    29    37    1
    33    30    31    1
    34    30    34    1
    35    31    32    1
    36    31    35    1
    37    32    33    1
    38    32    36    1
    39    33    41    1
    40    33    37    1
    41    41    42    1
    42    34    38    1
    43    35    39    1
    44    36    40    1
    45    42    43    1
@<TRIPOS>MOLECULE
GDU
 43 45 0 0 0
SMALL
GASTEIGER

@<TRIPOS>ATOM
      1 P          20.7362   73.6887   -2.8922 P.3     1  UNL1        0.2189
      2 O          20.9991   74.9668   -2.1945 O.2     1  UNL1       -0.5170
      3 O          21.0164   73.8699   -4.4676 O.3     1  UNL1       -0.4371
      4 O          21.7032   72.5464   -2.3031 O.3     1  UNL1       -0.3112
      5 C          22.4119   73.1286   -1.2080 C.3     1  UNL1        0.1811
      6 C          24.2932   71.8375    1.5707 C.3     1  UNL1        0.2383
      7 C          22.9013   72.1722    2.1651 C.3     1  UNL1        0.1895
      8 O          22.5818   71.2900    3.2434 O.3     1  UNL1       -0.3779
      9 C          21.9636   71.9280    0.9542 C.3     1  UNL1        0.1713
     10 C          22.8967   72.0242   -0.2671 C.3     1  UNL1        0.1764
     11 O          24.2124   72.3401    0.2200 O.3     1  UNL1       -0.3308
     12 O          21.3685   70.6315    1.0367 O.3     1  UNL1       -0.3794
     13 H          21.7083   71.5505    3.5674 H       1  UNL1        0.2106
     14 H          20.8459   70.6144    1.8499 H       1  UNL1        0.2105
     15 N          25.3522   72.5228    2.3136 N.ar    1  UNL1       -0.2551
     16 C          26.4732   71.8574    2.6435 C.ar    1  UNL1        0.3323
     17 N          27.4634   72.4652    3.3232 N.ar    1  UNL1       -0.2743
     18 C          27.3418   73.7543    3.6943 C.ar    1  UNL1        0.2626
     19 C          26.1641   74.4661    3.3587 C.ar    1  UNL1        0.0795
     20 C          25.1883   73.8336    2.6728 C.ar    1  UNL1        0.0869
     21 O          26.5974   70.6943    2.3152 O.2     1  UNL1       -0.2464
     22 O          28.2355   74.3039    4.3137 O.2     1  UNL1       -0.2670
     23 H          28.2674   71.9710    3.5492 H       1  UNL1        0.1734
     24 O          19.2001   73.2618   -2.6674 O.3     1  UNL1       -0.2703
     25 P          19.0262   71.7932   -3.3023 P.3     1  UNL1        0.2208
     26 O          20.2184   70.9755   -2.9873 O.2     1  UNL1       -0.5170
     27 O          17.7159   71.0921   -2.6814 O.3     1  UNL1       -0.4371
     28 O          18.8634   71.9134   -4.8989 O.3     1  UNL1       -0.2858
     29 C          19.2446   70.6526   -5.4510 C.3     1  UNL1        0.2704
     30 C          20.3697   70.8605   -6.4661 C.3     1  UNL1        0.1967
     31 C          19.8799   71.8069   -7.5664 C.3     1  UNL1        0.1715
     32 C          18.5737   71.2512   -8.1451 C.3     1  UNL1        0.1694
     33 C          17.5834   71.0155   -7.0019 C.3     1  UNL1        0.1761
     34 O          21.5048   71.4309   -5.8123 O.3     1  UNL1       -0.3775
     35 O          20.8654   71.8951   -8.5976 O.3     1  UNL1       -0.3794
     36 O          18.8354   70.0193   -8.8187 O.3     1  UNL1       -0.3794
     37 O          18.1190   70.0563   -6.0913 O.3     1  UNL1       -0.3258
     38 H          21.7738   70.8065   -5.1249 H       1  UNL1        0.2106
     39 H          21.6700   72.2364   -8.1873 H       1  UNL1        0.2105
     40 H          19.4659   70.2144   -9.5241 H       1  UNL1        0.2105
     41 C          16.2632   70.4927   -7.5727 C.3     1  UNL1        0.1693
     42 O          15.6716   69.5816   -6.6449 O.3     1  UNL1       -0.3794
     43 H          14.8438   69.2767   -7.0411 H       1  UNL1        0.2105
@<TRIPOS>BOND
     1    15    16   ar
     2    15    20   ar
     3    15     6    1
     4    16    17   ar
     5    16    21    2
     6    17    18   ar
     7    17    23    1
     8    18    19   ar
     9    18    22    2
    10    19    20   ar
    11     6     7    1
    12     6    11    1
    13     7     8    1
    14     7     9    1
    15     8    13    1
    16     9    10    1
    17     9    12    1
    18    10    11    1
    19    10     5    1
    20    12    14    1
    21     5     4    1
    22     4     1    1
    23     1     2    2
    24     1     3    1
    25     1    24    1
    26    24    25    1
    27    25    26    2
    28    25    27    1
    29    25    28    1
    30    28    29    1
    31    29    30    1
    32    29    37    1
    33    30    31    1
    34    30    34    1
    35    31    32    1
    36    31    35    1
    37    32    33    1
    38    32    36    1
    39    33    41    1
    40    33    37    1
    41    41    42    1
    42    34    38    1
    43    35    39    1
    44    36    40    1
    45    42    43    1
@<TRIPOS>MOLECULE
GDU
 43 45 0 0 0
SMALL
GASTEIGER

@<TRIPOS>ATOM
      1 P          20.6306   72.4723   -1.4945 P.3     1  UNL1        0.2189
      2 O          21.4145   73.6660   -1.1070 O.2     1  UNL1       -0.5170
      3 O          19.1966   72.9336   -2.0635 O.3     1  UNL1       -0.4371
      4 O          21.4221   71.6562   -2.6322 O.3     1  UNL1       -0.3112
      5 C          21.6098   72.5517   -3.7291 C.3     1  UNL1        0.1811
      6 C          20.4463   71.0989   -6.8053 C.3     1  UNL1        0.2383
      7 C          21.0095   72.4831   -7.2172 C.3     1  UNL1        0.1895
      8 O          21.5337   72.4453   -8.5465 O.3     1  UNL1       -0.3779
      9 C          22.1440   72.6937   -6.1810 C.3     1  UNL1        0.1713
     10 C          21.7722   71.7504   -5.0220 C.3     1  UNL1        0.1764
     11 O          20.5268   71.1177   -5.3642 O.3     1  UNL1       -0.3308
     12 O          23.4073   72.3328   -6.7430 O.3     1  UNL1       -0.3794
     13 H          21.8662   73.3327   -8.7405 H       1  UNL1        0.2106
     14 H          23.5556   72.9184   -7.4978 H       1  UNL1        0.2105
     15 N          19.0568   70.9541   -7.2424 N.ar    1  UNL1       -0.2551
     16 C          18.7651   70.1552   -8.2839 C.ar    1  UNL1        0.3323
     17 N          17.4954   70.0019   -8.7036 N.ar    1  UNL1       -0.2743
     18 C          16.4923   70.6580   -8.0893 C.ar    1  UNL1        0.2626
     19 C          16.7852   71.5075   -6.9944 C.ar    1  UNL1        0.0795
     20 C          18.0668   71.6399   -6.5913 C.ar    1  UNL1        0.0869
     21 O          19.6594   69.5564   -8.8477 O.2     1  UNL1       -0.2464
     22 O          15.3432   70.5236   -8.4714 O.2     1  UNL1       -0.2670
     23 H          17.3026   69.4178   -9.4543 H       1  UNL1        0.1734
     24 O          20.4174   71.5302   -0.2064 O.3     1  UNL1       -0.2703
     25 P          21.8770   71.2398    0.4061 P.3     1  UNL1        0.2208
     26 O          21.8332   70.0058    1.2212 O.2     1  UNL1       -0.5170
     27 O          22.9348   71.0524   -0.7940 O.3     1  UNL1       -0.4371
     28 O          22.3288   72.4782    1.3295 O.3     1  UNL1       -0.2858
     29 C          22.5910   71.9515    2.6308 C.3     1  UNL1        0.2704
     30 C          21.7140   72.6703    3.6572 C.3     1  UNL1        0.1967
     31 C          22.0185   74.1707    3.6096 C.3     1  UNL1        0.1715
     32 C          23.5279   74.3704    3.7875 C.3     1  UNL1        0.1694
     33 C          24.2677   73.5235    2.7490 C.3     1  UNL1        0.1761
     34 O          20.3367   72.4498    3.3480 O.3     1  UNL1       -0.3775
     35 O          21.3165   74.8367    4.6613 O.3     1  UNL1       -0.3794
     36 O          23.9117   73.9657    5.1023 O.3     1  UNL1       -0.3794
     37 O          23.9670   72.1433    2.9508 O.3     1  UNL1       -0.3258
     38 H          20.1925   71.4943    3.3826 H       1  UNL1        0.2106
     39 H          20.3757   74.6747    4.5162 H       1  UNL1        0.2105
     40 H          23.4184   74.5200    5.7210 H       1  UNL1        0.2105
     41 C          25.7753   73.7420    2.8956 C.3     1  UNL1        0.1693
     42 O          26.0135   74.9903    3.5485 O.3     1  UNL1       -0.3794
     43 H          26.9727   75.0892    3.6218 H       1  UNL1        0.2105
@<TRIPOS>BOND
     1    15    16   ar
     2    15    20   ar
     3    15     6    1
     4    16    17   ar
     5    16    21    2
     6    17    18   ar
     7    17    23    1
     8    18    19   ar
     9    18    22    2
    10    19    20   ar
    11     6     7    1
    12     6    11    1
    13     7     8    1
    14     7     9    1
    15     8    13    1
    16     9    10    1
    17     9    12    1
    18    10    11    1
    19    10     5    1
    20    12    14    1
    21     5     4    1
    22     4     1    1
    23     1     2    2
    24     1     3    1
    25     1    24    1
    26    24    25    1
    27    25    26    2
    28    25    27    1
    29    25    28    1
    30    28    29    1
    31    29    30    1
    32    29    37    1
    33    30    31    1
    34    30    34    1
    35    31    32    1
    36    31    35    1
    37    32    33    1
    38    32    36    1
    39    33    41    1
    40    33    37    1
    41    41    42    1
    42    34    38    1
    43    35    39    1
    44    36    40    1
    45    42    43    1
@<TRIPOS>MOLECULE
GDU
 43 45 0 0 0
SMALL
GASTEIGER

@<TRIPOS>ATOM
      1 P          15.9622   69.5775   -2.3304 P.3     1  UNL1        0.2189
      2 O          16.9502   68.7096   -1.6521 O.2     1  UNL1       -0.5170
      3 O          15.7900   69.1016   -3.8591 O.3     1  UNL1       -0.4371
      4 O          14.5469   69.4735   -1.5734 O.3     1  UNL1       -0.3112
      5 C          14.7519   68.6504   -0.4241 C.3     1  UNL1        0.1811
      6 C          11.4010   67.5297    0.2415 C.3     1  UNL1        0.2383
      7 C          12.3056   66.5190    0.9919 C.3     1  UNL1        0.1895
      8 O          11.6506   66.0172    2.1591 O.3     1  UNL1       -0.3779
      9 C          13.5248   67.3972    1.3763 C.3     1  UNL1        0.1713
     10 C          13.4597   68.5794    0.3916 C.3     1  UNL1        0.1764
     11 O          12.3417   68.3500   -0.4835 O.3     1  UNL1       -0.3308
     12 O          13.4061   67.8537    2.7251 O.3     1  UNL1       -0.3794
     13 H          12.2634   65.3967    2.5778 H       1  UNL1        0.2106
     14 H          13.3934   67.0671    3.2870 H       1  UNL1        0.2105
     15 N          10.5035   66.8346   -0.6826 N.ar    1  UNL1       -0.2551
     16 C           9.2692   67.3198   -0.9051 C.ar    1  UNL1        0.3323
     17 N           8.4256   66.7019   -1.7527 N.ar    1  UNL1       -0.2743
     18 C           8.8035   65.5756   -2.3875 C.ar    1  UNL1        0.2626
     19 C          10.0986   65.0498   -2.1585 C.ar    1  UNL1        0.0795
     20 C          10.9261   65.6918   -1.3067 C.ar    1  UNL1        0.0869
     21 O           8.9144   68.3352   -0.3401 O.2     1  UNL1       -0.2464
     22 O           8.0389   65.0129   -3.1512 O.2     1  UNL1       -0.2670
     23 H           7.5400   67.0684   -1.9046 H       1  UNL1        0.1734
     24 O          16.4780   71.1024   -2.2994 O.3     1  UNL1       -0.2703
     25 P          18.0148   71.0849   -2.7768 P.3     1  UNL1        0.2208
     26 O          18.5877   72.4427   -2.6446 O.2     1  UNL1       -0.5170
     27 O          18.8502   70.0588   -1.8584 O.3     1  UNL1       -0.4371
     28 O          18.0951   70.6149   -4.3139 O.3     1  UNL1       -0.2858
     29 C          17.9898   71.7931   -5.1142 C.3     1  UNL1        0.2704
     30 C          16.7959   71.6606   -6.0609 C.3     1  UNL1        0.1967
     31 C          16.9935   70.4238   -6.9426 C.3     1  UNL1        0.1715
     32 C          18.3611   70.5238   -7.6277 C.3     1  UNL1        0.1694
     33 C          19.4374   70.7407   -6.5611 C.3     1  UNL1        0.1761
     34 O          15.5949   71.5207   -5.2998 O.3     1  UNL1       -0.3775
     35 O          15.9620   70.3684   -7.9303 O.3     1  UNL1       -0.3794
     36 O          18.3588   71.6217   -8.5412 O.3     1  UNL1       -0.3794
     37 O          19.1884   71.9625   -5.8674 O.3     1  UNL1       -0.3258
     38 H          15.5150   72.3162   -4.7559 H       1  UNL1        0.2106
     39 H          15.1226   70.3186   -7.4558 H       1  UNL1        0.2105
     40 H          17.6642   71.4454   -9.1890 H       1  UNL1        0.2105
     41 C          20.8114   70.8077   -7.2317 C.3     1  UNL1        0.1693
     42 O          21.0442   69.6011   -7.9604 O.3     1  UNL1       -0.3794
     43 H          21.9176   69.6840   -8.3673 H       1  UNL1        0.2105
@<TRIPOS>BOND
     1    15    16   ar
     2    15    20   ar
     3    15     6    1
     4    16    17   ar
     5    16    21    2
     6    17    18   ar
     7    17    23    1
     8    18    19   ar
     9    18    22    2
    10    19    20   ar
    11     6     7    1
    12     6    11    1
    13     7     8    1
    14     7     9    1
    15     8    13    1
    16     9    10    1
    17     9    12    1
    18    10    11    1
    19    10     5    1
    20    12    14    1
    21     5     4    1
    22     4     1    1
    23     1     2    2
    24     1     3    1
    25     1    24    1
    26    24    25    1
    27    25    26    2
    28    25    27    1
    29    25    28    1
    30    28    29    1
    31    29    30    1
    32    29    37    1
    33    30    31    1
    34    30    34    1
    35    31    32    1
    36    31    35    1
    37    32    33    1
    38    32    36    1
    39    33    41    1
    40    33    37    1
    41    41    42    1
    42    34    38    1
    43    35    39    1
    44    36    40    1
    45    42    43    1
@<TRIPOS>MOLECULE
GDU
 43 45 0 0 0
SMALL
GASTEIGER

@<TRIPOS>ATOM
      1 P          22.2132   72.4488   -0.2970 P.3     1  UNL1        0.2189
      2 O          21.3264   71.2911   -0.5475 O.2     1  UNL1       -0.5170
      3 O          23.7052   71.9257    0.0083 O.3     1  UNL1       -0.4371
      4 O          22.2330   73.4006   -1.5933 O.3     1  UNL1       -0.3112
      5 C          21.2485   72.8922   -2.4950 C.3     1  UNL1        0.1811
      6 C          21.4243   71.1573   -5.6392 C.3     1  UNL1        0.2383
      7 C          22.0802   72.5340   -5.9173 C.3     1  UNL1        0.1895
      8 O          23.0887   72.4244   -6.9244 O.3     1  UNL1       -0.3779
      9 C          22.7077   72.8787   -4.5415 C.3     1  UNL1        0.1713
     10 C          21.9238   72.0064   -3.5435 C.3     1  UNL1        0.1764
     11 O          20.9271   71.2873   -4.2904 O.3     1  UNL1       -0.3308
     12 O          24.0963   72.5421   -4.5273 O.3     1  UNL1       -0.3794
     13 H          23.4552   73.3108   -7.0497 H       1  UNL1        0.2106
     14 H          24.5212   73.0768   -5.2116 H       1  UNL1        0.2105
     15 N          20.3243   70.9097   -6.5728 N.ar    1  UNL1       -0.2551
     16 C          19.1213   70.5362   -6.1019 C.ar    1  UNL1        0.3323
     17 N          18.0924   70.3058   -6.9386 N.ar    1  UNL1       -0.2743
     18 C          18.2554   70.4369   -8.2692 C.ar    1  UNL1        0.2626
     19 C          19.5186   70.8241   -8.7798 C.ar    1  UNL1        0.0795
     20 C          20.5323   71.0531   -7.9182 C.ar    1  UNL1        0.0869
     21 O          18.9590   70.4143   -4.9041 O.2     1  UNL1       -0.2464
     22 O          17.3259   70.2239   -9.0276 O.2     1  UNL1       -0.2670
     23 H          17.2299   70.0411   -6.5811 H       1  UNL1        0.1734
     24 O          21.6668   73.2777    0.9707 O.3     1  UNL1       -0.2703
     25 P          21.6901   72.2749    2.2291 P.3     1  UNL1        0.2208
     26 O          20.3623   72.2720    2.8819 O.2     1  UNL1       -0.5170
     27 O          22.0419   70.7869    1.7229 O.3     1  UNL1       -0.4371
     28 O          22.8060   72.7598    3.2825 O.3     1  UNL1       -0.2858
     29 C          22.8517   74.1855    3.2117 C.3     1  UNL1        0.2704
     30 C          24.2927   74.6373    2.9692 C.3     1  UNL1        0.1967
     31 C          25.1751   74.1239    4.1112 C.3     1  UNL1        0.1715
     32 C          24.5652   74.5758    5.4429 C.3     1  UNL1        0.1694
     33 C          23.1030   74.1266    5.4986 C.3     1  UNL1        0.1761
     34 O          24.7581   74.1065    1.7271 O.3     1  UNL1       -0.3775
     35 O          26.4932   74.6597    3.9776 O.3     1  UNL1       -0.3794
     36 O          24.6370   75.9988    5.5429 O.3     1  UNL1       -0.3794
     37 O          22.3714   74.7360    4.4360 O.3     1  UNL1       -0.3258
     38 H          24.1707   74.4492    1.0397 H       1  UNL1        0.2106
     39 H          26.8317   74.3609    3.1242 H       1  UNL1        0.2105
     40 H          25.5725   76.2357    5.4976 H       1  UNL1        0.2105
     41 C          22.4940   74.5431    6.8394 C.3     1  UNL1        0.1693
     42 O          23.5181   74.5835    7.8347 O.3     1  UNL1       -0.3794
     43 H          23.0940   74.8501    8.6620 H       1  UNL1        0.2105
@<TRIPOS>BOND
     1    15    16   ar
     2    15    20   ar
     3    15     6    1
     4    16    17   ar
     5    16    21    2
     6    17    18   ar
     7    17    23    1
     8    18    19   ar
     9    18    22    2
    10    19    20   ar
    11     6     7    1
    12     6    11    1
    13     7     8    1
    14     7     9    1
    15     8    13    1
    16     9    10    1
    17     9    12    1
    18    10    11    1
    19    10     5    1
    20    12    14    1
    21     5     4    1
    22     4     1    1
    23     1     2    2
    24     1     3    1
    25     1    24    1
    26    24    25    1
    27    25    26    2
    28    25    27    1
    29    25    28    1
    30    28    29    1
    31    29    30    1
    32    29    37    1
    33    30    31    1
    34    30    34    1
    35    31    32    1
    36    31    35    1
    37    32    33    1
    38    32    36    1
    39    33    41    1
    40    33    37    1
    41    41    42    1
    42    34    38    1
    43    35    39    1
    44    36    40    1
    45    42    43    1
@<TRIPOS>MOLECULE
GDU
 43 45 0 0 0
SMALL
GASTEIGER

@<TRIPOS>ATOM
      1 P          21.7545   72.2866   -6.1332 P.3     1  UNL1        0.2189
      2 O          23.0926   72.7770   -6.5314 O.2     1  UNL1       -0.5170
      3 O          20.6499   73.4093   -6.4683 O.3     1  UNL1       -0.4371
      4 O          21.4133   70.9395   -6.9430 O.3     1  UNL1       -0.3112
      5 C          20.5737   71.3152   -8.0359 C.3     1  UNL1        0.1811
      6 C          17.3869   70.1201   -6.8768 C.3     1  UNL1        0.2383
      7 C          17.0373   71.1688   -7.9635 C.3     1  UNL1        0.1895
      8 O          15.8149   70.8316   -8.6230 O.3     1  UNL1       -0.3779
      9 C          18.2413   71.0455   -8.9332 C.3     1  UNL1        0.1713
     10 C          19.3474   70.4016   -8.0767 C.3     1  UNL1        0.1764
     11 O          18.8204   70.2319   -6.7494 O.3     1  UNL1       -0.3308
     12 O          17.9063   70.2081  -10.0416 O.3     1  UNL1       -0.3794
     13 H          15.6551   71.5203   -9.2834 H       1  UNL1        0.2106
     14 H          17.1713   70.6345  -10.5027 H       1  UNL1        0.2105
     15 N          16.7295   70.4475   -5.6105 N.ar    1  UNL1       -0.2551
     16 C          16.3907   69.4619   -4.7607 C.ar    1  UNL1        0.3323
     17 N          15.7886   69.7362   -3.5884 N.ar    1  UNL1       -0.2743
     18 C          15.5054   71.0090   -3.2509 C.ar    1  UNL1        0.2626
     19 C          15.8512   72.0570   -4.1388 C.ar    1  UNL1        0.0795
     20 C          16.4582   71.7543   -5.3060 C.ar    1  UNL1        0.0869
     21 O          16.6402   68.3089   -5.0512 O.2     1  UNL1       -0.2464
     22 O          14.9561   71.2579   -2.1922 O.2     1  UNL1       -0.2670
     23 H          15.5550   69.0128   -2.9852 H       1  UNL1        0.1734
     24 O          21.7445   71.9810   -4.5523 O.3     1  UNL1       -0.2703
     25 P          22.8760   72.9141   -3.8896 P.3     1  UNL1        0.2208
     26 O          24.2145   72.4135   -4.2728 O.2     1  UNL1       -0.5170
     27 O          22.6988   74.4266   -4.4141 O.3     1  UNL1       -0.4371
     28 O          22.7285   72.8823   -2.2873 O.3     1  UNL1       -0.2858
     29 C          22.1427   71.6243   -1.9494 C.3     1  UNL1        0.2704
     30 C          20.8444   71.8587   -1.1756 C.3     1  UNL1        0.1967
     31 C          21.1559   72.6671    0.0877 C.3     1  UNL1        0.1715
     32 C          22.2606   71.9477    0.8698 C.3     1  UNL1        0.1694
     33 C          23.4532   71.7082   -0.0593 C.3     1  UNL1        0.1761
     34 O          19.9236   72.5824   -1.9939 O.3     1  UNL1       -0.3775
     35 O          19.9808   72.7683    0.8948 O.3     1  UNL1       -0.3794
     36 O          21.7671   70.6977    1.3536 O.3     1  UNL1       -0.3794
     37 O          23.0553   70.8769   -1.1487 O.3     1  UNL1       -0.3258
     38 H          19.7624   72.0409   -2.7785 H       1  UNL1        0.2106
     39 H          19.3118   73.2145    0.3604 H       1  UNL1        0.2105
     40 H          21.0160   70.8966    1.9277 H       1  UNL1        0.2105
     41 C          24.5757   71.0207    0.7212 C.3     1  UNL1        0.1693
     42 O          24.0197   70.3170    1.8332 O.3     1  UNL1       -0.3794
     43 H          24.7579   69.8985    2.2971 H       1  UNL1        0.2105
@<TRIPOS>BOND
     1    15    16   ar
     2    15    20   ar
     3    15     6    1
     4    16    17   ar
     5    16    21    2
     6    17    18   ar
     7    17    23    1
     8    18    19   ar
     9    18    22    2
    10    19    20   ar
    11     6     7    1
    12     6    11    1
    13     7     8    1
    14     7     9    1
    15     8    13    1
    16     9    10    1
    17     9    12    1
    18    10    11    1
    19    10     5    1
    20    12    14    1
    21     5     4    1
    22     4     1    1
    23     1     2    2
    24     1     3    1
    25     1    24    1
    26    24    25    1
    27    25    26    2
    28    25    27    1
    29    25    28    1
    30    28    29    1
    31    29    30    1
    32    29    37    1
    33    30    31    1
    34    30    34    1
    35    31    32    1
    36    31    35    1
    37    32    33    1
    38    32    36    1
    39    33    41    1
    40    33    37    1
    41    41    42    1
    42    34    38    1
    43    35    39    1
    44    36    40    1
    45    42    43    1
@<TRIPOS>MOLECULE
GDU
 43 45 0 0 0
SMALL
GASTEIGER

@<TRIPOS>ATOM
      1 P          22.2634   73.6278   -4.8613 P.3     1  UNL1        0.2189
      2 O          22.3369   74.8554   -5.6842 O.2     1  UNL1       -0.5170
      3 O          23.4018   72.5935   -5.3379 O.3     1  UNL1       -0.4371
      4 O          22.4934   74.0036   -3.3145 O.3     1  UNL1       -0.3112
      5 C          21.4325   73.3931   -2.5781 C.3     1  UNL1        0.1811
      6 C          23.2200   71.5010   -0.0978 C.3     1  UNL1        0.2383
      7 C          21.7709   71.5846    0.4463 C.3     1  UNL1        0.1895
      8 O          21.4490   70.4264    1.2197 O.3     1  UNL1       -0.3779
      9 C          20.9355   71.6274   -0.8597 C.3     1  UNL1        0.1713
     10 C          21.9366   72.1029   -1.9289 C.3     1  UNL1        0.1764
     11 O          23.1901   72.3465   -1.2673 O.3     1  UNL1       -0.3308
     12 O          20.4358   70.3266   -1.1759 O.3     1  UNL1       -0.3794
     13 H          20.5390   70.5407    1.5274 H       1  UNL1        0.2106
     14 H          19.8639   70.0605   -0.4432 H       1  UNL1        0.2105
     15 N          24.1734   72.0158    0.8866 N.ar    1  UNL1       -0.2551
     16 C          24.8212   71.1611    1.6978 C.ar    1  UNL1        0.3323
     17 N          25.7054   71.6082    2.6090 N.ar    1  UNL1       -0.2743
     18 C          25.9490   72.9274    2.7298 C.ar    1  UNL1        0.2626
     19 C          25.2697   73.8399    1.8859 C.ar    1  UNL1        0.0795
     20 C          24.3912   73.3643    0.9778 C.ar    1  UNL1        0.0869
     21 O          24.6122   69.9683    1.6002 O.2     1  UNL1       -0.2464
     22 O          26.7456   73.3334    3.5575 O.2     1  UNL1       -0.2670
     23 H          26.1671   70.9769    3.1834 H       1  UNL1        0.1734
     24 O          20.8145   72.9489   -5.0402 O.3     1  UNL1       -0.2703
     25 P          20.6681   72.5648   -6.5962 P.3     1  UNL1        0.2208
     26 O          21.1921   73.6702   -7.4284 O.2     1  UNL1       -0.5170
     27 O          21.5056   71.2226   -6.8985 O.3     1  UNL1       -0.4371
     28 O          19.1166   72.3177   -6.9454 O.3     1  UNL1       -0.2858
     29 C          18.9628   70.9181   -7.1845 C.3     1  UNL1        0.2704
     30 C          17.9530   70.7023   -8.3128 C.3     1  UNL1        0.1967
     31 C          16.6156   71.3327   -7.9124 C.3     1  UNL1        0.1715
     32 C          16.1987   70.7724   -6.5479 C.3     1  UNL1        0.1694
     33 C          17.3418   70.9850   -5.5522 C.3     1  UNL1        0.1761
     34 O          18.4341   71.3165   -9.5097 O.3     1  UNL1       -0.3775
     35 O          15.6226   71.0130   -8.8891 O.3     1  UNL1       -0.3794
     36 O          15.9181   69.3773   -6.6698 O.3     1  UNL1       -0.3794
     37 O          18.5022   70.2823   -5.9945 O.3     1  UNL1       -0.3258
     38 H          19.2786   70.8949   -9.7196 H       1  UNL1        0.2106
     39 H          15.9312   71.3729   -9.7303 H       1  UNL1        0.2105
     40 H          15.1986   69.2914   -7.3088 H       1  UNL1        0.2105
     41 C          16.9225   70.4596   -4.1774 C.3     1  UNL1        0.1693
     42 O          17.0162   69.0341   -4.1642 O.3     1  UNL1       -0.3794
     43 H          16.7449   68.7439   -3.2825 H       1  UNL1        0.2105
@<TRIPOS>BOND
     1    15    16   ar
     2    15    20   ar
     3    15     6    1
     4    16    17   ar
     5    16    21    2
     6    17    18   ar
     7    17    23    1
     8    18    19   ar
     9    18    22    2
    10    19    20   ar
    11     6     7    1
    12     6    11    1
    13     7     8    1
    14     7     9    1
    15     8    13    1
    16     9    10    1
    17     9    12    1
    18    10    11    1
    19    10     5    1
    20    12    14    1
    21     5     4    1
    22     4     1    1
    23     1     2    2
    24     1     3    1
    25     1    24    1
    26    24    25    1
    27    25    26    2
    28    25    27    1
    29    25    28    1
    30    28    29    1
    31    29    30    1
    32    29    37    1
    33    30    31    1
    34    30    34    1
    35    31    32    1
    36    31    35    1
    37    32    33    1
    38    32    36    1
    39    33    41    1
    40    33    37    1
    41    41    42    1
    42    34    38    1
    43    35    39    1
    44    36    40    1
    45    42    43    1
@<TRIPOS>MOLECULE
GDU
 43 45 0 0 0
SMALL
GASTEIGER

@<TRIPOS>ATOM
      1 P          23.0561   71.1213    0.8477 P.3     1  UNL1        0.2189
      2 O          21.7978   70.3532    0.9756 O.2     1  UNL1       -0.5170
      3 O          24.0862   70.6587    1.9956 O.3     1  UNL1       -0.4371
      4 O          23.7065   70.8497   -0.5981 O.3     1  UNL1       -0.3112
      5 C          23.2775   71.9123   -1.4510 C.3     1  UNL1        0.1811
      6 C          20.9456   70.6518   -3.8802 C.3     1  UNL1        0.2383
      7 C          21.0407   72.1692   -4.1829 C.3     1  UNL1        0.1895
      8 O          20.8360   72.4254   -5.5741 O.3     1  UNL1       -0.3779
      9 C          22.5004   72.4920   -3.7700 C.3     1  UNL1        0.1713
     10 C          22.8816   71.3452   -2.8155 C.3     1  UNL1        0.1764
     11 O          21.7273   70.4988   -2.6764 O.3     1  UNL1       -0.3308
     12 O          23.3533   72.5021   -4.9164 O.3     1  UNL1       -0.3794
     13 H          20.9072   73.3826   -5.6948 H       1  UNL1        0.2106
     14 H          23.0283   73.2000   -5.5012 H       1  UNL1        0.2105
     15 N          19.5557   70.2564   -3.6465 N.ar    1  UNL1       -0.2551
     16 C          19.0600   70.2691   -2.3965 C.ar    1  UNL1        0.3323
     17 N          17.7845   69.9136   -2.1548 N.ar    1  UNL1       -0.2743
     18 C          16.9828   69.5277   -3.1661 C.ar    1  UNL1        0.2626
     19 C          17.4931   69.5039   -4.4872 C.ar    1  UNL1        0.0795
     20 C          18.7748   69.8695   -4.7021 C.ar    1  UNL1        0.0869
     21 O          19.7710   70.6153   -1.4741 O.2     1  UNL1       -0.2464
     22 O          15.8295   69.2011   -2.9478 O.2     1  UNL1       -0.2670
     23 H          17.4421   69.9327   -1.2470 H       1  UNL1        0.1734
     24 O          22.7435   72.6924    1.0104 O.3     1  UNL1       -0.2703
     25 P          21.7651   72.8445    2.2791 P.3     1  UNL1        0.2208
     26 O          20.4247   73.2703    1.8197 O.2     1  UNL1       -0.5170
     27 O          21.6470   71.4289    3.0382 O.3     1  UNL1       -0.4371
     28 O          22.3620   73.9457    3.2896 O.3     1  UNL1       -0.2858
     29 C          23.2788   73.2667    4.1488 C.3     1  UNL1        0.2704
     30 C          23.0453   73.7094    5.5941 C.3     1  UNL1        0.1967
     31 C          23.2378   75.2262    5.6882 C.3     1  UNL1        0.1715
     32 C          24.6124   75.5824    5.1108 C.3     1  UNL1        0.1694
     33 C          24.7262   74.9988    3.7003 C.3     1  UNL1        0.1761
     34 O          21.7155   73.3688    5.9901 O.3     1  UNL1       -0.3775
     35 O          23.1682   75.6350    7.0558 O.3     1  UNL1       -0.3794
     36 O          25.6364   75.0362    5.9432 O.3     1  UNL1       -0.3794
     37 O          24.6139   73.5775    3.7570 O.3     1  UNL1       -0.3258
     38 H          21.6375   72.4085    5.9085 H       1  UNL1        0.2106
     39 H          22.2948   75.3812    7.3797 H       1  UNL1        0.2105
     40 H          25.5224   75.4262    6.8197 H       1  UNL1        0.2105
     41 C          26.0824   75.3781    3.1013 C.3     1  UNL1        0.1693
     42 O          25.8927   75.8891    1.7807 O.3     1  UNL1       -0.3794
     43 H          26.7689   76.1163    1.4400 H       1  UNL1        0.2105
@<TRIPOS>BOND
     1    15    16   ar
     2    15    20   ar
     3    15     6    1
     4    16    17   ar
     5    16    21    2
     6    17    18   ar
     7    17    23    1
     8    18    19   ar
     9    18    22    2
    10    19    20   ar
    11     6     7    1
    12     6    11    1
    13     7     8    1
    14     7     9    1
    15     8    13    1
    16     9    10    1
    17     9    12    1
    18    10    11    1
    19    10     5    1
    20    12    14    1
    21     5     4    1
    22     4     1    1
    23     1     2    2
    24     1     3    1
    25     1    24    1
    26    24    25    1
    27    25    26    2
    28    25    27    1
    29    25    28    1
    30    28    29    1
    31    29    30    1
    32    29    37    1
    33    30    31    1
    34    30    34    1
    35    31    32    1
    36    31    35    1
    37    32    33    1
    38    32    36    1
    39    33    41    1
    40    33    37    1
    41    41    42    1
    42    34    38    1
    43    35    39    1
    44    36    40    1
    45    42    43    1
