@<TRIPOS>MOLECULE
*****
 43 45 0 0 0
SMALL
GASTEIGER

@<TRIPOS>ATOM
      1 P          23.1143   71.6084   -2.4205 P.3     1  UNL1        0.2189
      2 O          23.4579   73.0903   -1.8698 O.co2   1  UNL1       -0.4371
      3 O          24.2403   70.9212   -3.1356 O.2     1  UNL1       -0.5170
      4 O          21.7598   71.8179   -3.2804 O.3     1  UNL1       -0.3112
      5 C          20.9667   70.6826   -3.5799 C.3     1  UNL1        0.1811
      6 O          18.9389   71.6035   -4.4820 O.3     1  UNL1       -0.3308
      7 O          17.5245   70.1933   -2.2456 O.3     1  UNL1       -0.3794
      8 O          17.0764   68.5406   -4.3679 O.3     1  UNL1       -0.3779
      9 C          18.6615   69.7758   -2.9993 C.3     1  UNL1        0.1713
     10 C          18.2411   69.3405   -4.3876 C.3     1  UNL1        0.1895
     11 C          19.5070   71.0084   -3.2948 C.3     1  UNL1        0.1764
     12 C          18.0232   70.6735   -5.0833 C.3     1  UNL1        0.2383
     13 H          16.9694   69.4230   -2.0445 H       1  UNL1        0.2105
     14 H          17.2661   67.7041   -3.9151 H       1  UNL1        0.2106
     15 O          16.1471   69.8276   -7.0179 O.2     1  UNL1       -0.2464
     16 O          19.1447   70.4499  -10.4630 O.2     1  UNL1       -0.2670
     17 N          18.2866   70.6050   -6.4930 N.ar    1  UNL1       -0.2551
     18 N          17.6411   70.1383   -8.7317 N.ar    1  UNL1       -0.2743
     19 C          17.2760   70.1657   -7.3797 C.ar    1  UNL1        0.3323
     20 C          19.5352   70.9715   -6.9833 C.ar    1  UNL1        0.0869
     21 C          19.8679   70.9385   -8.2754 C.ar    1  UNL1        0.0795
     22 C          18.8694   70.4914   -9.2679 C.ar    1  UNL1        0.2626
     23 H          16.9533   69.8352   -9.3679 H       1  UNL1        0.1734
     24 O          22.5899   70.8415   -1.0977 O.3     1  UNL1       -0.2703
     25 P          21.7685   71.3802    0.1861 P.3     1  UNL1        0.2208
     26 O          21.4300   70.0264    1.0048 O.co2   1  UNL1       -0.4371
     27 O          20.5675   72.2131   -0.1569 O.2     1  UNL1       -0.5170
     28 O          22.8718   72.1372    1.0887 O.3     1  UNL1       -0.2858
     29 O          24.5936   71.7579    2.6724 O.3     1  UNL1       -0.3258
     30 O          22.1203   74.1564    4.9485 O.3     1  UNL1       -0.3794
     31 O          24.5981   75.2143    3.9539 O.3     1  UNL1       -0.3794
     32 O          20.9766   72.1906    3.1577 O.3     1  UNL1       -0.3775
     33 C          22.7537   73.7055    3.7481 C.3     1  UNL1        0.1715
     34 C          24.2679   73.8285    3.9295 C.3     1  UNL1        0.1694
     35 C          22.3592   72.2523    3.4911 C.3     1  UNL1        0.1967
     36 C          25.0209   73.1195    2.7957 C.3     1  UNL1        0.1761
     37 C          23.2015   71.6268    2.3779 C.3     1  UNL1        0.2704
     38 H          22.3663   75.0786    5.1172 H       1  UNL1        0.2105
     39 H          24.1157   75.6503    4.6738 H       1  UNL1        0.2105
     40 H          20.4541   72.5894    3.8703 H       1  UNL1        0.2106
     41 O          26.9832   71.7603    2.8999 O.3     1  UNL1       -0.3794
     42 C          26.5283   73.0937    3.0390 C.3     1  UNL1        0.1693
     43 H          27.9411   71.7286    3.0517 H       1  UNL1        0.2105
@<TRIPOS>UNITY_ATOM_ATTR
2 1
charge -1
26 1
charge -1
@<TRIPOS>BOND
     1    25    28    1
     2    25    24    1
     3    25    26    1
     4    25    27    2
     5     1     4    1
     6     1    24    1
     7     1     2    1
     8     1     3    2
     9     6    11    1
    10     6    12    1
    11    29    36    1
    12    29    37    1
    13     7     9    1
    14     7    13    1
    15     8    10    1
    16     8    14    1
    17    28    37    1
    18     4     5    1
    19    30    33    1
    20    30    38    1
    21    31    34    1
    22    31    39    1
    23    32    35    1
    24    32    40    1
    25    41    42    1
    26    41    43    1
    27    15    19    2
    28    16    22    2
    29    17    12    1
    30    17    19   ar
    31    17    20   ar
    32    18    19   ar
    33    18    22   ar
    34    18    23    1
    35     9    10    1
    36     9    11    1
    37    10    12    1
    38    11     5    1
    39    33    34    1
    40    33    35    1
    41    34    36    1
    42    35    37    1
    43    36    42    1
    44    20    21   ar
    45    21    22   ar
@<TRIPOS>MOLECULE
*****
 43 45 0 0 0
SMALL
GASTEIGER

@<TRIPOS>ATOM
      1 P          22.8124   72.2355   -3.0618 P.3     1  UNL1        0.2189
      2 O          22.9883   73.6963   -3.7346 O.co2   1  UNL1       -0.4371
      3 O          23.9373   71.2776   -3.3235 O.2     1  UNL1       -0.5170
      4 O          21.3494   71.7534   -3.5571 O.3     1  UNL1       -0.3112
      5 C          20.4859   72.7099   -4.1463 C.3     1  UNL1        0.1811
      6 O          18.2628   72.3957   -5.0024 O.3     1  UNL1       -0.3308
      7 O          17.6887   70.9301   -2.4504 O.3     1  UNL1       -0.3794
      8 O          18.0752   68.8988   -4.2283 O.3     1  UNL1       -0.3779
      9 C          18.8869   70.9590   -3.2242 C.3     1  UNL1        0.1713
     10 C          18.7214   70.1298   -4.4807 C.3     1  UNL1        0.1895
     11 C          19.0466   72.3648   -3.7895 C.3     1  UNL1        0.1764
     12 C          17.8968   71.0533   -5.3612 C.3     1  UNL1        0.2383
     13 H          17.5654   70.0421   -2.0786 H       1  UNL1        0.2105
     14 H          18.6394   68.3470   -3.6644 H       1  UNL1        0.2106
     15 O          15.8995   70.8724   -7.3503 O.2     1  UNL1       -0.2464
     16 O          19.0212   70.2947  -10.6913 O.2     1  UNL1       -0.2670
     17 N          18.1594   70.8561   -6.7589 N.ar    1  UNL1       -0.2551
     18 N          17.4555   70.5851   -9.0122 N.ar    1  UNL1       -0.2743
     19 C          17.0849   70.7783   -7.6753 C.ar    1  UNL1        0.3323
     20 C          19.4705   70.7425   -7.2084 C.ar    1  UNL1        0.0869
     21 C          19.8071   70.5572   -8.4865 C.ar    1  UNL1        0.0795
     22 C          18.7441   70.4649   -9.5080 C.ar    1  UNL1        0.2626
     23 H          16.7236   70.5274   -9.6686 H       1  UNL1        0.1734
     24 O          22.5721   72.5807   -1.5011 O.3     1  UNL1       -0.2703
     25 P          22.3708   71.6165   -0.2193 P.3     1  UNL1        0.2208
     26 O          23.8153   70.9054   -0.0596 O.co2   1  UNL1       -0.4371
     27 O          21.2201   70.6603   -0.3433 O.2     1  UNL1       -0.5170
     28 O          22.2711   72.6237    1.0379 O.3     1  UNL1       -0.2858
     29 O          21.8136   72.4658    3.3579 O.3     1  UNL1       -0.3258
     30 O          19.2938   75.5937    2.3999 O.3     1  UNL1       -0.3794
     31 O          21.6909   76.1107    3.8949 O.3     1  UNL1       -0.3794
     32 O          19.6109   73.3801    0.5618 O.3     1  UNL1       -0.3775
     33 C          20.4789   74.7989    2.3039 C.3     1  UNL1        0.1715
     34 C          21.1713   74.8034    3.6682 C.3     1  UNL1        0.1694
     35 C          20.0947   73.3765    1.9006 C.3     1  UNL1        0.1967
     36 C          22.2988   73.7637    3.7207 C.3     1  UNL1        0.1761
     37 C          21.2751   72.4129    2.0353 C.3     1  UNL1        0.2704
     38 H          19.5308   76.4982    2.6552 H       1  UNL1        0.2105
     39 H          20.9689   76.7577    3.8587 H       1  UNL1        0.2105
     40 H          18.8638   73.9936    0.4897 H       1  UNL1        0.2106
     41 O          22.3720   72.4789    5.7338 O.3     1  UNL1       -0.3794
     42 C          22.8986   73.6407    5.1196 C.3     1  UNL1        0.1693
     43 H          22.7452   72.3875    6.6249 H       1  UNL1        0.2105
@<TRIPOS>UNITY_ATOM_ATTR
2 1
charge -1
26 1
charge -1
@<TRIPOS>BOND
     1    25    28    1
     2    25    24    1
     3    25    26    1
     4    25    27    2
     5     1     4    1
     6     1    24    1
     7     1     2    1
     8     1     3    2
     9     6    11    1
    10     6    12    1
    11    29    36    1
    12    29    37    1
    13     7     9    1
    14     7    13    1
    15     8    10    1
    16     8    14    1
    17    28    37    1
    18     4     5    1
    19    30    33    1
    20    30    38    1
    21    31    34    1
    22    31    39    1
    23    32    35    1
    24    32    40    1
    25    41    42    1
    26    41    43    1
    27    15    19    2
    28    16    22    2
    29    17    12    1
    30    17    19   ar
    31    17    20   ar
    32    18    19   ar
    33    18    22   ar
    34    18    23    1
    35     9    10    1
    36     9    11    1
    37    10    12    1
    38    11     5    1
    39    33    34    1
    40    33    35    1
    41    34    36    1
    42    35    37    1
    43    36    42    1
    44    20    21   ar
    45    21    22   ar
@<TRIPOS>MOLECULE
*****
 43 45 0 0 0
SMALL
GASTEIGER

@<TRIPOS>ATOM
      1 P          23.5252   73.5760   -4.1151 P.3     1  UNL1        0.2189
      2 O          22.7926   75.0049   -4.3124 O.co2   1  UNL1       -0.4371
      3 O          25.0165   73.6439   -3.9637 O.2     1  UNL1       -0.5170
      4 O          22.9845   72.6878   -5.3548 O.3     1  UNL1       -0.3112
      5 C          21.6694   72.1645   -5.2887 C.3     1  UNL1        0.1811
      6 O          20.5174   70.3218   -6.3141 O.3     1  UNL1       -0.3308
      7 O          20.7531   71.8479   -8.8844 O.3     1  UNL1       -0.3794
      8 O          18.1765   72.3367   -8.1370 O.3     1  UNL1       -0.3779
      9 C          20.5387   72.3367   -7.5613 C.3     1  UNL1        0.1713
     10 C          19.1172   72.0554   -7.1208 C.3     1  UNL1        0.1895
     11 C          21.3460   71.4689   -6.6039 C.3     1  UNL1        0.1764
     12 C          19.1809   70.5772   -6.7760 C.3     1  UNL1        0.2383
     13 H          20.2477   72.3867   -9.5138 H       1  UNL1        0.2105
     14 H          18.1734   73.2892   -8.3203 H       1  UNL1        0.2106
     15 O          16.4722   69.9131   -7.2230 O.2     1  UNL1       -0.2464
     16 O          15.7138   69.2076   -2.7321 O.2     1  UNL1       -0.2670
     17 N          18.2530   70.2156   -5.7417 N.ar    1  UNL1       -0.2551
     18 N          16.0968   69.5622   -4.9865 N.ar    1  UNL1       -0.2743
     19 C          16.9143   69.9009   -6.0724 C.ar    1  UNL1        0.3323
     20 C          18.6733   70.1755   -4.4167 C.ar    1  UNL1        0.0869
     21 C          17.8809   69.8518   -3.3927 C.ar    1  UNL1        0.0795
     22 C          16.4676   69.5093   -3.6522 C.ar    1  UNL1        0.2626
     23 H          15.1600   69.3394   -5.1928 H       1  UNL1        0.1734
     24 O          22.7485   72.9413   -2.8475 O.3     1  UNL1       -0.2703
     25 P          22.9113   71.5124   -2.1095 P.3     1  UNL1        0.2208
     26 O          24.2175   70.8746   -2.8198 O.co2   1  UNL1       -0.4371
     27 O          21.6873   70.6451   -2.1710 O.2     1  UNL1       -0.5170
     28 O          23.3977   71.8778   -0.6146 O.3     1  UNL1       -0.2858
     29 O          24.6579   70.9244    1.1517 O.3     1  UNL1       -0.3258
     30 O          21.2166   71.8665    3.2303 O.3     1  UNL1       -0.3794
     31 O          23.6000   73.4103    3.6596 O.3     1  UNL1       -0.3794
     32 O          21.0382   70.8670    0.5194 O.3     1  UNL1       -0.3775
     33 C          22.2339   72.0516    2.2422 C.3     1  UNL1        0.1715
     34 C          23.5812   72.1705    2.9575 C.3     1  UNL1        0.1694
     35 C          22.2325   70.8541    1.2939 C.3     1  UNL1        0.1967
     36 C          24.7457   72.1034    1.9603 C.3     1  UNL1        0.1761
     37 C          23.4581   70.8572    0.3784 C.3     1  UNL1        0.2704
     38 H          21.2119   72.6237    3.8354 H       1  UNL1        0.2105
     39 H          22.8594   73.4401    4.2856 H       1  UNL1        0.2105
     40 H          20.2697   70.8646    1.1104 H       1  UNL1        0.2106
     41 O          26.7250   70.8273    2.3637 O.3     1  UNL1       -0.3794
     42 C          26.1001   72.0615    2.6645 C.3     1  UNL1        0.1693
     43 H          27.5883   70.7867    2.8051 H       1  UNL1        0.2105
@<TRIPOS>UNITY_ATOM_ATTR
2 1
charge -1
26 1
charge -1
@<TRIPOS>BOND
     1    25    28    1
     2    25    24    1
     3    25    26    1
     4    25    27    2
     5     1     4    1
     6     1    24    1
     7     1     2    1
     8     1     3    2
     9     6    11    1
    10     6    12    1
    11    29    36    1
    12    29    37    1
    13     7     9    1
    14     7    13    1
    15     8    10    1
    16     8    14    1
    17    28    37    1
    18     4     5    1
    19    30    33    1
    20    30    38    1
    21    31    34    1
    22    31    39    1
    23    32    35    1
    24    32    40    1
    25    41    42    1
    26    41    43    1
    27    15    19    2
    28    16    22    2
    29    17    12    1
    30    17    19   ar
    31    17    20   ar
    32    18    19   ar
    33    18    22   ar
    34    18    23    1
    35     9    10    1
    36     9    11    1
    37    10    12    1
    38    11     5    1
    39    33    34    1
    40    33    35    1
    41    34    36    1
    42    35    37    1
    43    36    42    1
    44    20    21   ar
    45    21    22   ar
@<TRIPOS>MOLECULE
*****
 43 45 0 0 0
SMALL
GASTEIGER

@<TRIPOS>ATOM
      1 P          20.5502   73.3260   -3.7638 P.3     1  UNL1        0.2189
      2 O          19.9435   73.3387   -2.2641 O.co2   1  UNL1       -0.4371
      3 O          20.3762   74.6050   -4.5288 O.2     1  UNL1       -0.5170
      4 O          19.8934   72.0095   -4.4373 O.3     1  UNL1       -0.3112
      5 C          19.1591   71.1225   -3.6116 C.3     1  UNL1        0.1811
      6 O          17.4837   71.8412   -5.1770 O.3     1  UNL1       -0.3308
      7 O          15.4983   70.4745   -3.3935 O.3     1  UNL1       -0.3794
      8 O          15.8295   68.6674   -5.4088 O.3     1  UNL1       -0.3779
      9 C          16.8349   70.0928   -3.7149 C.3     1  UNL1        0.1713
     10 C          16.9004   69.5447   -5.1253 C.3     1  UNL1        0.1895
     11 C          17.6710   71.3614   -3.8275 C.3     1  UNL1        0.1764
     12 C          16.8528   70.8139   -5.9590 C.3     1  UNL1        0.2383
     13 H          14.9453   69.6807   -3.3160 H       1  UNL1        0.2105
     14 H          15.9043   67.8757   -4.8535 H       1  UNL1        0.2106
     15 O          15.6164   70.8296   -8.4985 O.2     1  UNL1       -0.2464
     16 O          19.6464   70.2833  -10.6668 O.2     1  UNL1       -0.2670
     17 N          17.5550   70.6780   -7.2039 N.ar    1  UNL1       -0.2551
     18 N          17.6241   70.5577   -9.5761 N.ar    1  UNL1       -0.2743
     19 C          16.8398   70.6978   -8.4240 C.ar    1  UNL1        0.3323
     20 C          18.9375   70.5274   -7.2069 C.ar    1  UNL1        0.0869
     21 C          19.6705   70.3938   -8.3142 C.ar    1  UNL1        0.0795
     22 C          19.0003   70.4041   -9.6306 C.ar    1  UNL1        0.2626
     23 H          17.1473   70.5683  -10.4377 H       1  UNL1        0.1734
     24 O          22.0879   72.8857   -3.5301 O.3     1  UNL1       -0.2703
     25 P          22.7221   71.5527   -2.8714 P.3     1  UNL1        0.2208
     26 O          24.2421   71.5521   -3.4255 O.co2   1  UNL1       -0.4371
     27 O          21.9551   70.2961   -3.1660 O.2     1  UNL1       -0.5170
     28 O          22.8607   71.8991   -1.3012 O.3     1  UNL1       -0.2858
     29 O          23.7839   70.6993    0.5222 O.3     1  UNL1       -0.3258
     30 O          20.4562   72.2785    2.3886 O.3     1  UNL1       -0.3794
     31 O          23.0592   73.3198    3.0116 O.3     1  UNL1       -0.3794
     32 O          20.2758   71.3604   -0.3507 O.3     1  UNL1       -0.3775
     33 C          21.5566   72.2700    1.4751 C.3     1  UNL1        0.1715
     34 C          22.8478   72.1148    2.2811 C.3     1  UNL1        0.1694
     35 C          21.3876   71.1055    0.5010 C.3     1  UNL1        0.1967
     36 C          24.0435   71.8301    1.3623 C.3     1  UNL1        0.1761
     37 C          22.6511   70.8768   -0.3305 C.3     1  UNL1        0.2704
     38 H          20.5571   73.0159    3.0096 H       1  UNL1        0.2105
     39 H          22.2969   73.4882    3.5875 H       1  UNL1        0.2105
     40 H          19.4823   71.5032    0.1876 H       1  UNL1        0.2106
     41 O          25.2953   70.1438    2.5016 O.3     1  UNL1       -0.3794
     42 C          25.3111   71.5161    2.1539 C.3     1  UNL1        0.1693
     43 H          26.0963   69.9293    3.0057 H       1  UNL1        0.2105
@<TRIPOS>UNITY_ATOM_ATTR
2 1
charge -1
26 1
charge -1
@<TRIPOS>BOND
     1    25    28    1
     2    25    24    1
     3    25    26    1
     4    25    27    2
     5     1     4    1
     6     1    24    1
     7     1     2    1
     8     1     3    2
     9     6    11    1
    10     6    12    1
    11    29    36    1
    12    29    37    1
    13     7     9    1
    14     7    13    1
    15     8    10    1
    16     8    14    1
    17    28    37    1
    18     4     5    1
    19    30    33    1
    20    30    38    1
    21    31    34    1
    22    31    39    1
    23    32    35    1
    24    32    40    1
    25    41    42    1
    26    41    43    1
    27    15    19    2
    28    16    22    2
    29    17    12    1
    30    17    19   ar
    31    17    20   ar
    32    18    19   ar
    33    18    22   ar
    34    18    23    1
    35     9    10    1
    36     9    11    1
    37    10    12    1
    38    11     5    1
    39    33    34    1
    40    33    35    1
    41    34    36    1
    42    35    37    1
    43    36    42    1
    44    20    21   ar
    45    21    22   ar
@<TRIPOS>MOLECULE
*****
 43 45 0 0 0
SMALL
GASTEIGER

@<TRIPOS>ATOM
      1 P          21.8163   71.9717   -5.8456 P.3     1  UNL1        0.2189
      2 O          20.6375   73.0354   -5.5352 O.co2   1  UNL1       -0.4371
      3 O          23.1319   72.5793   -6.2346 O.2     1  UNL1       -0.5170
      4 O          21.1578   70.9678   -6.9303 O.3     1  UNL1       -0.3112
      5 C          20.4122   71.5227   -7.9998 C.3     1  UNL1        0.1811
      6 O          19.0013   69.6449   -7.4928 O.3     1  UNL1       -0.3308
      7 O          17.8210   70.0336  -10.2216 O.3     1  UNL1       -0.3794
      8 O          15.9548   71.1812   -8.5978 O.3     1  UNL1       -0.3779
      9 C          18.2795   71.0113   -9.2893 C.3     1  UNL1        0.1713
     10 C          17.2940   71.1524   -8.1480 C.3     1  UNL1        0.1895
     11 C          19.5058   70.4472   -8.5828 C.3     1  UNL1        0.1764
     12 C          17.6033   69.9228   -7.3109 C.3     1  UNL1        0.2383
     13 H          17.0383   70.3714  -10.6855 H       1  UNL1        0.2105
     14 H          15.8078   71.9818   -9.1253 H       1  UNL1        0.2106
     15 O          16.1638   68.1344   -5.6656 O.2     1  UNL1       -0.2464
     16 O          16.6823   70.8329   -1.9656 O.2     1  UNL1       -0.2670
     17 N          17.3475   70.1329   -5.9139 N.ar    1  UNL1       -0.2551
     18 N          16.4233   69.4794   -3.8246 N.ar    1  UNL1       -0.2743
     19 C          16.6134   69.1736   -5.1782 C.ar    1  UNL1        0.3323
     20 C          17.8228   71.2797   -5.2871 C.ar    1  UNL1        0.0869
     21 C          17.6318   71.5572   -3.9957 C.ar    1  UNL1        0.0795
     22 C          16.8748   70.6064   -3.1561 C.ar    1  UNL1        0.2626
     23 H          15.9143   68.8256   -3.2923 H       1  UNL1        0.1734
     24 O          21.8605   71.0755   -4.5010 O.3     1  UNL1       -0.2703
     25 P          22.4484   71.3969   -3.0300 P.3     1  UNL1        0.2208
     26 O          24.0156   71.0186   -3.1660 O.co2   1  UNL1       -0.4371
     27 O          21.7352   70.6896   -1.9142 O.2     1  UNL1       -0.5170
     28 O          22.4256   73.0072   -2.9237 O.3     1  UNL1       -0.2858
     29 O          21.5503   74.7283   -1.5496 O.3     1  UNL1       -0.3258
     30 O          20.5551   71.4608    0.7709 O.3     1  UNL1       -0.3794
     31 O          18.4950   72.8744   -0.6454 O.3     1  UNL1       -0.3794
     32 O          23.0820   71.5138   -0.6403 O.3     1  UNL1       -0.3775
     33 C          20.7737   72.1745   -0.4491 C.3     1  UNL1        0.1715
     34 C          19.8206   73.3708   -0.4822 C.3     1  UNL1        0.1694
     35 C          22.2267   72.6431   -0.4998 C.3     1  UNL1        0.1967
     36 C          20.1762   74.3309   -1.6254 C.3     1  UNL1        0.1761
     37 C          22.4618   73.6318   -1.6431 C.3     1  UNL1        0.2704
     38 H          19.6344   71.1601    0.8091 H       1  UNL1        0.2105
     39 H          18.2832   72.2691    0.0825 H       1  UNL1        0.2105
     40 H          22.9238   70.8957    0.0896 H       1  UNL1        0.2106
     41 O          18.0706   75.3332   -2.1457 O.3     1  UNL1       -0.3794
     42 C          19.3395   75.6077   -1.5812 C.3     1  UNL1        0.1693
     43 H          17.5270   76.1369   -2.1240 H       1  UNL1        0.2105
@<TRIPOS>UNITY_ATOM_ATTR
2 1
charge -1
26 1
charge -1
@<TRIPOS>BOND
     1    25    28    1
     2    25    24    1
     3    25    26    1
     4    25    27    2
     5     1     4    1
     6     1    24    1
     7     1     2    1
     8     1     3    2
     9     6    11    1
    10     6    12    1
    11    29    36    1
    12    29    37    1
    13     7     9    1
    14     7    13    1
    15     8    10    1
    16     8    14    1
    17    28    37    1
    18     4     5    1
    19    30    33    1
    20    30    38    1
    21    31    34    1
    22    31    39    1
    23    32    35    1
    24    32    40    1
    25    41    42    1
    26    41    43    1
    27    15    19    2
    28    16    22    2
    29    17    12    1
    30    17    19   ar
    31    17    20   ar
    32    18    19   ar
    33    18    22   ar
    34    18    23    1
    35     9    10    1
    36     9    11    1
    37    10    12    1
    38    11     5    1
    39    33    34    1
    40    33    35    1
    41    34    36    1
    42    35    37    1
    43    36    42    1
    44    20    21   ar
    45    21    22   ar
@<TRIPOS>MOLECULE
*****
 43 45 0 0 0
SMALL
GASTEIGER

@<TRIPOS>ATOM
      1 P          22.0936   73.1612   -4.9159 P.3     1  UNL1        0.2189
      2 O          22.0563   74.7746   -4.8015 O.co2   1  UNL1       -0.4371
      3 O          22.9441   72.6244   -6.0294 O.2     1  UNL1       -0.5170
      4 O          20.5323   72.7386   -4.9579 O.3     1  UNL1       -0.3112
      5 C          19.5565   73.7273   -4.6784 C.3     1  UNL1        0.1811
      6 O          17.5771   72.7139   -5.5887 O.3     1  UNL1       -0.3308
      7 O          17.2075   71.4557   -2.8922 O.3     1  UNL1       -0.3794
      8 O          18.2688   69.4165   -4.3592 O.3     1  UNL1       -0.3779
      9 C          18.4139   71.7234   -3.6052 C.3     1  UNL1        0.1713
     10 C          18.5806   70.7398   -4.7446 C.3     1  UNL1        0.1895
     11 C          18.2377   73.0426   -4.3470 C.3     1  UNL1        0.1764
     12 C          17.6145   71.2903   -5.7799 C.3     1  UNL1        0.2383
     13 H          17.2961   70.6180   -2.4102 H       1  UNL1        0.2105
     14 H          18.9115   69.1117   -3.6999 H       1  UNL1        0.2106
     15 O          15.9068   70.3463   -7.8221 O.2     1  UNL1       -0.2464
     16 O          19.3367   70.2528  -10.8992 O.2     1  UNL1       -0.2670
     17 N          18.0347   71.0112   -7.1241 N.ar    1  UNL1       -0.2551
     18 N          17.6160   70.3007   -9.3526 N.ar    1  UNL1       -0.2743
     19 C          17.0981   70.5397   -8.0733 C.ar    1  UNL1        0.3323
     20 C          19.3623   71.2056   -7.4897 C.ar    1  UNL1        0.0869
     21 C          19.8405   70.9717   -8.7135 C.ar    1  UNL1        0.0795
     22 C          18.9275   70.4774   -9.7643 C.ar    1  UNL1        0.2626
     23 H          16.9820   69.9713  -10.0304 H       1  UNL1        0.1734
     24 O          22.5546   72.7024   -3.4361 O.3     1  UNL1       -0.2703
     25 P          22.6405   71.2379   -2.7574 P.3     1  UNL1        0.2208
     26 O          24.2289   70.9313   -2.7363 O.co2   1  UNL1       -0.4371
     27 O          21.8167   70.1901   -3.4484 O.2     1  UNL1       -0.5170
     28 O          22.2518   71.4813   -1.2099 O.3     1  UNL1       -0.2858
     29 O          22.0555   73.5392   -0.0511 O.3     1  UNL1       -0.3258
     30 O          23.4652   71.1789    3.0299 O.3     1  UNL1       -0.3794
     31 O          20.7214   72.0271    3.0348 O.3     1  UNL1       -0.3794
     32 O          24.4893   70.8146    0.3470 O.3     1  UNL1       -0.3775
     33 C          22.7182   71.4645    1.8443 C.3     1  UNL1        0.1715
     34 C          21.7117   72.5709    2.1665 C.3     1  UNL1        0.1694
     35 C          23.6788   71.9150    0.7454 C.3     1  UNL1        0.1967
     36 C          21.0604   73.1167    0.8886 C.3     1  UNL1        0.1761
     37 C          22.9301   72.4859   -0.4603 C.3     1  UNL1        0.2704
     38 H          22.8612   70.8918    3.7315 H       1  UNL1        0.2105
     39 H          21.1458   71.6856    3.8375 H       1  UNL1        0.2105
     40 H          24.9583   70.4624    1.1189 H       1  UNL1        0.2106
     41 O          20.5468   74.8773    2.4201 O.3     1  UNL1       -0.3794
     42 C          20.1717   74.3259    1.1712 C.3     1  UNL1        0.1693
     43 H          19.9897   75.6481    2.6130 H       1  UNL1        0.2105
@<TRIPOS>UNITY_ATOM_ATTR
2 1
charge -1
26 1
charge -1
@<TRIPOS>BOND
     1    25    28    1
     2    25    24    1
     3    25    26    1
     4    25    27    2
     5     1     4    1
     6     1    24    1
     7     1     2    1
     8     1     3    2
     9     6    11    1
    10     6    12    1
    11    29    36    1
    12    29    37    1
    13     7     9    1
    14     7    13    1
    15     8    10    1
    16     8    14    1
    17    28    37    1
    18     4     5    1
    19    30    33    1
    20    30    38    1
    21    31    34    1
    22    31    39    1
    23    32    35    1
    24    32    40    1
    25    41    42    1
    26    41    43    1
    27    15    19    2
    28    16    22    2
    29    17    12    1
    30    17    19   ar
    31    17    20   ar
    32    18    19   ar
    33    18    22   ar
    34    18    23    1
    35     9    10    1
    36     9    11    1
    37    10    12    1
    38    11     5    1
    39    33    34    1
    40    33    35    1
    41    34    36    1
    42    35    37    1
    43    36    42    1
    44    20    21   ar
    45    21    22   ar
@<TRIPOS>MOLECULE
*****
 43 45 0 0 0
SMALL
GASTEIGER

@<TRIPOS>ATOM
      1 P          21.7913   72.4296   -5.5342 P.3     1  UNL1        0.2189
      2 O          21.1161   73.8661   -5.2210 O.co2   1  UNL1       -0.4371
      3 O          23.0723   72.4878   -6.3134 O.2     1  UNL1       -0.5170
      4 O          20.5945   71.5776   -6.2122 O.3     1  UNL1       -0.3112
      5 C          20.1459   71.9511   -7.5034 C.3     1  UNL1        0.1811
      6 O          18.8953   69.9350   -7.1224 O.3     1  UNL1       -0.3308
      7 O          18.1420   70.0768  -10.0213 O.3     1  UNL1       -0.3794
      8 O          15.9158   71.0468   -8.7805 O.3     1  UNL1       -0.3779
      9 C          18.3264   71.1366   -9.0842 C.3     1  UNL1        0.1713
     10 C          17.1575   71.1980   -8.1232 C.3     1  UNL1        0.1895
     11 C          19.4766   70.7525   -8.1618 C.3     1  UNL1        0.1764
     12 C          17.4639   70.0468   -7.1803 C.3     1  UNL1        0.2383
     13 H          17.4126   70.2994  -10.6215 H       1  UNL1        0.2105
     14 H          15.7668   71.8036   -9.3685 H       1  UNL1        0.2106
     15 O          16.2983   68.0555   -5.5513 O.2     1  UNL1       -0.2464
     16 O          15.5642   71.0377   -2.1149 O.2     1  UNL1       -0.2670
     17 N          16.9600   70.2751   -5.8554 N.ar    1  UNL1       -0.2551
     18 N          15.9339   69.5419   -3.8415 N.ar    1  UNL1       -0.2743
     19 C          16.3929   69.2071   -5.1218 C.ar    1  UNL1        0.3323
     20 C          17.0313   71.5464   -5.2964 C.ar    1  UNL1        0.0869
     21 C          16.5879   71.8495   -4.0746 C.ar    1  UNL1        0.0795
     22 C          15.9813   70.7907   -3.2422 C.ar    1  UNL1        0.2626
     23 H          15.5345   68.8139   -3.3121 H       1  UNL1        0.1734
     24 O          21.9257   71.7636   -4.0675 O.3     1  UNL1       -0.2703
     25 P          23.1037   71.8545   -2.9643 P.3     1  UNL1        0.2208
     26 O          23.6557   73.3657   -3.1345 O.co2   1  UNL1       -0.4371
     27 O          24.1559   70.7921   -3.0986 O.2     1  UNL1       -0.5170
     28 O          22.3349   71.8588   -1.5452 O.3     1  UNL1       -0.2858
     29 O          24.0073   72.5015    0.0061 O.3     1  UNL1       -0.3258
     30 O          20.7953   72.2045    2.5840 O.3     1  UNL1       -0.3794
     31 O          21.8174   74.7957    1.8848 O.3     1  UNL1       -0.3794
     32 O          21.0996   70.2945    0.4302 O.3     1  UNL1       -0.3775
     33 C          21.4499   72.4945    1.3460 C.3     1  UNL1        0.1715
     34 C          22.5000   73.5776    1.6009 C.3     1  UNL1        0.1694
     35 C          22.1082   71.2208    0.8190 C.3     1  UNL1        0.1967
     36 C          23.4218   73.7522    0.3865 C.3     1  UNL1        0.1761
     37 C          23.0419   71.5126   -0.3571 C.3     1  UNL1        0.2704
     38 H          20.3748   73.0090    2.9238 H       1  UNL1        0.2105
     39 H          21.2383   74.6718    2.6533 H       1  UNL1        0.2105
     40 H          20.5153   70.1179    1.1834 H       1  UNL1        0.2106
     41 O          24.0984   76.0394    0.5264 O.3     1  UNL1       -0.3794
     42 C          24.5725   74.7138    0.6754 C.3     1  UNL1        0.1693
     43 H          24.8200   76.6625    0.7076 H       1  UNL1        0.2105
@<TRIPOS>UNITY_ATOM_ATTR
2 1
charge -1
26 1
charge -1
@<TRIPOS>BOND
     1    25    28    1
     2    25    24    1
     3    25    26    1
     4    25    27    2
     5     1     4    1
     6     1    24    1
     7     1     2    1
     8     1     3    2
     9     6    11    1
    10     6    12    1
    11    29    36    1
    12    29    37    1
    13     7     9    1
    14     7    13    1
    15     8    10    1
    16     8    14    1
    17    28    37    1
    18     4     5    1
    19    30    33    1
    20    30    38    1
    21    31    34    1
    22    31    39    1
    23    32    35    1
    24    32    40    1
    25    41    42    1
    26    41    43    1
    27    15    19    2
    28    16    22    2
    29    17    12    1
    30    17    19   ar
    31    17    20   ar
    32    18    19   ar
    33    18    22   ar
    34    18    23    1
    35     9    10    1
    36     9    11    1
    37    10    12    1
    38    11     5    1
    39    33    34    1
    40    33    35    1
    41    34    36    1
    42    35    37    1
    43    36    42    1
    44    20    21   ar
    45    21    22   ar
@<TRIPOS>MOLECULE
*****
 43 45 0 0 0
SMALL
GASTEIGER

@<TRIPOS>ATOM
      1 P          21.5013   73.1519   -4.9908 P.3     1  UNL1        0.2189
      2 O          21.0188   74.0432   -6.2518 O.co2   1  UNL1       -0.4371
      3 O          22.2138   71.8808   -5.3487 O.2     1  UNL1       -0.5170
      4 O          20.1606   72.9793   -4.1016 O.3     1  UNL1       -0.3112
      5 C          19.7105   71.6691   -3.8041 C.3     1  UNL1        0.1811
      6 O          17.7800   71.9756   -5.2015 O.3     1  UNL1       -0.3308
      7 O          16.2593   70.4519   -3.1144 O.3     1  UNL1       -0.3794
      8 O          16.6790   68.5662   -5.0391 O.3     1  UNL1       -0.3779
      9 C          17.5995   70.2688   -3.5676 C.3     1  UNL1        0.1713
     10 C          17.6077   69.6266   -4.9392 C.3     1  UNL1        0.1895
     11 C          18.1891   71.6436   -3.8567 C.3     1  UNL1        0.1764
     12 C          17.2549   70.7993   -5.8383 C.3     1  UNL1        0.2383
     13 H          15.8619   69.5873   -2.9230 H       1  UNL1        0.2105
     14 H          16.9470   67.8448   -4.4487 H       1  UNL1        0.2106
     15 O          15.7657   70.5343   -8.2236 O.2     1  UNL1       -0.2464
     16 O          19.5817   70.3464  -10.8012 O.2     1  UNL1       -0.2670
     17 N          17.8336   70.6796   -7.1468 N.ar    1  UNL1       -0.2551
     18 N          17.6669   70.4412   -9.5051 N.ar    1  UNL1       -0.2743
     19 C          16.9970   70.5504   -8.2798 C.ar    1  UNL1        0.3323
     20 C          19.2161   70.6915   -7.2968 C.ar    1  UNL1        0.0869
     21 C          19.8394   70.5850   -8.4722 C.ar    1  UNL1        0.0795
     22 C          19.0383   70.4465   -9.7055 C.ar    1  UNL1        0.2626
     23 H          17.1045   70.3498  -10.3083 H       1  UNL1        0.1734
     24 O          22.3807   74.1948   -4.1237 O.3     1  UNL1       -0.2703
     25 P          23.8618   74.0640   -3.4895 P.3     1  UNL1        0.2208
     26 O          24.4611   75.5597   -3.6350 O.co2   1  UNL1       -0.4371
     27 O          24.7076   72.9942   -4.1172 O.2     1  UNL1       -0.5170
     28 O          23.6129   73.8768   -1.9058 O.3     1  UNL1       -0.2858
     29 O          22.2550   72.2339   -0.8698 O.3     1  UNL1       -0.3258
     30 O          21.7990   75.2899    1.8694 O.3     1  UNL1       -0.3794
     31 O          23.3980   73.0033    2.5493 O.3     1  UNL1       -0.3794
     32 O          21.9027   75.8908   -0.9604 O.3     1  UNL1       -0.3775
     33 C          22.4997   74.4946    0.9093 C.3     1  UNL1        0.1715
     34 C          22.5353   73.0515    1.4163 C.3     1  UNL1        0.1694
     35 C          21.7727   74.5755   -0.4317 C.3     1  UNL1        0.1967
     36 C          23.0318   72.0932    0.3254 C.3     1  UNL1        0.1761
     37 C          22.3109   73.5477   -1.4288 C.3     1  UNL1        0.2704
     38 H          22.2557   75.2433    2.7231 H       1  UNL1        0.2105
     39 H          23.0737   73.6132    3.2305 H       1  UNL1        0.2105
     40 H          21.5583   76.5320   -0.3200 H       1  UNL1        0.2106
     41 O          21.5734   70.3508    1.0645 O.3     1  UNL1       -0.3794
     42 C          22.9263   70.6320    0.7565 C.3     1  UNL1        0.1693
     43 H          21.4910   69.4241    1.3402 H       1  UNL1        0.2105
@<TRIPOS>UNITY_ATOM_ATTR
2 1
charge -1
26 1
charge -1
@<TRIPOS>BOND
     1    25    28    1
     2    25    24    1
     3    25    26    1
     4    25    27    2
     5     1     4    1
     6     1    24    1
     7     1     2    1
     8     1     3    2
     9     6    11    1
    10     6    12    1
    11    29    36    1
    12    29    37    1
    13     7     9    1
    14     7    13    1
    15     8    10    1
    16     8    14    1
    17    28    37    1
    18     4     5    1
    19    30    33    1
    20    30    38    1
    21    31    34    1
    22    31    39    1
    23    32    35    1
    24    32    40    1
    25    41    42    1
    26    41    43    1
    27    15    19    2
    28    16    22    2
    29    17    12    1
    30    17    19   ar
    31    17    20   ar
    32    18    19   ar
    33    18    22   ar
    34    18    23    1
    35     9    10    1
    36     9    11    1
    37    10    12    1
    38    11     5    1
    39    33    34    1
    40    33    35    1
    41    34    36    1
    42    35    37    1
    43    36    42    1
    44    20    21   ar
    45    21    22   ar
@<TRIPOS>MOLECULE
*****
 43 45 0 0 0
SMALL
GASTEIGER

@<TRIPOS>ATOM
      1 P          22.2770   72.3688   -3.5033 P.3     1  UNL1        0.2189
      2 O          21.8723   70.8411   -3.1574 O.co2   1  UNL1       -0.4371
      3 O          23.6270   72.5391   -4.1357 O.2     1  UNL1       -0.5170
      4 O          22.0503   73.1560   -2.1080 O.3     1  UNL1       -0.3112
      5 C          21.0014   74.1055   -2.0301 C.3     1  UNL1        0.1811
      6 O          20.5298   72.4700   -0.3340 O.3     1  UNL1       -0.3308
      7 O          18.5836   74.4605    0.7801 O.3     1  UNL1       -0.3794
      8 O          20.7384   74.7507    2.4261 O.3     1  UNL1       -0.3779
      9 C          19.8505   74.6851    0.1637 C.3     1  UNL1        0.1713
     10 C          20.9703   74.2990    1.1074 C.3     1  UNL1        0.1895
     11 C          20.0140   73.6665   -0.9575 C.3     1  UNL1        0.1764
     12 C          20.9652   72.7836    0.9990 C.3     1  UNL1        0.2383
     13 H          18.4564   75.0996    1.4993 H       1  UNL1        0.2105
     14 H          20.7512   75.7204    2.4429 H       1  UNL1        0.2106
     15 O          21.5154   70.0132    0.9991 O.2     1  UNL1       -0.2464
     16 O          25.9952   70.7170    1.8222 O.2     1  UNL1       -0.2670
     17 N          22.2665   72.2151    1.2104 N.ar    1  UNL1       -0.2551
     18 N          23.7456   70.3659    1.4088 N.ar    1  UNL1       -0.2743
     19 C          22.4353   70.8109    1.1919 C.ar    1  UNL1        0.3323
     20 C          23.3585   73.0471    1.4326 C.ar    1  UNL1        0.0869
     21 C          24.6014   72.6068    1.6391 C.ar    1  UNL1        0.0795
     22 C          24.8635   71.1531    1.6354 C.ar    1  UNL1        0.2626
     23 H          23.8871   69.3914    1.4007 H       1  UNL1        0.1734
     24 O          21.0398   72.8758   -4.4117 O.3     1  UNL1       -0.2703
     25 P          20.9802   73.3458   -5.9572 P.3     1  UNL1        0.2208
     26 O          22.2989   72.6661   -6.6028 O.co2   1  UNL1       -0.4371
     27 O          20.8947   74.8328   -6.1453 O.2     1  UNL1       -0.5170
     28 O          19.7455   72.5196   -6.5880 O.3     1  UNL1       -0.2858
     29 O          19.0108   70.3678   -5.9197 O.3     1  UNL1       -0.3258
     30 O          17.9609   70.2135   -9.9103 O.3     1  UNL1       -0.3794
     31 O          15.9122   70.4688   -7.9139 O.3     1  UNL1       -0.3794
     32 O          20.4260   71.5058   -9.1147 O.3     1  UNL1       -0.3775
     33 C          18.1615   70.8371   -8.6389 C.3     1  UNL1        0.1715
     34 C          17.2654   70.1376   -7.6150 C.3     1  UNL1        0.1694
     35 C          19.6316   70.7062   -8.2451 C.3     1  UNL1        0.1967
     36 C          17.6176   70.5685   -6.1848 C.3     1  UNL1        0.1761
     37 C          19.8648   71.1137   -6.7893 C.3     1  UNL1        0.2704
     38 H          17.0295   70.2935  -10.1664 H       1  UNL1        0.2105
     39 H          15.7028   70.1920   -8.8198 H       1  UNL1        0.2105
     40 H          20.2696   71.2378  -10.0331 H       1  UNL1        0.2106
     41 O          16.0543   68.8013   -5.8077 O.3     1  UNL1       -0.3794
     42 C          16.8447   69.7672   -5.1394 C.3     1  UNL1        0.1693
     43 H          15.5569   68.2835   -5.1548 H       1  UNL1        0.2105
@<TRIPOS>UNITY_ATOM_ATTR
2 1
charge -1
26 1
charge -1
@<TRIPOS>BOND
     1    25    28    1
     2    25    24    1
     3    25    26    1
     4    25    27    2
     5     1     4    1
     6     1    24    1
     7     1     2    1
     8     1     3    2
     9     6    11    1
    10     6    12    1
    11    29    36    1
    12    29    37    1
    13     7     9    1
    14     7    13    1
    15     8    10    1
    16     8    14    1
    17    28    37    1
    18     4     5    1
    19    30    33    1
    20    30    38    1
    21    31    34    1
    22    31    39    1
    23    32    35    1
    24    32    40    1
    25    41    42    1
    26    41    43    1
    27    15    19    2
    28    16    22    2
    29    17    12    1
    30    17    19   ar
    31    17    20   ar
    32    18    19   ar
    33    18    22   ar
    34    18    23    1
    35     9    10    1
    36     9    11    1
    37    10    12    1
    38    11     5    1
    39    33    34    1
    40    33    35    1
    41    34    36    1
    42    35    37    1
    43    36    42    1
    44    20    21   ar
    45    21    22   ar
@<TRIPOS>MOLECULE
*****
 43 45 0 0 0
SMALL
GASTEIGER

@<TRIPOS>ATOM
      1 P          23.4215   72.3537   -3.5256 P.3     1  UNL1        0.2189
      2 O          24.0573   70.8900   -3.2599 O.co2   1  UNL1       -0.4371
      3 O          24.3962   73.3916   -3.9991 O.2     1  UNL1       -0.5170
      4 O          22.6448   72.6957   -2.1481 O.3     1  UNL1       -0.3112
      5 C          23.3982   72.7852   -0.9514 C.3     1  UNL1        0.1811
      6 O          24.4486   71.2753    0.5948 O.3     1  UNL1       -0.3308
      7 O          21.7015   70.1907    1.1122 O.3     1  UNL1       -0.3794
      8 O          22.1130   71.8170    3.2622 O.3     1  UNL1       -0.3779
      9 C          22.1065   71.5328    0.8475 C.3     1  UNL1        0.1713
     10 C          22.7919   72.1243    2.0616 C.3     1  UNL1        0.1895
     11 C          23.2411   71.4889   -0.1684 C.3     1  UNL1        0.1764
     12 C          24.1686   71.4858    1.9884 C.3     1  UNL1        0.2383
     13 H          20.9773   70.1932    1.7583 H       1  UNL1        0.2105
     14 H          21.2431   72.2459    3.2608 H       1  UNL1        0.2106
     15 O          26.8497   70.6873    2.3779 O.2     1  UNL1       -0.2464
     16 O          28.0051   74.7838    4.1457 O.2     1  UNL1       -0.2670
     17 N          25.1913   72.3237    2.5482 N.ar    1  UNL1       -0.2551
     18 N          27.4229   72.7278    3.2576 N.ar    1  UNL1       -0.2743
     19 C          26.5062   71.8260    2.7021 C.ar    1  UNL1        0.3323
     20 C          24.8863   73.6234    2.9375 C.ar    1  UNL1        0.0869
     21 C          25.7716   74.4703    3.4669 C.ar    1  UNL1        0.0795
     22 C          27.1677   74.0287    3.6615 C.ar    1  UNL1        0.2626
     23 H          28.3451   72.4028    3.3747 H       1  UNL1        0.1734
     24 O          22.2150   72.0443   -4.5559 O.3     1  UNL1       -0.2703
     25 P          20.6424   72.4125   -4.4903 P.3     1  UNL1        0.2208
     26 O          20.6442   74.0243   -4.3504 O.co2   1  UNL1       -0.4371
     27 O          19.8877   71.6977   -3.4069 O.2     1  UNL1       -0.5170
     28 O          20.0949   72.1334   -5.9827 O.3     1  UNL1       -0.2858
     29 O          19.2014   69.9478   -6.1865 O.3     1  UNL1       -0.3258
     30 O          19.1849   71.0413  -10.1683 O.3     1  UNL1       -0.3794
     31 O          16.7027   70.8745   -8.7334 O.3     1  UNL1       -0.3794
     32 O          21.3805   71.8420   -8.4601 O.3     1  UNL1       -0.3775
     33 C          19.0645   71.2517   -8.7589 C.3     1  UNL1        0.1715
     34 C          17.9354   70.3616   -8.2358 C.3     1  UNL1        0.1694
     35 C          20.3879   70.8928   -8.0857 C.3     1  UNL1        0.1967
     36 C          17.9205   70.3298   -6.7016 C.3     1  UNL1        0.1761
     37 C          20.2513   70.8411   -6.5630 C.3     1  UNL1        0.2704
     38 H          18.3481   71.2679  -10.6018 H       1  UNL1        0.2105
     39 H          16.7254   70.8898   -9.7032 H       1  UNL1        0.2105
     40 H          21.4576   71.8651   -9.4262 H       1  UNL1        0.2106
     41 O          15.6536   69.5781   -6.7731 O.3     1  UNL1       -0.3794
     42 C          16.9047   69.3262   -6.1602 C.3     1  UNL1        0.1693
     43 H          14.9973   68.9466   -6.4383 H       1  UNL1        0.2105
@<TRIPOS>UNITY_ATOM_ATTR
2 1
charge -1
26 1
charge -1
@<TRIPOS>BOND
     1    25    28    1
     2    25    24    1
     3    25    26    1
     4    25    27    2
     5     1     4    1
     6     1    24    1
     7     1     2    1
     8     1     3    2
     9     6    11    1
    10     6    12    1
    11    29    36    1
    12    29    37    1
    13     7     9    1
    14     7    13    1
    15     8    10    1
    16     8    14    1
    17    28    37    1
    18     4     5    1
    19    30    33    1
    20    30    38    1
    21    31    34    1
    22    31    39    1
    23    32    35    1
    24    32    40    1
    25    41    42    1
    26    41    43    1
    27    15    19    2
    28    16    22    2
    29    17    12    1
    30    17    19   ar
    31    17    20   ar
    32    18    19   ar
    33    18    22   ar
    34    18    23    1
    35     9    10    1
    36     9    11    1
    37    10    12    1
    38    11     5    1
    39    33    34    1
    40    33    35    1
    41    34    36    1
    42    35    37    1
    43    36    42    1
    44    20    21   ar
    45    21    22   ar
@<TRIPOS>MOLECULE
*****
 43 45 0 0 0
SMALL
GASTEIGER

@<TRIPOS>ATOM
      1 P          20.3750   72.5238   -0.6882 P.3     1  UNL1        0.2189
      2 O          20.6360   70.9509   -0.4134 O.co2   1  UNL1       -0.4371
      3 O          19.5707   73.2264    0.3658 O.2     1  UNL1       -0.5170
      4 O          19.7579   72.5597   -2.1834 O.3     1  UNL1       -0.3112
      5 C          20.5204   73.1611   -3.2153 C.3     1  UNL1        0.1811
      6 O          21.1749   71.1063   -4.2751 O.3     1  UNL1       -0.3308
      7 O          23.9531   72.2333   -4.3218 O.3     1  UNL1       -0.3794
      8 O          23.1006   72.6474   -6.8789 O.3     1  UNL1       -0.3779
      9 C          22.7050   72.9026   -4.4936 C.3     1  UNL1        0.1713
     10 C          22.1253   72.5924   -5.8579 C.3     1  UNL1        0.1895
     11 C          21.6910   72.2512   -3.5615 C.3     1  UNL1        0.1764
     12 C          21.5709   71.1927   -5.6537 C.3     1  UNL1        0.2383
     13 H          24.6169   72.6322   -4.9068 H       1  UNL1        0.2105
     14 H          23.4222   73.5579   -6.9702 H       1  UNL1        0.2106
     15 O          19.0558   70.3452   -4.6873 O.2     1  UNL1       -0.2464
     16 O          17.2652   70.2107   -8.9319 O.2     1  UNL1       -0.2670
     17 N          20.4296   70.9291   -6.4841 N.ar    1  UNL1       -0.2551
     18 N          18.1662   70.2791   -6.8015 N.ar    1  UNL1       -0.2743
     19 C          19.2130   70.5070   -5.8992 C.ar    1  UNL1        0.3323
     20 C          20.5234   71.0901   -7.8622 C.ar    1  UNL1        0.0869
     21 C          19.5162   70.8674   -8.7091 C.ar    1  UNL1        0.0795
     22 C          18.2106   70.4238   -8.1791 C.ar    1  UNL1        0.2626
     23 H          17.3091   69.9839   -6.4168 H       1  UNL1        0.1734
     24 O          21.8674   73.1087   -0.8970 O.3     1  UNL1       -0.2703
     25 P          23.2178   72.9057   -0.0320 P.3     1  UNL1        0.2208
     26 O          24.1768   74.0989   -0.5556 O.co2   1  UNL1       -0.4371
     27 O          23.8190   71.5345   -0.1424 O.2     1  UNL1       -0.5170
     28 O          22.8107   73.3387    1.4686 O.3     1  UNL1       -0.2858
     29 O          24.4131   72.8806    3.1535 O.3     1  UNL1       -0.3258
     30 O          21.1136   73.5482    5.5449 O.3     1  UNL1       -0.3794
     31 O          23.2105   75.5079    5.4426 O.3     1  UNL1       -0.3794
     32 O          20.8160   72.1374    3.0348 O.3     1  UNL1       -0.3775
     33 C          21.9630   73.7468    4.4116 C.3     1  UNL1        0.1715
     34 C          23.3380   74.1906    4.9147 C.3     1  UNL1        0.1694
     35 C          22.0722   72.4366    3.6339 C.3     1  UNL1        0.1967
     36 C          24.3759   74.1660    3.7845 C.3     1  UNL1        0.1761
     37 C          23.1662   72.5027    2.5667 C.3     1  UNL1        0.2704
     38 H          21.0397   74.3765    6.0428 H       1  UNL1        0.2105
     39 H          22.5519   75.5097    6.1550 H       1  UNL1        0.2105
     40 H          20.1320   72.0980    3.7207 H       1  UNL1        0.2106
     41 O          25.7516   74.4884    5.7113 O.3     1  UNL1       -0.3794
     42 C          25.7858   74.4525    4.2965 C.3     1  UNL1        0.1693
     43 H          26.6422   74.6696    6.0512 H       1  UNL1        0.2105
@<TRIPOS>UNITY_ATOM_ATTR
2 1
charge -1
26 1
charge -1
@<TRIPOS>BOND
     1    25    28    1
     2    25    24    1
     3    25    26    1
     4    25    27    2
     5     1     4    1
     6     1    24    1
     7     1     2    1
     8     1     3    2
     9     6    11    1
    10     6    12    1
    11    29    36    1
    12    29    37    1
    13     7     9    1
    14     7    13    1
    15     8    10    1
    16     8    14    1
    17    28    37    1
    18     4     5    1
    19    30    33    1
    20    30    38    1
    21    31    34    1
    22    31    39    1
    23    32    35    1
    24    32    40    1
    25    41    42    1
    26    41    43    1
    27    15    19    2
    28    16    22    2
    29    17    12    1
    30    17    19   ar
    31    17    20   ar
    32    18    19   ar
    33    18    22   ar
    34    18    23    1
    35     9    10    1
    36     9    11    1
    37    10    12    1
    38    11     5    1
    39    33    34    1
    40    33    35    1
    41    34    36    1
    42    35    37    1
    43    36    42    1
    44    20    21   ar
    45    21    22   ar
@<TRIPOS>MOLECULE
*****
 43 45 0 0 0
SMALL
GASTEIGER

@<TRIPOS>ATOM
      1 P          22.6792   72.8425   -4.2370 P.3     1  UNL1        0.2189
      2 O          23.6782   72.3531   -3.0623 O.co2   1  UNL1       -0.4371
      3 O          23.2901   72.8976   -5.6064 O.2     1  UNL1       -0.5170
      4 O          22.0778   74.2372   -3.6794 O.3     1  UNL1       -0.3112
      5 C          22.2346   74.5393   -2.3039 C.3     1  UNL1        0.1811
      6 O          21.2633   72.8462   -0.9025 O.3     1  UNL1       -0.3308
      7 O          19.1853   74.8887   -0.1949 O.3     1  UNL1       -0.3794
      8 O          20.8460   74.9569    1.9670 O.3     1  UNL1       -0.3779
      9 C          20.5779   75.0685   -0.4469 C.3     1  UNL1        0.1713
     10 C          21.3937   74.5640    0.7251 C.3     1  UNL1        0.1895
     11 C          20.9826   74.1040   -1.5548 C.3     1  UNL1        0.1764
     12 C          21.3490   73.0599    0.5159 C.3     1  UNL1        0.2383
     13 H          18.9034   75.4945    0.5091 H       1  UNL1        0.2105
     14 H          20.8976   75.9216    2.0526 H       1  UNL1        0.2106
     15 O          21.5267   70.2893    1.0360 O.2     1  UNL1       -0.2464
     16 O          25.9031   70.6469    2.4362 O.2     1  UNL1       -0.2670
     17 N          22.5230   72.4022    1.0165 N.ar    1  UNL1       -0.2551
     18 N          23.7057   70.4696    1.7326 N.ar    1  UNL1       -0.2743
     19 C          22.5075   71.0064    1.2445 C.ar    1  UNL1        0.3323
     20 C          23.6732   73.1396    1.2756 C.ar    1  UNL1        0.0869
     21 C          24.8073   72.6129    1.7420 C.ar    1  UNL1        0.0795
     22 C          24.8749   71.1612    2.0071 C.ar    1  UNL1        0.2626
     23 H          23.7182   69.4991    1.8993 H       1  UNL1        0.1734
     24 O          21.4296   71.8266   -4.0982 O.3     1  UNL1       -0.2703
     25 P          20.6089   70.9945   -5.2149 P.3     1  UNL1        0.2208
     26 O          20.4587   69.5278   -4.5487 O.co2   1  UNL1       -0.4371
     27 O          21.2461   70.9948   -6.5742 O.2     1  UNL1       -0.5170
     28 O          19.1196   71.6152   -5.1742 O.3     1  UNL1       -0.2858
     29 O          18.7878   71.8809   -7.5057 O.3     1  UNL1       -0.3258
     30 O          14.9238   72.5449   -6.2095 O.3     1  UNL1       -0.3794
     31 O          15.5642   70.0937   -7.5621 O.3     1  UNL1       -0.3794
     32 O          17.1571   73.5569   -4.6706 O.3     1  UNL1       -0.3775
     33 C          16.2192   71.9390   -6.1886 C.3     1  UNL1        0.1715
     34 C          16.4344   71.2212   -7.5224 C.3     1  UNL1        0.1694
     35 C          17.2747   73.0244   -5.9856 C.3     1  UNL1        0.1967
     36 C          17.8942   70.7755   -7.6824 C.3     1  UNL1        0.1761
     37 C          18.6885   72.4874   -6.2157 C.3     1  UNL1        0.2704
     38 H          14.2490   71.8610   -6.3376 H       1  UNL1        0.2105
     39 H          14.6457   70.3888   -7.4596 H       1  UNL1        0.2105
     40 H          16.2578   73.8937   -4.5376 H       1  UNL1        0.2106
     41 O          18.3070   71.2712   -9.9830 O.3     1  UNL1       -0.3794
     42 C          18.1672   70.1985   -9.0697 C.3     1  UNL1        0.1693
     43 H          18.4815   70.9190  -10.8702 H       1  UNL1        0.2105
@<TRIPOS>UNITY_ATOM_ATTR
2 1
charge -1
26 1
charge -1
@<TRIPOS>BOND
     1    25    28    1
     2    25    24    1
     3    25    26    1
     4    25    27    2
     5     1     4    1
     6     1    24    1
     7     1     2    1
     8     1     3    2
     9     6    11    1
    10     6    12    1
    11    29    36    1
    12    29    37    1
    13     7     9    1
    14     7    13    1
    15     8    10    1
    16     8    14    1
    17    28    37    1
    18     4     5    1
    19    30    33    1
    20    30    38    1
    21    31    34    1
    22    31    39    1
    23    32    35    1
    24    32    40    1
    25    41    42    1
    26    41    43    1
    27    15    19    2
    28    16    22    2
    29    17    12    1
    30    17    19   ar
    31    17    20   ar
    32    18    19   ar
    33    18    22   ar
    34    18    23    1
    35     9    10    1
    36     9    11    1
    37    10    12    1
    38    11     5    1
    39    33    34    1
    40    33    35    1
    41    34    36    1
    42    35    37    1
    43    36    42    1
    44    20    21   ar
    45    21    22   ar
@<TRIPOS>MOLECULE
*****
 43 45 0 0 0
SMALL
GASTEIGER

@<TRIPOS>ATOM
      1 P          23.5105   72.3225   -3.5098 P.3     1  UNL1        0.2189
      2 O          23.9964   70.8346   -3.1005 O.co2   1  UNL1       -0.4371
      3 O          24.5474   73.1609   -4.1978 O.2     1  UNL1       -0.5170
      4 O          22.9165   72.9298   -2.1327 O.3     1  UNL1       -0.3112
      5 C          22.4847   74.2793   -2.1197 C.3     1  UNL1        0.1811
      6 O          20.6116   73.3863   -0.9080 O.3     1  UNL1       -0.3308
      7 O          19.0761   75.7632   -1.8998 O.3     1  UNL1       -0.3794
      8 O          19.6942   76.4798    0.6577 O.3     1  UNL1       -0.3779
      9 C          20.4452   75.6725   -1.5092 C.3     1  UNL1        0.1713
     10 C          20.5567   75.5756   -0.0020 C.3     1  UNL1        0.1895
     11 C          20.9714   74.3140   -1.9551 C.3     1  UNL1        0.1764
     12 C          20.1845   74.1241    0.2488 C.3     1  UNL1        0.2383
     13 H          18.7182   76.6227   -1.6260 H       1  UNL1        0.2105
     14 H          19.9721   77.3894    0.4672 H       1  UNL1        0.2106
     15 O          19.1200   74.2294    2.8629 O.2     1  UNL1       -0.2464
     16 O          22.7611   72.0257    4.6314 O.2     1  UNL1       -0.2670
     17 N          20.8330   73.5854    1.4110 N.ar    1  UNL1       -0.2551
     18 N          20.9338   73.1319    3.7413 N.ar    1  UNL1       -0.2743
     19 C          20.2137   73.6915    2.6781 C.ar    1  UNL1        0.3323
     20 C          22.0689   72.9599    1.2876 C.ar    1  UNL1        0.0869
     21 C          22.7431   72.4325    2.3116 C.ar    1  UNL1        0.0795
     22 C          22.1657   72.5012    3.6695 C.ar    1  UNL1        0.2626
     23 H          20.5220   73.1943    4.6337 H       1  UNL1        0.1734
     24 O          22.1816   72.0426   -4.3865 O.3     1  UNL1       -0.2703
     25 P          21.6412   72.7324   -5.7449 P.3     1  UNL1        0.2208
     26 O          22.5375   72.0348   -6.8971 O.co2   1  UNL1       -0.4371
     27 O          21.6992   74.2325   -5.7385 O.2     1  UNL1       -0.5170
     28 O          20.1621   72.1210   -5.9530 O.3     1  UNL1       -0.2858
     29 O          19.2041   70.0153   -5.4384 O.3     1  UNL1       -0.3258
     30 O          17.4749   70.6410   -9.1355 O.3     1  UNL1       -0.3794
     31 O          15.8705   70.8630   -6.7639 O.3     1  UNL1       -0.3794
     32 O          20.2204   71.4331   -8.6730 O.3     1  UNL1       -0.3775
     33 C          17.9917   71.0219   -7.8576 C.3     1  UNL1        0.1715
     34 C          17.1804   70.3024   -6.7783 C.3     1  UNL1        0.1694
     35 C          19.4647   70.6257   -7.7766 C.3     1  UNL1        0.1967
     36 C          17.8394   70.4485   -5.4001 C.3     1  UNL1        0.1761
     37 C          20.0088   70.7618   -6.3534 C.3     1  UNL1        0.2704
     38 H          16.5400   70.8902   -9.1937 H       1  UNL1        0.2105
     39 H          15.4657   70.7646   -7.6400 H       1  UNL1        0.2105
     40 H          19.8664   71.3379   -9.5705 H       1  UNL1        0.2106
     41 O          16.1169   68.8508   -4.9651 O.3     1  UNL1       -0.3794
     42 C          17.1344   69.6088   -4.3371 C.3     1  UNL1        0.1693
     43 H          15.6598   68.3111   -4.3007 H       1  UNL1        0.2105
@<TRIPOS>UNITY_ATOM_ATTR
2 1
charge -1
26 1
charge -1
@<TRIPOS>BOND
     1    25    28    1
     2    25    24    1
     3    25    26    1
     4    25    27    2
     5     1     4    1
     6     1    24    1
     7     1     2    1
     8     1     3    2
     9     6    11    1
    10     6    12    1
    11    29    36    1
    12    29    37    1
    13     7     9    1
    14     7    13    1
    15     8    10    1
    16     8    14    1
    17    28    37    1
    18     4     5    1
    19    30    33    1
    20    30    38    1
    21    31    34    1
    22    31    39    1
    23    32    35    1
    24    32    40    1
    25    41    42    1
    26    41    43    1
    27    15    19    2
    28    16    22    2
    29    17    12    1
    30    17    19   ar
    31    17    20   ar
    32    18    19   ar
    33    18    22   ar
    34    18    23    1
    35     9    10    1
    36     9    11    1
    37    10    12    1
    38    11     5    1
    39    33    34    1
    40    33    35    1
    41    34    36    1
    42    35    37    1
    43    36    42    1
    44    20    21   ar
    45    21    22   ar
@<TRIPOS>MOLECULE
*****
 43 45 0 0 0
SMALL
GASTEIGER

@<TRIPOS>ATOM
      1 P          21.2080   73.2216   -4.2553 P.3     1  UNL1        0.2189
      2 O          20.9072   73.7027   -5.7704 O.co2   1  UNL1       -0.4371
      3 O          22.2430   72.1429   -4.1266 O.2     1  UNL1       -0.5170
      4 O          19.7450   72.8660   -3.6630 O.3     1  UNL1       -0.3112
      5 C          19.3308   71.5109   -3.6528 C.3     1  UNL1        0.1811
      6 O          17.4314   71.8383   -5.0877 O.3     1  UNL1       -0.3308
      7 O          15.8904   70.1923   -3.1111 O.3     1  UNL1       -0.3794
      8 O          16.4023   68.4027   -5.1041 O.3     1  UNL1       -0.3779
      9 C          17.2459   70.0575   -3.5352 C.3     1  UNL1        0.1713
     10 C          17.3043   69.4769   -4.9327 C.3     1  UNL1        0.1895
     11 C          17.8122   71.4559   -3.7479 C.3     1  UNL1        0.1764
     12 C          16.9495   70.6805   -5.7891 C.3     1  UNL1        0.2383
     13 H          15.5073   69.3120   -2.9685 H       1  UNL1        0.2105
     14 H          16.6706   67.6617   -4.5386 H       1  UNL1        0.2106
     15 O          15.5280   70.5612   -8.2270 O.2     1  UNL1       -0.2464
     16 O          19.4155   70.4925  -10.7016 O.2     1  UNL1       -0.2670
     17 N          17.5649   70.6309   -7.0854 N.ar    1  UNL1       -0.2551
     18 N          17.4648   70.5272   -9.4572 N.ar    1  UNL1       -0.2743
     19 C          16.7605   70.5718   -8.2472 C.ar    1  UNL1        0.3323
     20 C          18.9511   70.6416   -7.1952 C.ar    1  UNL1        0.0869
     21 C          19.6074   70.5973   -8.3565 C.ar    1  UNL1        0.0795
     22 C          18.8414   70.5343   -9.6179 C.ar    1  UNL1        0.2626
     23 H          16.9253   70.4853  -10.2799 H       1  UNL1        0.1734
     24 O          21.5789   74.6031   -3.5022 O.3     1  UNL1       -0.2703
     25 P          22.4811   74.8886   -2.1917 P.3     1  UNL1        0.2208
     26 O          21.8304   76.2377   -1.5801 O.co2   1  UNL1       -0.4371
     27 O          23.9540   74.9811   -2.4669 O.2     1  UNL1       -0.5170
     28 O          22.0669   73.7276   -1.1498 O.3     1  UNL1       -0.2858
     29 O          23.3524   73.6552    0.8399 O.3     1  UNL1       -0.3258
     30 O          21.5360   69.9555    1.0929 O.3     1  UNL1       -0.3794
     31 O          20.7072   72.0656    2.8560 O.3     1  UNL1       -0.3794
     32 O          22.4111   70.9618   -1.4764 O.3     1  UNL1       -0.3775
     33 C          21.6217   71.3454    0.7666 C.3     1  UNL1        0.1715
     34 C          21.8849   72.1253    2.0563 C.3     1  UNL1        0.1694
     35 C          22.7601   71.5547   -0.2302 C.3     1  UNL1        0.1967
     36 C          22.2534   73.5845    1.7558 C.3     1  UNL1        0.1761
     37 C          23.0789   73.0388   -0.4199 C.3     1  UNL1        0.2704
     38 H          20.8147   69.8157    1.7251 H       1  UNL1        0.2105
     39 H          20.4852   71.1389    3.0381 H       1  UNL1        0.2105
     40 H          22.2120   70.0224   -1.3429 H       1  UNL1        0.2106
     41 O          22.0398   75.6056    3.0121 O.3     1  UNL1       -0.3794
     42 C          22.6730   74.3394    3.0152 C.3     1  UNL1        0.1693
     43 H          22.2974   76.0972    3.8081 H       1  UNL1        0.2105
@<TRIPOS>UNITY_ATOM_ATTR
2 1
charge -1
26 1
charge -1
@<TRIPOS>BOND
     1    25    28    1
     2    25    24    1
     3    25    26    1
     4    25    27    2
     5     1     4    1
     6     1    24    1
     7     1     2    1
     8     1     3    2
     9     6    11    1
    10     6    12    1
    11    29    36    1
    12    29    37    1
    13     7     9    1
    14     7    13    1
    15     8    10    1
    16     8    14    1
    17    28    37    1
    18     4     5    1
    19    30    33    1
    20    30    38    1
    21    31    34    1
    22    31    39    1
    23    32    35    1
    24    32    40    1
    25    41    42    1
    26    41    43    1
    27    15    19    2
    28    16    22    2
    29    17    12    1
    30    17    19   ar
    31    17    20   ar
    32    18    19   ar
    33    18    22   ar
    34    18    23    1
    35     9    10    1
    36     9    11    1
    37    10    12    1
    38    11     5    1
    39    33    34    1
    40    33    35    1
    41    34    36    1
    42    35    37    1
    43    36    42    1
    44    20    21   ar
    45    21    22   ar
@<TRIPOS>MOLECULE
*****
 43 45 0 0 0
SMALL
GASTEIGER

@<TRIPOS>ATOM
      1 P          21.2992   72.6385   -3.3821 P.3     1  UNL1        0.2189
      2 O          22.0559   71.2138   -3.2593 O.co2   1  UNL1       -0.4371
      3 O          22.2017   73.8201   -3.5841 O.2     1  UNL1       -0.5170
      4 O          20.3555   72.6915   -2.0689 O.3     1  UNL1       -0.3112
      5 C          20.3393   73.8786   -1.2954 C.3     1  UNL1        0.1811
      6 O          20.2908   72.4366    0.6260 O.3     1  UNL1       -0.3308
      7 O          18.7552   74.6196    1.9925 O.3     1  UNL1       -0.3794
      8 O          21.2734   74.9538    2.9842 O.3     1  UNL1       -0.3779
      9 C          19.8204   74.7204    1.0488 C.3     1  UNL1        0.1713
     10 C          21.1392   74.3686    1.7050 C.3     1  UNL1        0.1895
     11 C          19.6584   73.5935    0.0362 C.3     1  UNL1        0.1764
     12 C          21.0690   72.8520    1.7604 C.3     1  UNL1        0.2383
     13 H          18.8372   75.3293    2.6494 H       1  UNL1        0.2105
     14 H          21.3138   75.9188    2.8958 H       1  UNL1        0.2106
     15 O          21.5195   70.1404    1.1104 O.2     1  UNL1       -0.2464
     16 O          26.0869   70.6151    1.5038 O.2     1  UNL1       -0.2670
     17 N          22.3658   72.2405    1.6853 N.ar    1  UNL1       -0.2551
     18 N          23.7934   70.3790    1.3067 N.ar    1  UNL1       -0.2743
     19 C          22.4827   70.8711    1.3515 C.ar    1  UNL1        0.3323
     20 C          23.5044   72.9969    1.9409 C.ar    1  UNL1        0.0869
     21 C          24.7472   72.5123    1.8953 C.ar    1  UNL1        0.0795
     22 C          24.9567   71.0905    1.5539 C.ar    1  UNL1        0.2626
     23 H          23.8993   69.4274    1.0765 H       1  UNL1        0.1734
     24 O          20.2424   72.3867   -4.5791 O.3     1  UNL1       -0.2703
     25 P          20.4501   71.8096   -6.0746 P.3     1  UNL1        0.2208
     26 O          20.3773   70.2067   -5.8672 O.co2   1  UNL1       -0.4371
     27 O          21.7010   72.2902   -6.7515 O.2     1  UNL1       -0.5170
     28 O          19.0845   72.1827   -6.8498 O.3     1  UNL1       -0.2858
     29 O          17.2691   71.1540   -5.7263 O.3     1  UNL1       -0.3258
     30 O          15.2392   72.7221   -8.9622 O.3     1  UNL1       -0.3794
     31 O          14.9087   73.9116   -6.3692 O.3     1  UNL1       -0.3794
     32 O          17.8859   71.6060   -9.3208 O.3     1  UNL1       -0.3775
     33 C          16.2394   72.6945   -7.9404 C.3     1  UNL1        0.1715
     34 C          15.5364   72.6503   -6.5822 C.3     1  UNL1        0.1694
     35 C          17.1156   71.4582   -8.1328 C.3     1  UNL1        0.1967
     36 C          16.5315   72.3511   -5.4529 C.3     1  UNL1        0.1761
     37 C          18.0333   71.2238   -6.9316 C.3     1  UNL1        0.2704
     38 H          14.6797   73.5050   -8.8461 H       1  UNL1        0.2105
     39 H          14.2832   74.0886   -7.0894 H       1  UNL1        0.2105
     40 H          17.2935   71.7535  -10.0739 H       1  UNL1        0.2106
     41 O          15.6620   70.7568   -3.9001 O.3     1  UNL1       -0.3794
     42 C          15.8301   72.1465   -4.1119 C.3     1  UNL1        0.1693
     43 H          15.2171   70.6114   -3.0501 H       1  UNL1        0.2105
@<TRIPOS>UNITY_ATOM_ATTR
2 1
charge -1
26 1
charge -1
@<TRIPOS>BOND
     1    25    28    1
     2    25    24    1
     3    25    26    1
     4    25    27    2
     5     1     4    1
     6     1    24    1
     7     1     2    1
     8     1     3    2
     9     6    11    1
    10     6    12    1
    11    29    36    1
    12    29    37    1
    13     7     9    1
    14     7    13    1
    15     8    10    1
    16     8    14    1
    17    28    37    1
    18     4     5    1
    19    30    33    1
    20    30    38    1
    21    31    34    1
    22    31    39    1
    23    32    35    1
    24    32    40    1
    25    41    42    1
    26    41    43    1
    27    15    19    2
    28    16    22    2
    29    17    12    1
    30    17    19   ar
    31    17    20   ar
    32    18    19   ar
    33    18    22   ar
    34    18    23    1
    35     9    10    1
    36     9    11    1
    37    10    12    1
    38    11     5    1
    39    33    34    1
    40    33    35    1
    41    34    36    1
    42    35    37    1
    43    36    42    1
    44    20    21   ar
    45    21    22   ar
@<TRIPOS>MOLECULE
*****
 43 45 0 0 0
SMALL
GASTEIGER

@<TRIPOS>ATOM
      1 P          23.6602   72.7777   -3.9824 P.3     1  UNL1        0.2189
      2 O          24.8763   73.8418   -3.9041 O.co2   1  UNL1       -0.4371
      3 O          23.9447   71.4430   -3.3586 O.2     1  UNL1       -0.5170
      4 O          23.2682   72.7506   -5.5519 O.3     1  UNL1       -0.3112
      5 C          22.1205   72.0209   -5.9497 C.3     1  UNL1        0.1811
      6 O          20.3110   71.9839   -7.5302 O.3     1  UNL1       -0.3308
      7 O          20.4977   74.9765   -7.5306 O.3     1  UNL1       -0.3794
      8 O          18.3624   74.5144   -5.8985 O.3     1  UNL1       -0.3779
      9 C          20.6859   74.0610   -6.4528 C.3     1  UNL1        0.1713
     10 C          19.3526   73.5105   -5.9916 C.3     1  UNL1        0.1895
     11 C          21.3688   72.8171   -7.0076 C.3     1  UNL1        0.1764
     12 C          19.0455   72.4846   -7.0692 C.3     1  UNL1        0.2383
     13 H          20.0633   75.7793   -7.2006 H       1  UNL1        0.2105
     14 H          18.6032   75.1424   -5.1996 H       1  UNL1        0.2106
     15 O          19.3884   71.2977   -4.5292 O.2     1  UNL1       -0.2464
     16 O          15.9849   68.2813   -5.2763 O.2     1  UNL1       -0.2670
     17 N          18.2625   71.3877   -6.5740 N.ar    1  UNL1       -0.2551
     18 N          17.6933   69.7969   -4.9032 N.ar    1  UNL1       -0.2743
     19 C          18.5159   70.8645   -5.2846 C.ar    1  UNL1        0.3323
     20 C          17.2560   70.8425   -7.3637 C.ar    1  UNL1        0.0869
     21 C          16.4813   69.8236   -6.9858 C.ar    1  UNL1        0.0795
     22 C          16.6809   69.2192   -5.6528 C.ar    1  UNL1        0.2626
     23 H          17.8519   69.4159   -4.0090 H       1  UNL1        0.1734
     24 O          22.4285   73.5837   -3.3142 O.3     1  UNL1       -0.2703
     25 P          22.4055   74.7500   -2.1953 P.3     1  UNL1        0.2208
     26 O          21.0706   75.5881   -2.5602 O.co2   1  UNL1       -0.4371
     27 O          23.6588   75.5748   -2.1403 O.2     1  UNL1       -0.5170
     28 O          22.0451   73.9885   -0.8186 O.3     1  UNL1       -0.2858
     29 O          22.5333   74.7228    1.3811 O.3     1  UNL1       -0.3258
     30 O          22.7464   70.6434    1.9847 O.3     1  UNL1       -0.3794
     31 O          20.5134   72.1166    3.0295 O.3     1  UNL1       -0.3794
     32 O          23.7601   71.7948   -0.4701 O.3     1  UNL1       -0.3775
     33 C          22.2461   71.8500    1.4023 C.3     1  UNL1        0.1715
     34 C          21.6953   72.7319    2.5247 C.3     1  UNL1        0.1694
     35 C          23.3833   72.5596    0.6698 C.3     1  UNL1        0.1967
     36 C          21.3861   74.1465    2.0166 C.3     1  UNL1        0.1761
     37 C          22.9876   73.9766    0.2504 C.3     1  UNL1        0.2704
     38 H          22.0292   70.1877    2.4510 H       1  UNL1        0.2105
     39 H          20.7223   71.2239    3.3466 H       1  UNL1        0.2105
     40 H          24.0086   70.9001   -0.1913 H       1  UNL1        0.2106
     41 O          19.6334   74.8346    3.4874 O.3     1  UNL1       -0.3794
     42 C          20.9853   75.0868    3.1511 C.3     1  UNL1        0.1693
     43 H          19.3645   75.4257    4.2085 H       1  UNL1        0.2105
@<TRIPOS>UNITY_ATOM_ATTR
2 1
charge -1
26 1
charge -1
@<TRIPOS>BOND
     1    25    28    1
     2    25    24    1
     3    25    26    1
     4    25    27    2
     5     1     4    1
     6     1    24    1
     7     1     2    1
     8     1     3    2
     9     6    11    1
    10     6    12    1
    11    29    36    1
    12    29    37    1
    13     7     9    1
    14     7    13    1
    15     8    10    1
    16     8    14    1
    17    28    37    1
    18     4     5    1
    19    30    33    1
    20    30    38    1
    21    31    34    1
    22    31    39    1
    23    32    35    1
    24    32    40    1
    25    41    42    1
    26    41    43    1
    27    15    19    2
    28    16    22    2
    29    17    12    1
    30    17    19   ar
    31    17    20   ar
    32    18    19   ar
    33    18    22   ar
    34    18    23    1
    35     9    10    1
    36     9    11    1
    37    10    12    1
    38    11     5    1
    39    33    34    1
    40    33    35    1
    41    34    36    1
    42    35    37    1
    43    36    42    1
    44    20    21   ar
    45    21    22   ar
@<TRIPOS>MOLECULE
*****
 43 45 0 0 0
SMALL
GASTEIGER

@<TRIPOS>ATOM
      1 P          22.8409   71.9871   -3.4521 P.3     1  UNL1        0.2189
      2 O          22.5753   70.4328   -3.0901 O.co2   1  UNL1       -0.4371
      3 O          24.1908   72.2795   -4.0384 O.2     1  UNL1       -0.5170
      4 O          22.4850   72.7712   -2.0823 O.3     1  UNL1       -0.3112
      5 C          23.4001   72.6962   -1.0030 C.3     1  UNL1        0.1811
      6 O          24.4135   71.0457    0.4191 O.3     1  UNL1       -0.3308
      7 O          21.6228   70.1569    1.0614 O.3     1  UNL1       -0.3794
      8 O          22.2863   71.6545    3.2417 O.3     1  UNL1       -0.3779
      9 C          22.1180   71.4735    0.8230 C.3     1  UNL1        0.1713
     10 C          22.9173   71.9584    2.0144 C.3     1  UNL1        0.1895
     11 C          23.1850   71.3843   -0.2609 C.3     1  UNL1        0.1764
     12 C          24.2320   71.2186    1.8340 C.3     1  UNL1        0.2383
     13 H          20.9395   70.1885    1.7500 H       1  UNL1        0.2105
     14 H          21.4549   72.1494    3.3092 H       1  UNL1        0.2106
     15 O          24.1829   73.9718    2.4626 O.2     1  UNL1       -0.2464
     16 O          28.5774   73.9204    3.8507 O.2     1  UNL1       -0.2670
     17 N          25.3490   71.9502    2.3615 N.ar    1  UNL1       -0.2551
     18 N          26.3710   73.9439    3.1534 N.ar    1  UNL1       -0.2743
     19 C          25.2201   73.3304    2.6423 C.ar    1  UNL1        0.3323
     20 C          26.5555   71.2994    2.5955 C.ar    1  UNL1        0.0869
     21 C          27.6440   71.8991    3.0821 C.ar    1  UNL1        0.0795
     22 C          27.5934   73.3403    3.4021 C.ar    1  UNL1        0.2626
     23 H          26.3048   74.9053    3.3561 H       1  UNL1        0.1734
     24 O          21.5954   72.3540   -4.4149 O.3     1  UNL1       -0.2703
     25 P          21.5503   73.0464   -5.8749 P.3     1  UNL1        0.2208
     26 O          22.7772   72.3404   -6.6584 O.co2   1  UNL1       -0.4371
     27 O          21.6146   74.5461   -5.8469 O.2     1  UNL1       -0.5170
     28 O          20.2233   72.4466   -6.5707 O.3     1  UNL1       -0.2858
     29 O          19.4525   70.3656   -5.7390 O.3     1  UNL1       -0.3258
     30 O          17.3513   70.4752   -9.2920 O.3     1  UNL1       -0.3794
     31 O          15.9632   70.8807   -6.8106 O.3     1  UNL1       -0.3794
     32 O          20.0723   71.4580   -9.1927 O.3     1  UNL1       -0.3775
     33 C          17.9594   71.0256   -8.1203 C.3     1  UNL1        0.1715
     34 C          17.2990   70.3917   -6.8944 C.3     1  UNL1        0.1694
     35 C          19.4557   70.7192   -8.1437 C.3     1  UNL1        0.1967
     36 C          18.0725   70.7280   -5.6124 C.3     1  UNL1        0.1761
     37 C          20.1198   71.0446   -6.8046 C.3     1  UNL1        0.2704
     38 H          16.4012   70.6667   -9.2835 H       1  UNL1        0.2105
     39 H          15.4859   70.6622   -7.6265 H       1  UNL1        0.2105
     40 H          19.6432   71.2430  -10.0350 H       1  UNL1        0.2106
     41 O          16.3806   70.6662   -3.9264 O.3     1  UNL1       -0.3794
     42 C          17.5239   69.9786   -4.4002 C.3     1  UNL1        0.1693
     43 H          16.0205   70.2004   -3.1550 H       1  UNL1        0.2105
@<TRIPOS>UNITY_ATOM_ATTR
2 1
charge -1
26 1
charge -1
@<TRIPOS>BOND
     1    25    28    1
     2    25    24    1
     3    25    26    1
     4    25    27    2
     5     1     4    1
     6     1    24    1
     7     1     2    1
     8     1     3    2
     9     6    11    1
    10     6    12    1
    11    29    36    1
    12    29    37    1
    13     7     9    1
    14     7    13    1
    15     8    10    1
    16     8    14    1
    17    28    37    1
    18     4     5    1
    19    30    33    1
    20    30    38    1
    21    31    34    1
    22    31    39    1
    23    32    35    1
    24    32    40    1
    25    41    42    1
    26    41    43    1
    27    15    19    2
    28    16    22    2
    29    17    12    1
    30    17    19   ar
    31    17    20   ar
    32    18    19   ar
    33    18    22   ar
    34    18    23    1
    35     9    10    1
    36     9    11    1
    37    10    12    1
    38    11     5    1
    39    33    34    1
    40    33    35    1
    41    34    36    1
    42    35    37    1
    43    36    42    1
    44    20    21   ar
    45    21    22   ar
@<TRIPOS>MOLECULE
*****
 43 45 0 0 0
SMALL
GASTEIGER

@<TRIPOS>ATOM
      1 P          21.8445   72.4992   -5.6629 P.3     1  UNL1        0.2189
      2 O          21.2203   73.9557   -5.3368 O.co2   1  UNL1       -0.4371
      3 O          23.0878   72.5161   -6.5028 O.2     1  UNL1       -0.5170
      4 O          20.5963   71.6693   -6.2721 O.3     1  UNL1       -0.3112
      5 C          20.1164   72.0175   -7.5591 C.3     1  UNL1        0.1811
      6 O          18.9335   69.9674   -7.1447 O.3     1  UNL1       -0.3308
      7 O          18.1446   70.0567  -10.0362 O.3     1  UNL1       -0.3794
      8 O          15.9029   70.9694   -8.7800 O.3     1  UNL1       -0.3779
      9 C          18.3061   71.1310   -9.1114 C.3     1  UNL1        0.1713
     10 C          17.1463   71.1657   -8.1381 C.3     1  UNL1        0.1895
     11 C          19.4777   70.7921   -8.1983 C.3     1  UNL1        0.1764
     12 C          17.4988   70.0340   -7.1876 C.3     1  UNL1        0.2383
     13 H          17.4021   70.2505  -10.6303 H       1  UNL1        0.2105
     14 H          15.7239   71.7153   -9.3735 H       1  UNL1        0.2106
     15 O          16.2528   68.0633   -5.5933 O.2     1  UNL1       -0.2464
     16 O          15.6328   71.0139   -2.1076 O.2     1  UNL1       -0.2670
     17 N          17.0025   70.2597   -5.8594 N.ar    1  UNL1       -0.2551
     18 N          15.9453   69.5340   -3.8589 N.ar    1  UNL1       -0.2743
     19 C          16.3924   69.2029   -5.1444 C.ar    1  UNL1        0.3323
     20 C          17.1234   71.5176   -5.2789 C.ar    1  UNL1        0.0869
     21 C          16.6906   71.8174   -4.0525 C.ar    1  UNL1        0.0795
     22 C          16.0413   70.7696   -3.2386 C.ar    1  UNL1        0.2626
     23 H          15.5166   68.8136   -3.3422 H       1  UNL1        0.1734
     24 O          22.0326   71.8476   -4.1956 O.3     1  UNL1       -0.2703
     25 P          23.2299   71.9855   -3.1184 P.3     1  UNL1        0.2208
     26 O          23.8678   73.4335   -3.4561 O.co2   1  UNL1       -0.4371
     27 O          24.2154   70.8533   -3.1453 O.2     1  UNL1       -0.5170
     28 O          22.4836   72.1892   -1.7019 O.3     1  UNL1       -0.2858
     29 O          23.3979   70.6385   -0.1605 O.3     1  UNL1       -0.3258
     30 O          20.4417   72.2681    2.2178 O.3     1  UNL1       -0.3794
     31 O          23.1918   72.9198    2.7278 O.3     1  UNL1       -0.3794
     32 O          19.9362   71.7943   -0.5928 O.3     1  UNL1       -0.3775
     33 C          21.4573   72.2784    1.2109 C.3     1  UNL1        0.1715
     34 C          22.7803   71.8672    1.8600 C.3     1  UNL1        0.1694
     35 C          21.0734   71.2974    0.1047 C.3     1  UNL1        0.1967
     36 C          23.8568   71.5967    0.8003 C.3     1  UNL1        0.1761
     37 C          22.2305   71.0616   -0.8677 C.3     1  UNL1        0.2704
     38 H          20.6791   72.8893    2.9230 H       1  UNL1        0.2105
     39 H          22.5032   73.0809    3.3918 H       1  UNL1        0.2105
     40 H          19.2107   71.9391    0.0337 H       1  UNL1        0.2106
     41 O          24.7896   70.2799    2.5623 O.3     1  UNL1       -0.3794
     42 C          25.1363   71.0339    1.4154 C.3     1  UNL1        0.1693
     43 H          25.5941   69.9153    2.9642 H       1  UNL1        0.2105
@<TRIPOS>UNITY_ATOM_ATTR
2 1
charge -1
26 1
charge -1
@<TRIPOS>BOND
     1    25    28    1
     2    25    24    1
     3    25    26    1
     4    25    27    2
     5     1     4    1
     6     1    24    1
     7     1     2    1
     8     1     3    2
     9     6    11    1
    10     6    12    1
    11    29    36    1
    12    29    37    1
    13     7     9    1
    14     7    13    1
    15     8    10    1
    16     8    14    1
    17    28    37    1
    18     4     5    1
    19    30    33    1
    20    30    38    1
    21    31    34    1
    22    31    39    1
    23    32    35    1
    24    32    40    1
    25    41    42    1
    26    41    43    1
    27    15    19    2
    28    16    22    2
    29    17    12    1
    30    17    19   ar
    31    17    20   ar
    32    18    19   ar
    33    18    22   ar
    34    18    23    1
    35     9    10    1
    36     9    11    1
    37    10    12    1
    38    11     5    1
    39    33    34    1
    40    33    35    1
    41    34    36    1
    42    35    37    1
    43    36    42    1
    44    20    21   ar
    45    21    22   ar
@<TRIPOS>MOLECULE
*****
 43 45 0 0 0
SMALL
GASTEIGER

@<TRIPOS>ATOM
      1 P          22.4952   74.0046   -4.7350 P.3     1  UNL1        0.2189
      2 O          23.6969   74.5110   -5.6925 O.co2   1  UNL1       -0.4371
      3 O          21.7116   75.0975   -4.0695 O.2     1  UNL1       -0.5170
      4 O          23.2103   72.9472   -3.7407 O.3     1  UNL1       -0.3112
      5 C          22.9946   73.0780   -2.3463 C.3     1  UNL1        0.1811
      6 O          23.4803   71.2026   -0.9248 O.3     1  UNL1       -0.3308
      7 O          20.5313   70.6603   -0.9479 O.3     1  UNL1       -0.3794
      8 O          20.8915   71.8859    1.4614 O.3     1  UNL1       -0.3779
      9 C          21.2188   71.9104   -0.9476 C.3     1  UNL1        0.1713
     10 C          21.7996   72.1907    0.4226 C.3     1  UNL1        0.1895
     11 C          22.4728   71.7564   -1.7992 C.3     1  UNL1        0.1764
     12 C          23.0251   71.2928    0.4351 C.3     1  UNL1        0.2383
     13 H          19.7265   70.7340   -0.4106 H       1  UNL1        0.2105
     14 H          20.1295   72.4838    1.4108 H       1  UNL1        0.2106
     15 O          24.7780   69.7216    1.9961 O.2     1  UNL1       -0.2464
     16 O          27.0498   73.4342    3.5118 O.2     1  UNL1       -0.2670
     17 N          24.0840   71.8227    1.2471 N.ar    1  UNL1       -0.2551
     18 N          25.9079   71.5715    2.7494 N.ar    1  UNL1       -0.2743
     19 C          24.9071   70.9476    1.9935 C.ar    1  UNL1        0.3323
     20 C          24.2980   73.1959    1.2973 C.ar    1  UNL1        0.0869
     21 C          25.2559   73.7751    2.0241 C.ar    1  UNL1        0.0795
     22 C          26.1595   72.9318    2.8330 C.ar    1  UNL1        0.2626
     23 H          26.4933   70.9817    3.2778 H       1  UNL1        0.1734
     24 O          21.6273   73.0540   -5.7128 O.3     1  UNL1       -0.2703
     25 P          20.4761   71.9666   -5.3887 P.3     1  UNL1        0.2208
     26 O          19.5301   72.7339   -4.3238 O.co2   1  UNL1       -0.4371
     27 O          20.9975   70.6420   -4.9118 O.2     1  UNL1       -0.5170
     28 O          19.5935   71.8915   -6.7379 O.3     1  UNL1       -0.2858
     29 O          18.3106   70.0722   -5.9251 O.3     1  UNL1       -0.3258
     30 O          15.6216   71.6073   -8.6571 O.3     1  UNL1       -0.3794
     31 O          15.1370   71.9460   -5.8467 O.3     1  UNL1       -0.3794
     32 O          18.4484   71.5674   -9.2794 O.3     1  UNL1       -0.3775
     33 C          16.6570   71.6686   -7.6725 C.3     1  UNL1        0.1715
     34 C          16.1211   71.0610   -6.3746 C.3     1  UNL1        0.1694
     35 C          17.8688   70.8846   -8.1729 C.3     1  UNL1        0.1967
     36 C          17.2489   70.8472   -5.3560 C.3     1  UNL1        0.1761
     37 C          18.9085   70.6862   -7.0685 C.3     1  UNL1        0.2704
     38 H          14.8494   72.1035   -8.3458 H       1  UNL1        0.2105
     39 H          14.4309   72.0729   -6.4998 H       1  UNL1        0.2105
     40 H          17.7803   71.6866   -9.9717 H       1  UNL1        0.2106
     41 O          15.8746   69.0774   -4.5265 O.3     1  UNL1       -0.3794
     42 C          16.7652   70.0984   -4.1160 C.3     1  UNL1        0.1693
     43 H          15.5589   68.5922   -3.7477 H       1  UNL1        0.2105
@<TRIPOS>UNITY_ATOM_ATTR
2 1
charge -1
26 1
charge -1
@<TRIPOS>BOND
     1    25    28    1
     2    25    24    1
     3    25    26    1
     4    25    27    2
     5     1     4    1
     6     1    24    1
     7     1     2    1
     8     1     3    2
     9     6    11    1
    10     6    12    1
    11    29    36    1
    12    29    37    1
    13     7     9    1
    14     7    13    1
    15     8    10    1
    16     8    14    1
    17    28    37    1
    18     4     5    1
    19    30    33    1
    20    30    38    1
    21    31    34    1
    22    31    39    1
    23    32    35    1
    24    32    40    1
    25    41    42    1
    26    41    43    1
    27    15    19    2
    28    16    22    2
    29    17    12    1
    30    17    19   ar
    31    17    20   ar
    32    18    19   ar
    33    18    22   ar
    34    18    23    1
    35     9    10    1
    36     9    11    1
    37    10    12    1
    38    11     5    1
    39    33    34    1
    40    33    35    1
    41    34    36    1
    42    35    37    1
    43    36    42    1
    44    20    21   ar
    45    21    22   ar
@<TRIPOS>MOLECULE
*****
 43 45 0 0 0
SMALL
GASTEIGER

@<TRIPOS>ATOM
      1 P          22.4662   72.3957   -4.6961 P.3     1  UNL1        0.2189
      2 O          24.0579   72.6579   -4.5720 O.co2   1  UNL1       -0.4371
      3 O          21.9281   71.3247   -3.7935 O.2     1  UNL1       -0.5170
      4 O          22.2334   72.1621   -6.2802 O.3     1  UNL1       -0.3112
      5 C          20.9083   72.1957   -6.7809 C.3     1  UNL1        0.1811
      6 O          19.5614   70.3179   -6.1225 O.3     1  UNL1       -0.3308
      7 O          19.8398   69.3647   -8.9518 O.3     1  UNL1       -0.3794
      8 O          17.3450   70.4660   -8.9383 O.3     1  UNL1       -0.3779
      9 C          19.7169   70.6970   -8.4566 C.3     1  UNL1        0.1713
     10 C          18.2928   70.9653   -8.0168 C.3     1  UNL1        0.1895
     11 C          20.4776   70.7799   -7.1391 C.3     1  UNL1        0.1764
     12 C          18.2372   70.2519   -6.6766 C.3     1  UNL1        0.2383
     13 H          19.3621   69.2874   -9.7931 H       1  UNL1        0.2105
     14 H          17.4200   70.9516   -9.7746 H       1  UNL1        0.2106
     15 O          16.7468   68.8607   -4.7218 O.2     1  UNL1       -0.2464
     16 O          14.7415   72.7333   -3.2310 O.2     1  UNL1       -0.2670
     17 N          17.3184   70.8717   -5.7639 N.ar    1  UNL1       -0.2551
     18 N          15.7497   70.7901   -3.9810 N.ar    1  UNL1       -0.2743
     19 C          16.6190   70.0827   -4.8212 C.ar    1  UNL1        0.3323
     20 C          17.1186   72.2472   -5.8090 C.ar    1  UNL1        0.0869
     21 C          16.2850   72.9064   -5.0016 C.ar    1  UNL1        0.0795
     22 C          15.5159   72.1561   -3.9879 C.ar    1  UNL1        0.2626
     23 H          15.2514   70.2611   -3.3164 H       1  UNL1        0.1734
     24 O          21.8358   73.8634   -4.4488 O.3     1  UNL1       -0.2703
     25 P          20.8239   74.4061   -3.3110 P.3     1  UNL1        0.2208
     26 O          19.5412   73.4313   -3.4596 O.co2   1  UNL1       -0.4371
     27 O          20.5053   75.8694   -3.4180 O.2     1  UNL1       -0.5170
     28 O          21.5072   73.9707   -1.9152 O.3     1  UNL1       -0.2858
     29 O          21.1129   72.2340   -0.3515 O.3     1  UNL1       -0.3258
     30 O          21.6913   75.3677    2.2746 O.3     1  UNL1       -0.3794
     31 O          23.7166   73.3490    2.0078 O.3     1  UNL1       -0.3794
     32 O          20.2537   75.8040   -0.1997 O.3     1  UNL1       -0.3775
     33 C          21.9090   74.6113    1.0805 C.3     1  UNL1        0.1715
     34 C          22.4003   73.2180    1.4782 C.3     1  UNL1        0.1694
     35 C          20.5974   74.5173    0.3032 C.3     1  UNL1        0.1967
     36 C          22.4009   72.2663    0.2744 C.3     1  UNL1        0.1761
     37 C          20.6909   73.5079   -0.8425 C.3     1  UNL1        0.2704
     38 H          22.5205   75.4315    2.7726 H       1  UNL1        0.2105
     39 H          23.7024   73.9528    2.7670 H       1  UNL1        0.2105
     40 H          20.1973   76.4338    0.5352 H       1  UNL1        0.2106
     41 O          21.5323   70.1664    1.0125 O.3     1  UNL1       -0.3794
     42 C          22.7362   70.8325    0.6790 C.3     1  UNL1        0.1693
     43 H          21.7303   69.2524    1.2718 H       1  UNL1        0.2105
@<TRIPOS>UNITY_ATOM_ATTR
2 1
charge -1
26 1
charge -1
@<TRIPOS>BOND
     1    25    28    1
     2    25    24    1
     3    25    26    1
     4    25    27    2
     5     1     4    1
     6     1    24    1
     7     1     2    1
     8     1     3    2
     9     6    11    1
    10     6    12    1
    11    29    36    1
    12    29    37    1
    13     7     9    1
    14     7    13    1
    15     8    10    1
    16     8    14    1
    17    28    37    1
    18     4     5    1
    19    30    33    1
    20    30    38    1
    21    31    34    1
    22    31    39    1
    23    32    35    1
    24    32    40    1
    25    41    42    1
    26    41    43    1
    27    15    19    2
    28    16    22    2
    29    17    12    1
    30    17    19   ar
    31    17    20   ar
    32    18    19   ar
    33    18    22   ar
    34    18    23    1
    35     9    10    1
    36     9    11    1
    37    10    12    1
    38    11     5    1
    39    33    34    1
    40    33    35    1
    41    34    36    1
    42    35    37    1
    43    36    42    1
    44    20    21   ar
    45    21    22   ar
