@<TRIPOS>MOLECULE
UDP-glaA
 43 45 0 0 0
SMALL
GASTEIGER

@<TRIPOS>ATOM
      1 P          22.9821   71.9559   -3.3881 P.3     1  UNL1        0.2189
      2 O          23.7407   72.9280   -4.4355 O.3     1  UNL1       -0.4371
      3 O          23.6279   70.6164   -3.1858 O.2     1  UNL1       -0.5170
      4 O          21.4549   71.9268   -3.9193 O.3     1  UNL1       -0.3112
      5 C          20.6320   70.8313   -3.5561 C.3     1  UNL1        0.1811
      6 O          18.7931   71.9116   -4.6631 O.3     1  UNL1       -0.3308
      7 O          17.0592   70.7545   -2.5076 O.3     1  UNL1       -0.3794
      8 O          16.6172   69.0625   -4.5998 O.3     1  UNL1       -0.3779
      9 C          18.2052   70.1905   -3.1450 C.3     1  UNL1        0.1713
     10 C          17.8567   69.7380   -4.5472 C.3     1  UNL1        0.1895
     11 C          19.1965   71.3159   -3.4103 C.3     1  UNL1        0.1764
     12 C          17.8379   71.0530   -5.3078 C.3     1  UNL1        0.2383
     13 H          17.3392   71.0648   -1.6296 H       1  UNL1        0.2105
     14 H          16.6762   68.2959   -4.0040 H       1  UNL1        0.2106
     15 O          16.0188   70.4856   -7.3922 O.2     1  UNL1       -0.2464
     16 O          19.3688   70.4652  -10.5569 O.2     1  UNL1       -0.2670
     17 N          18.2071   70.8948   -6.6855 N.ar    1  UNL1       -0.2551
     18 N          17.6883   70.4753   -8.9666 N.ar    1  UNL1       -0.2743
     19 C          17.2165   70.6102   -7.6542 C.ar    1  UNL1        0.3323
     20 C          19.5387   71.0216   -7.0652 C.ar    1  UNL1        0.0869
     21 C          19.9725   70.8907   -8.3207 C.ar    1  UNL1        0.0795
     22 C          19.0023   70.5922   -9.3927 C.ar    1  UNL1        0.2626
     23 H          16.9938   70.2699   -9.6798 H       1  UNL1        0.1734
     24 O          22.8854   72.8653   -2.0544 O.3     1  UNL1       -0.2703
     25 P          22.3125   74.3599   -1.8295 P.3     1  UNL1        0.2208
     26 O          20.7989   74.2656   -2.3916 O.3     1  UNL1       -0.4371
     27 O          23.1428   75.4396   -2.4624 O.2     1  UNL1       -0.5170
     28 O          22.1464   74.4978   -0.2303 O.3     1  UNL1       -0.2858
     29 O          21.1368   72.4520    0.3982 O.3     1  UNL1       -0.3226
     30 O          21.8854   74.2224    4.0840 O.3     1  UNL1       -0.3794
     31 O          20.8956   75.8140    1.8495 O.3     1  UNL1       -0.3775
     32 O          21.0301   71.7561    3.1808 O.3     1  UNL1       -0.3792
     33 C          22.0842   73.8791    2.7154 C.3     1  UNL1        0.1718
     34 C          20.9191   74.3906    1.8615 C.3     1  UNL1        0.1968
     35 C          22.1912   72.3563    2.5974 C.3     1  UNL1        0.1723
     36 C          21.0368   73.8798    0.4201 C.3     1  UNL1        0.2706
     37 C          22.2619   71.9594    1.1244 C.3     1  UNL1        0.1830
     38 H          22.6435   73.8776    4.5860 H       1  UNL1        0.2105
     39 H          20.1498   76.0904    1.2907 H       1  UNL1        0.2106
     40 H          20.2772   71.8928    2.5811 H       1  UNL1        0.2106
     41 O          23.2413   69.8956    1.6583 O.co2   1  UNL1       -0.5466
     42 O          21.4238   69.8573    0.2826 O.co2   1  UNL1       -0.5466
     43 C          22.2369   70.4735    0.9562 C.2     1  UNL1        0.0799
@<TRIPOS>UNITY_ATOM_ATTR
41 1
charge -1
@<TRIPOS>BOND
     1     1     4    1
     2     1    24    1
     3     1     2    1
     4     1     3    2
     5    25    28    1
     6    25    24    1
     7    25    26    1
     8    25    27    2
     9     6    11    1
    10     6    12    1
    11    29    36    1
    12    29    37    1
    13     7     9    1
    14     7    13    1
    15     8    10    1
    16     8    14    1
    17     4     5    1
    18    28    36    1
    19    30    33    1
    20    30    38    1
    21    31    34    1
    22    31    39    1
    23    32    35    1
    24    32    40    1
    25    41    43   ar
    26    15    19    2
    27    42    43   ar
    28    16    22    2
    29    17    12    1
    30    17    19   ar
    31    17    20   ar
    32    18    19   ar
    33    18    22   ar
    34    18    23    1
    35     9    10    1
    36     9    11    1
    37    10    12    1
    38    11     5    1
    39    33    34    1
    40    33    35    1
    41    34    36    1
    42    35    37    1
    43    37    43    1
    44    20    21   ar
    45    21    22   ar
@<TRIPOS>MOLECULE
UDP-glaA
 43 45 0 0 0
SMALL
GASTEIGER

@<TRIPOS>ATOM
      1 P          21.9643   73.7539   -6.1205 P.3     1  UNL1        0.2189
      2 O          22.3401   75.3061   -6.3789 O.3     1  UNL1       -0.4371
      3 O          22.8155   72.7647   -6.8614 O.2     1  UNL1       -0.5170
      4 O          20.3773   73.6816   -6.4234 O.3     1  UNL1       -0.3112
      5 C          19.8640   74.4109   -7.5251 C.3     1  UNL1        0.1811
      6 O          19.5841   72.0943   -8.0987 O.3     1  UNL1       -0.3308
      7 O          17.8899   73.0565  -10.3780 O.3     1  UNL1       -0.3794
      8 O          16.0308   72.2660   -8.5463 O.3     1  UNL1       -0.3779
      9 C          18.0097   73.5830   -9.0565 C.3     1  UNL1        0.1713
     10 C          17.2908   72.6894   -8.0680 C.3     1  UNL1        0.1895
     11 C          19.4619   73.4353   -8.6220 C.3     1  UNL1        0.1764
     12 C          18.2716   71.5401   -7.9098 C.3     1  UNL1        0.2383
     13 H          18.3971   73.6387  -10.9690 H       1  UNL1        0.2105
     14 H          15.5027   73.0631   -8.7250 H       1  UNL1        0.2106
     15 O          16.1140   69.9635   -6.9965 O.2     1  UNL1       -0.2464
     16 O          18.1141   69.2718   -2.9026 O.2     1  UNL1       -0.2670
     17 N          18.2025   70.9353   -6.6103 N.ar    1  UNL1       -0.2551
     18 N          17.1111   69.6205   -4.9583 N.ar    1  UNL1       -0.2743
     19 C          17.0738   70.1628   -6.2497 C.ar    1  UNL1        0.3323
     20 C          19.2458   71.1103   -5.7079 C.ar    1  UNL1        0.0869
     21 C          19.2667   70.5864   -4.4804 C.ar    1  UNL1        0.0795
     22 C          18.1259   69.7672   -4.0253 C.ar    1  UNL1        0.2626
     23 H          16.3099   69.0619   -4.6772 H       1  UNL1        0.1734
     24 O          22.0326   73.6279   -4.5097 O.3     1  UNL1       -0.2703
     25 P          23.1772   73.0247   -3.5410 P.3     1  UNL1        0.2208
     26 O          24.4983   73.8560   -3.9651 O.3     1  UNL1       -0.4371
     27 O          23.3305   71.5329   -3.6233 O.2     1  UNL1       -0.5170
     28 O          22.8019   73.5762   -2.0716 O.3     1  UNL1       -0.2858
     29 O          21.6443   71.7938   -1.0312 O.3     1  UNL1       -0.3226
     30 O          21.8613   74.5966    2.0309 O.3     1  UNL1       -0.3794
     31 O          21.2822   75.4310   -0.7030 O.3     1  UNL1       -0.3775
     32 O          21.0826   71.9585    1.7788 O.3     1  UNL1       -0.3792
     33 C          22.2610   73.8640    0.8760 C.3     1  UNL1        0.1718
     34 C          21.2599   74.0766   -0.2647 C.3     1  UNL1        0.1968
     35 C          22.3385   72.3775    1.2347 C.3     1  UNL1        0.1723
     36 C          21.5859   73.1610   -1.4512 C.3     1  UNL1        0.2706
     37 C          22.6264   71.5604   -0.0229 C.3     1  UNL1        0.1830
     38 H          22.5207   74.4309    2.7261 H       1  UNL1        0.2105
     39 H          20.6417   75.5148   -1.4294 H       1  UNL1        0.2106
     40 H          20.4373   71.8966    1.0542 H       1  UNL1        0.2106
     41 O          23.7913   69.5247    0.0269 O.co2   1  UNL1       -0.5466
     42 O          21.5969   69.4804    0.6430 O.co2   1  UNL1       -0.5466
     43 C          22.5825   70.0918    0.2568 C.2     1  UNL1        0.0799
@<TRIPOS>UNITY_ATOM_ATTR
41 1
charge -1
@<TRIPOS>BOND
     1     1     4    1
     2     1    24    1
     3     1     2    1
     4     1     3    2
     5    25    28    1
     6    25    24    1
     7    25    26    1
     8    25    27    2
     9     6    11    1
    10     6    12    1
    11    29    36    1
    12    29    37    1
    13     7     9    1
    14     7    13    1
    15     8    10    1
    16     8    14    1
    17     4     5    1
    18    28    36    1
    19    30    33    1
    20    30    38    1
    21    31    34    1
    22    31    39    1
    23    32    35    1
    24    32    40    1
    25    41    43   ar
    26    15    19    2
    27    42    43   ar
    28    16    22    2
    29    17    12    1
    30    17    19   ar
    31    17    20   ar
    32    18    19   ar
    33    18    22   ar
    34    18    23    1
    35     9    10    1
    36     9    11    1
    37    10    12    1
    38    11     5    1
    39    33    34    1
    40    33    35    1
    41    34    36    1
    42    35    37    1
    43    37    43    1
    44    20    21   ar
    45    21    22   ar
@<TRIPOS>MOLECULE
UDP-glaA
 43 45 0 0 0
SMALL
GASTEIGER

@<TRIPOS>ATOM
      1 P          22.9902   71.6705   -2.7455 P.3     1  UNL1        0.2189
      2 O          23.8168   72.9713   -3.2376 O.3     1  UNL1       -0.4371
      3 O          23.5210   70.3578   -3.2428 O.2     1  UNL1       -0.5170
      4 O          21.4598   72.0069   -3.1456 O.3     1  UNL1       -0.3112
      5 C          20.6083   70.9389   -3.5247 C.3     1  UNL1        0.1811
      6 O          18.7472   71.9618   -4.6490 O.3     1  UNL1       -0.3308
      7 O          17.0337   70.7778   -2.4918 O.3     1  UNL1       -0.3794
      8 O          16.6459   69.0576   -4.5718 O.3     1  UNL1       -0.3779
      9 C          18.1970   70.2385   -3.1192 C.3     1  UNL1        0.1713
     10 C          17.8672   69.7656   -4.5192 C.3     1  UNL1        0.1895
     11 C          19.1600   71.3871   -3.3895 C.3     1  UNL1        0.1764
     12 C          17.8177   71.0733   -5.2909 C.3     1  UNL1        0.2383
     13 H          17.3014   71.1024   -1.6152 H       1  UNL1        0.2105
     14 H          16.7219   68.2977   -3.9693 H       1  UNL1        0.2106
     15 O          16.0397   70.3557   -7.3643 O.2     1  UNL1       -0.2464
     16 O          19.3877   70.4868  -10.5286 O.2     1  UNL1       -0.2670
     17 N          18.1975   70.9135   -6.6655 N.ar    1  UNL1       -0.2551
     18 N          17.7082   70.4210   -8.9385 N.ar    1  UNL1       -0.2743
     19 C          17.2276   70.5500   -7.6288 C.ar    1  UNL1        0.3323
     20 C          19.5190   71.1162   -7.0475 C.ar    1  UNL1        0.0869
     21 C          19.9614   70.9898   -8.3006 C.ar    1  UNL1        0.0795
     22 C          19.0127   70.6119   -9.3668 C.ar    1  UNL1        0.2626
     23 H          17.0286   70.1597   -9.6478 H       1  UNL1        0.1734
     24 O          22.9883   71.8299   -1.1362 O.3     1  UNL1       -0.2703
     25 P          22.4646   70.8373    0.0270 P.3     1  UNL1        0.2208
     26 O          23.6624   69.7587    0.1614 O.3     1  UNL1       -0.4371
     27 O          21.1147   70.2348   -0.2390 O.2     1  UNL1       -0.5170
     28 O          22.5492   71.7123    1.3801 O.3     1  UNL1       -0.2858
     29 O          21.5340   72.5855    3.3311 O.3     1  UNL1       -0.3226
     30 O          21.3272   75.8148    0.7218 O.3     1  UNL1       -0.3794
     31 O          20.7887   73.1089   -0.2239 O.3     1  UNL1       -0.3775
     32 O          20.8335   75.3681    3.4026 O.3     1  UNL1       -0.3792
     33 C          21.8507   74.6405    1.3360 C.3     1  UNL1        0.1718
     34 C          20.8851   73.4649    1.1511 C.3     1  UNL1        0.1968
     35 C          22.0631   74.9143    2.8274 C.3     1  UNL1        0.1723
     36 C          21.3553   72.2446    1.9524 C.3     1  UNL1        0.2706
     37 C          22.4887   73.6270    3.5300 C.3     1  UNL1        0.1830
     38 H          21.9683   76.5317    0.8655 H       1  UNL1        0.2105
     39 H          20.1762   72.3571   -0.2901 H       1  UNL1        0.2106
     40 H          20.2308   74.6093    3.4816 H       1  UNL1        0.2106
     41 O          22.3291   72.6546    5.6591 O.co2   1  UNL1       -0.5466
     42 O          22.8528   74.8714    5.5669 O.co2   1  UNL1       -0.5466
     43 C          22.5823   73.8169    5.0106 C.2     1  UNL1        0.0799
@<TRIPOS>UNITY_ATOM_ATTR
41 1
charge -1
@<TRIPOS>BOND
     1     1     4    1
     2     1    24    1
     3     1     2    1
     4     1     3    2
     5    25    28    1
     6    25    24    1
     7    25    26    1
     8    25    27    2
     9     6    11    1
    10     6    12    1
    11    29    36    1
    12    29    37    1
    13     7     9    1
    14     7    13    1
    15     8    10    1
    16     8    14    1
    17     4     5    1
    18    28    36    1
    19    30    33    1
    20    30    38    1
    21    31    34    1
    22    31    39    1
    23    32    35    1
    24    32    40    1
    25    41    43   ar
    26    15    19    2
    27    42    43   ar
    28    16    22    2
    29    17    12    1
    30    17    19   ar
    31    17    20   ar
    32    18    19   ar
    33    18    22   ar
    34    18    23    1
    35     9    10    1
    36     9    11    1
    37    10    12    1
    38    11     5    1
    39    33    34    1
    40    33    35    1
    41    34    36    1
    42    35    37    1
    43    37    43    1
    44    20    21   ar
    45    21    22   ar
@<TRIPOS>MOLECULE
UDP-glaA
 43 45 0 0 0
SMALL
GASTEIGER

@<TRIPOS>ATOM
      1 P          22.8598   71.8148   -2.4517 P.3     1  UNL1        0.2189
      2 O          23.6623   73.2140   -2.5767 O.3     1  UNL1       -0.4371
      3 O          23.4481   70.6758   -3.2319 O.2     1  UNL1       -0.5170
      4 O          21.3346   72.2060   -2.8209 O.3     1  UNL1       -0.3112
      5 C          20.5733   71.3011   -3.6024 C.3     1  UNL1        0.1811
      6 O          18.6403   72.1454   -4.7535 O.3     1  UNL1       -0.3308
      7 O          17.0238   70.9389   -2.5348 O.3     1  UNL1       -0.3794
      8 O          16.7445   69.1098   -4.5378 O.3     1  UNL1       -0.3779
      9 C          18.2182   70.4547   -3.1485 C.3     1  UNL1        0.1713
     10 C          17.9144   69.9015   -4.5248 C.3     1  UNL1        0.1895
     11 C          19.0983   71.6542   -3.4744 C.3     1  UNL1        0.1764
     12 C          17.7710   71.1689   -5.3501 C.3     1  UNL1        0.2383
     13 H          17.2730   71.3180   -1.6747 H       1  UNL1        0.2105
     14 H          16.8759   68.3830   -3.9048 H       1  UNL1        0.2106
     15 O          16.0048   70.3688   -7.4034 O.2     1  UNL1       -0.2464
     16 O          19.3519   70.4640  -10.5699 O.2     1  UNL1       -0.2670
     17 N          18.1537   70.9775   -6.7198 N.ar    1  UNL1       -0.2551
     18 N          17.6728   70.4162   -8.9787 N.ar    1  UNL1       -0.2743
     19 C          17.1898   70.5735   -7.6729 C.ar    1  UNL1        0.3323
     20 C          19.4722   71.1895   -7.1072 C.ar    1  UNL1        0.0869
     21 C          19.9170   71.0358   -8.3563 C.ar    1  UNL1        0.0795
     22 C          18.9746   70.6149   -9.4119 C.ar    1  UNL1        0.2626
     23 H          16.9975   70.1257   -9.6806 H       1  UNL1        0.1734
     24 O          22.7965   71.5749   -0.8537 O.3     1  UNL1       -0.2703
     25 P          22.0066   70.4696    0.0221 P.3     1  UNL1        0.2208
     26 O          23.1923   69.5204    0.5783 O.3     1  UNL1       -0.4371
     27 O          20.9308   69.7408   -0.7312 O.2     1  UNL1       -0.5170
     28 O          21.4840   71.2734    1.3200 O.3     1  UNL1       -0.2858
     29 O          21.9245   73.5770    1.0062 O.3     1  UNL1       -0.3226
     30 O          20.2248   73.5241    4.7993 O.3     1  UNL1       -0.3794
     31 O          22.1259   71.4623    3.9987 O.3     1  UNL1       -0.3775
     32 O          20.9827   75.4484    2.9682 O.3     1  UNL1       -0.3792
     33 C          20.4563   73.1400    3.4468 C.3     1  UNL1        0.1718
     34 C          21.9012   72.6626    3.2666 C.3     1  UNL1        0.1968
     35 C          20.1842   74.3413    2.5373 C.3     1  UNL1        0.1723
     36 C          22.2094   72.4106    1.7854 C.3     1  UNL1        0.2706
     37 C          20.5628   73.9926    1.0995 C.3     1  UNL1        0.1830
     38 H          19.3012   73.8208    4.8660 H       1  UNL1        0.2105
     39 H          23.0478   71.1943    3.8469 H       1  UNL1        0.2106
     40 H          21.9056   75.2819    2.7119 H       1  UNL1        0.2106
     41 O          21.1774   75.0086   -0.9238 O.co2   1  UNL1       -0.5466
     42 O          19.7558   76.1675    0.4300 O.co2   1  UNL1       -0.5466
     43 C          20.4357   75.1786    0.1972 C.2     1  UNL1        0.0799
@<TRIPOS>UNITY_ATOM_ATTR
41 1
charge -1
@<TRIPOS>BOND
     1     1     4    1
     2     1    24    1
     3     1     2    1
     4     1     3    2
     5    25    28    1
     6    25    24    1
     7    25    26    1
     8    25    27    2
     9     6    11    1
    10     6    12    1
    11    29    36    1
    12    29    37    1
    13     7     9    1
    14     7    13    1
    15     8    10    1
    16     8    14    1
    17     4     5    1
    18    28    36    1
    19    30    33    1
    20    30    38    1
    21    31    34    1
    22    31    39    1
    23    32    35    1
    24    32    40    1
    25    41    43   ar
    26    15    19    2
    27    42    43   ar
    28    16    22    2
    29    17    12    1
    30    17    19   ar
    31    17    20   ar
    32    18    19   ar
    33    18    22   ar
    34    18    23    1
    35     9    10    1
    36     9    11    1
    37    10    12    1
    38    11     5    1
    39    33    34    1
    40    33    35    1
    41    34    36    1
    42    35    37    1
    43    37    43    1
    44    20    21   ar
    45    21    22   ar
@<TRIPOS>MOLECULE
UDP-glaA
 43 45 0 0 0
SMALL
GASTEIGER

@<TRIPOS>ATOM
      1 P          21.5907   70.3966   -1.1377 P.3     1  UNL1        0.2189
      2 O          23.1382   70.7289   -1.4725 O.3     1  UNL1       -0.4371
      3 O          21.3529   69.7796    0.2095 O.2     1  UNL1       -0.5170
      4 O          21.0958   69.5252   -2.4071 O.3     1  UNL1       -0.3112
      5 C          20.7340   70.2061   -3.5965 C.3     1  UNL1        0.1811
      6 O          19.0489   71.5933   -4.6017 O.3     1  UNL1       -0.3308
      7 O          17.1952   70.5507   -2.4880 O.3     1  UNL1       -0.3794
      8 O          16.5043   69.0682   -4.6699 O.3     1  UNL1       -0.3779
      9 C          18.2466   69.8769   -3.1795 C.3     1  UNL1        0.1713
     10 C          17.8251   69.5643   -4.5998 C.3     1  UNL1        0.1895
     11 C          19.3799   70.8713   -3.3950 C.3     1  UNL1        0.1764
     12 C          17.9787   70.9145   -5.2792 C.3     1  UNL1        0.2383
     13 H          17.5240   70.7647   -1.5983 H       1  UNL1        0.2105
     14 H          16.4639   68.2651   -4.1227 H       1  UNL1        0.2106
     15 O          16.0941   70.4568   -7.3321 O.2     1  UNL1       -0.2464
     16 O          19.3603   70.4665  -10.5832 O.2     1  UNL1       -0.2670
     17 N          18.3086   70.7937   -6.6705 N.ar    1  UNL1       -0.2551
     18 N          17.7219   70.4614   -8.9496 N.ar    1  UNL1       -0.2743
     19 C          17.2872   70.5633   -7.6215 C.ar    1  UNL1        0.3323
     20 C          19.6326   70.9034   -7.0809 C.ar    1  UNL1        0.0869
     21 C          20.0309   70.8044   -8.3511 C.ar    1  UNL1        0.0795
     22 C          19.0268   70.5631   -9.4062 C.ar    1  UNL1        0.2626
     23 H          17.0047   70.2952   -9.6505 H       1  UNL1        0.1734
     24 O          20.8569   71.8195   -1.3658 O.3     1  UNL1       -0.2703
     25 P          21.1204   73.2674   -0.6975 P.3     1  UNL1        0.2208
     26 O          19.6717   73.9824   -0.7781 O.3     1  UNL1       -0.4371
     27 O          22.2332   74.0476   -1.3367 O.2     1  UNL1       -0.5170
     28 O          21.3374   72.9602    0.8717 O.3     1  UNL1       -0.2858
     29 O          22.5355   74.7700    1.8143 O.3     1  UNL1       -0.3226
     30 O          22.0547   72.2472    5.0829 O.3     1  UNL1       -0.3794
     31 O          22.7067   71.1608    2.4560 O.3     1  UNL1       -0.3775
     32 O          22.9704   74.8173    4.6510 O.3     1  UNL1       -0.3792
     33 C          21.7398   72.8973    3.8546 C.3     1  UNL1        0.1718
     34 C          22.7763   72.5448    2.7823 C.3     1  UNL1        0.1968
     35 C          21.7195   74.4107    4.0863 C.3     1  UNL1        0.1723
     36 C          22.5451   73.3711    1.5110 C.3     1  UNL1        0.2706
     37 C          21.5245   75.1312    2.7540 C.3     1  UNL1        0.1830
     38 H          21.3756   72.5003    5.7312 H       1  UNL1        0.2105
     39 H          23.3722   70.9876    1.7690 H       1  UNL1        0.2106
     40 H          23.6477   74.7889    3.9542 H       1  UNL1        0.2106
     41 O          22.8892   77.0370    2.6565 O.co2   1  UNL1       -0.5466
     42 O          20.7054   77.3521    3.2299 O.co2   1  UNL1       -0.5466
     43 C          21.6278   76.6147    2.9140 C.2     1  UNL1        0.0799
@<TRIPOS>UNITY_ATOM_ATTR
41 1
charge -1
@<TRIPOS>BOND
     1     1     4    1
     2     1    24    1
     3     1     2    1
     4     1     3    2
     5    25    28    1
     6    25    24    1
     7    25    26    1
     8    25    27    2
     9     6    11    1
    10     6    12    1
    11    29    36    1
    12    29    37    1
    13     7     9    1
    14     7    13    1
    15     8    10    1
    16     8    14    1
    17     4     5    1
    18    28    36    1
    19    30    33    1
    20    30    38    1
    21    31    34    1
    22    31    39    1
    23    32    35    1
    24    32    40    1
    25    41    43   ar
    26    15    19    2
    27    42    43   ar
    28    16    22    2
    29    17    12    1
    30    17    19   ar
    31    17    20   ar
    32    18    19   ar
    33    18    22   ar
    34    18    23    1
    35     9    10    1
    36     9    11    1
    37    10    12    1
    38    11     5    1
    39    33    34    1
    40    33    35    1
    41    34    36    1
    42    35    37    1
    43    37    43    1
    44    20    21   ar
    45    21    22   ar
@<TRIPOS>MOLECULE
UDP-glaA
 43 45 0 0 0
SMALL
GASTEIGER

@<TRIPOS>ATOM
      1 P          22.9507   71.9834   -2.9857 P.3     1  UNL1        0.2189
      2 O          23.6276   70.5273   -3.1835 O.3     1  UNL1       -0.4371
      3 O          22.8186   72.4316   -1.5596 O.2     1  UNL1       -0.5170
      4 O          21.5705   71.8884   -3.8233 O.3     1  UNL1       -0.3112
      5 C          20.7101   70.7866   -3.5888 C.3     1  UNL1        0.1811
      6 O          18.8750   71.8986   -4.6706 O.3     1  UNL1       -0.3308
      7 O          17.1514   70.7720   -2.4908 O.3     1  UNL1       -0.3794
      8 O          16.6512   69.0876   -4.5761 O.3     1  UNL1       -0.3779
      9 C          18.2785   70.1881   -3.1438 C.3     1  UNL1        0.1713
     10 C          17.9028   69.7415   -4.5410 C.3     1  UNL1        0.1895
     11 C          19.2854   71.2960   -3.4233 C.3     1  UNL1        0.1764
     12 C          17.8962   71.0566   -5.3017 C.3     1  UNL1        0.2383
     13 H          17.4489   71.0774   -1.6169 H       1  UNL1        0.2105
     14 H          16.7051   68.3201   -3.9809 H       1  UNL1        0.2106
     15 O          16.0495   70.4445   -7.3487 O.2     1  UNL1       -0.2464
     16 O          19.3434   70.4456  -10.5719 O.2     1  UNL1       -0.2670
     17 N          18.2435   70.8919   -6.6843 N.ar    1  UNL1       -0.2551
     18 N          17.6910   70.4450   -8.9523 N.ar    1  UNL1       -0.2743
     19 C          17.2404   70.5843   -7.6330 C.ar    1  UNL1        0.3323
     20 C          19.5663   71.0349   -7.0885 C.ar    1  UNL1        0.0869
     21 C          19.9799   70.8994   -8.3504 C.ar    1  UNL1        0.0795
     22 C          18.9955   70.5774   -9.4025 C.ar    1  UNL1        0.2626
     23 H          16.9873   70.2233   -9.6514 H       1  UNL1        0.1734
     24 O          23.8712   72.9394   -3.9097 O.3     1  UNL1       -0.2703
     25 P          24.0341   74.5473   -3.9393 P.3     1  UNL1        0.2208
     26 O          25.6371   74.7569   -3.9925 O.3     1  UNL1       -0.4371
     27 O          23.3535   75.2564   -2.8037 O.2     1  UNL1       -0.5170
     28 O          23.5164   74.9839   -5.4039 O.3     1  UNL1       -0.2858
     29 O          21.5210   76.0519   -6.0946 O.3     1  UNL1       -0.3226
     30 O          22.2988   73.5091   -9.2897 O.3     1  UNL1       -0.3794
     31 O          22.7005   72.6063   -6.5457 O.3     1  UNL1       -0.3775
     32 O          20.5298   75.5589   -8.7429 O.3     1  UNL1       -0.3792
     33 C          22.5687   74.3839   -8.1978 C.3     1  UNL1        0.1718
     34 C          22.0098   73.8011   -6.8954 C.3     1  UNL1        0.1968
     35 C          21.9250   75.7438   -8.4819 C.3     1  UNL1        0.1723
     36 C          22.1425   74.8100   -5.7478 C.3     1  UNL1        0.2706
     37 C          22.0809   76.6501   -7.2627 C.3     1  UNL1        0.1830
     38 H          22.6672   73.9182  -10.0913 H       1  UNL1        0.2105
     39 H          22.3198   72.2803   -5.7128 H       1  UNL1        0.2106
     40 H          20.0818   75.3620   -7.9028 H       1  UNL1        0.2106
     41 O          21.1595   78.2011   -8.7624 O.co2   1  UNL1       -0.5466
     42 O          20.9808   78.6740   -6.5394 O.co2   1  UNL1       -0.5466
     43 C          21.3541   77.9443   -7.4464 C.2     1  UNL1        0.0799
@<TRIPOS>UNITY_ATOM_ATTR
41 1
charge -1
@<TRIPOS>BOND
     1     1     4    1
     2     1    24    1
     3     1     2    1
     4     1     3    2
     5    25    28    1
     6    25    24    1
     7    25    26    1
     8    25    27    2
     9     6    11    1
    10     6    12    1
    11    29    36    1
    12    29    37    1
    13     7     9    1
    14     7    13    1
    15     8    10    1
    16     8    14    1
    17     4     5    1
    18    28    36    1
    19    30    33    1
    20    30    38    1
    21    31    34    1
    22    31    39    1
    23    32    35    1
    24    32    40    1
    25    41    43   ar
    26    15    19    2
    27    42    43   ar
    28    16    22    2
    29    17    12    1
    30    17    19   ar
    31    17    20   ar
    32    18    19   ar
    33    18    22   ar
    34    18    23    1
    35     9    10    1
    36     9    11    1
    37    10    12    1
    38    11     5    1
    39    33    34    1
    40    33    35    1
    41    34    36    1
    42    35    37    1
    43    37    43    1
    44    20    21   ar
    45    21    22   ar
@<TRIPOS>MOLECULE
UDP-glaA
 43 45 0 0 0
SMALL
GASTEIGER

@<TRIPOS>ATOM
      1 P          21.5524   73.0369   -6.0751 P.3     1  UNL1        0.2189
      2 O          21.3588   74.5939   -5.6808 O.3     1  UNL1       -0.4371
      3 O          22.7161   72.7528   -6.9790 O.2     1  UNL1       -0.5170
      4 O          20.1018   72.5938   -6.6363 O.3     1  UNL1       -0.3112
      5 C          19.7090   71.2384   -6.5029 C.3     1  UNL1        0.1811
      6 O          17.5234   70.9347   -7.4545 O.3     1  UNL1       -0.3308
      7 O          18.8842   70.9858  -10.1260 O.3     1  UNL1       -0.3794
      8 O          17.8554   73.5038   -9.9335 O.3     1  UNL1       -0.3779
      9 C          19.1869   71.7266   -8.9439 C.3     1  UNL1        0.1713
     10 C          18.1637   72.8230   -8.7348 C.3     1  UNL1        0.1895
     11 C          18.9341   70.8219   -7.7450 C.3     1  UNL1        0.1764
     12 C          16.9795   72.0484   -8.1819 C.3     1  UNL1        0.2383
     13 H          19.5412   70.2725  -10.1972 H       1  UNL1        0.2105
     14 H          18.6840   73.8785  -10.2788 H       1  UNL1        0.2106
     15 O          14.9743   73.8502   -9.0233 O.2     1  UNL1       -0.2464
     16 O          13.9544   75.0264   -4.6857 O.2     1  UNL1       -0.2670
     17 N          16.1744   72.8378   -7.2941 N.ar    1  UNL1       -0.2551
     18 N          14.4681   74.4351   -6.8628 N.ar    1  UNL1       -0.2743
     19 C          15.1949   73.7131   -7.8187 C.ar    1  UNL1        0.3323
     20 C          16.3594   72.7406   -5.9195 C.ar    1  UNL1        0.0869
     21 C          15.6580   73.4354   -5.0210 C.ar    1  UNL1        0.0795
     22 C          14.6162   74.3725   -5.4859 C.ar    1  UNL1        0.2626
     23 H          13.7588   75.0711   -7.2171 H       1  UNL1        0.1734
     24 O          21.6237   72.3046   -4.6350 O.3     1  UNL1       -0.2703
     25 P          22.8370   72.1630   -3.5765 P.3     1  UNL1        0.2208
     26 O          23.9966   73.0926   -4.2147 O.3     1  UNL1       -0.4371
     27 O          23.2565   70.7464   -3.3062 O.2     1  UNL1       -0.5170
     28 O          22.3378   72.9709   -2.2718 O.3     1  UNL1       -0.2858
     29 O          21.5081   71.2555   -0.8688 O.3     1  UNL1       -0.3226
     30 O          21.3018   74.5851    1.6112 O.3     1  UNL1       -0.3794
     31 O          20.5515   74.7830   -1.2002 O.3     1  UNL1       -0.3775
     32 O          20.9686   71.8568    1.8854 O.3     1  UNL1       -0.3792
     33 C          21.8004   73.7209    0.5939 C.3     1  UNL1        0.1718
     34 C          20.7611   73.5504   -0.5192 C.3     1  UNL1        0.1968
     35 C          22.1291   72.3613    1.2165 C.3     1  UNL1        0.1723
     36 C          21.2170   72.4911   -1.5304 C.3     1  UNL1        0.2706
     37 C          22.5301   71.3778    0.1191 C.3     1  UNL1        0.1830
     38 H          21.9897   74.6619    2.2941 H       1  UNL1        0.2105
     39 H          19.8953   74.6239   -1.8995 H       1  UNL1        0.2106
     40 H          20.3318   71.5563    1.2150 H       1  UNL1        0.2106
     41 O          23.3612   70.0516    1.8667 O.co2   1  UNL1       -0.5466
     42 O          22.3858   68.9676    0.1144 O.co2   1  UNL1       -0.5466
     43 C          22.7351   70.0010    0.6663 C.2     1  UNL1        0.0799
@<TRIPOS>UNITY_ATOM_ATTR
41 1
charge -1
@<TRIPOS>BOND
     1     1     4    1
     2     1    24    1
     3     1     2    1
     4     1     3    2
     5    25    28    1
     6    25    24    1
     7    25    26    1
     8    25    27    2
     9     6    11    1
    10     6    12    1
    11    29    36    1
    12    29    37    1
    13     7     9    1
    14     7    13    1
    15     8    10    1
    16     8    14    1
    17     4     5    1
    18    28    36    1
    19    30    33    1
    20    30    38    1
    21    31    34    1
    22    31    39    1
    23    32    35    1
    24    32    40    1
    25    41    43   ar
    26    15    19    2
    27    42    43   ar
    28    16    22    2
    29    17    12    1
    30    17    19   ar
    31    17    20   ar
    32    18    19   ar
    33    18    22   ar
    34    18    23    1
    35     9    10    1
    36     9    11    1
    37    10    12    1
    38    11     5    1
    39    33    34    1
    40    33    35    1
    41    34    36    1
    42    35    37    1
    43    37    43    1
    44    20    21   ar
    45    21    22   ar
@<TRIPOS>MOLECULE
UDP-glaA
 43 45 0 0 0
SMALL
GASTEIGER

@<TRIPOS>ATOM
      1 P          22.4737   72.6172   -2.0583 P.3     1  UNL1        0.2189
      2 O          21.7956   74.0841   -2.1342 O.3     1  UNL1       -0.4371
      3 O          23.6425   72.4119   -2.9769 O.2     1  UNL1       -0.5170
      4 O          21.2313   71.6024   -2.2640 O.3     1  UNL1       -0.3112
      5 C          20.6286   71.5202   -3.5443 C.3     1  UNL1        0.1811
      6 O          18.6800   72.3072   -4.7096 O.3     1  UNL1       -0.3308
      7 O          17.0887   71.1453   -2.4493 O.3     1  UNL1       -0.3794
      8 O          16.8231   69.2559   -4.3975 O.3     1  UNL1       -0.3779
      9 C          18.2862   70.6584   -3.0547 C.3     1  UNL1        0.1713
     10 C          17.9831   70.0620   -4.4130 C.3     1  UNL1        0.1895
     11 C          19.1499   71.8587   -3.4192 C.3     1  UNL1        0.1764
     12 C          17.8202   71.3032   -5.2736 C.3     1  UNL1        0.2383
     13 H          17.3371   71.5521   -1.6017 H       1  UNL1        0.2105
     14 H          16.9663   68.5494   -3.7444 H       1  UNL1        0.2106
     15 O          16.0657   70.3781   -7.2840 O.2     1  UNL1       -0.2464
     16 O          19.3855   70.4699  -10.4792 O.2     1  UNL1       -0.2670
     17 N          18.1990   71.0771   -6.6391 N.ar    1  UNL1       -0.2551
     18 N          17.7202   70.4239   -8.8736 N.ar    1  UNL1       -0.2743
     19 C          17.2417   70.6106   -7.5700 C.ar    1  UNL1        0.3323
     20 C          19.5074   71.3171   -7.0443 C.ar    1  UNL1        0.0869
     21 C          19.9480   71.1346   -8.2910 C.ar    1  UNL1        0.0795
     22 C          19.0119   70.6485   -9.3240 C.ar    1  UNL1        0.2626
     23 H          17.0494   70.0884   -9.5597 H       1  UNL1        0.1734
     24 O          22.8165   72.4575   -0.4860 O.3     1  UNL1       -0.2703
     25 P          21.8574   72.4704    0.8150 P.3     1  UNL1        0.2208
     26 O          22.0525   70.9891    1.4346 O.3     1  UNL1       -0.4371
     27 O          20.4304   72.8379    0.5246 O.2     1  UNL1       -0.5170
     28 O          22.5989   73.4512    1.8600 O.3     1  UNL1       -0.2858
     29 O          24.1013   73.6263    3.6798 O.3     1  UNL1       -0.3226
     30 O          20.4982   74.7644    5.4124 O.3     1  UNL1       -0.3794
     31 O          20.5997   72.5382    3.5310 O.3     1  UNL1       -0.3775
     32 O          23.1590   74.7357    6.1536 O.3     1  UNL1       -0.3792
     33 C          21.4960   74.6211    4.4053 C.3     1  UNL1        0.1718
     34 C          21.7517   73.1386    4.1134 C.3     1  UNL1        0.1968
     35 C          22.7861   75.2901    4.8877 C.3     1  UNL1        0.1723
     36 C          22.9406   72.9701    3.1592 C.3     1  UNL1        0.2706
     37 C          23.9075   75.0248    3.8856 C.3     1  UNL1        0.1830
     38 H          20.3711   75.7161    5.5661 H       1  UNL1        0.2105
     39 H          20.8116   71.6059    3.3557 H       1  UNL1        0.2106
     40 H          23.5088   73.8404    6.0078 H       1  UNL1        0.2106
     41 O          26.1622   75.4663    3.4112 O.co2   1  UNL1       -0.5466
     42 O          25.4174   75.9972    5.4994 O.co2   1  UNL1       -0.5466
     43 C          25.2181   75.5497    4.3793 C.2     1  UNL1        0.0799
@<TRIPOS>UNITY_ATOM_ATTR
41 1
charge -1
@<TRIPOS>BOND
     1     1     4    1
     2     1    24    1
     3     1     2    1
     4     1     3    2
     5    25    28    1
     6    25    24    1
     7    25    26    1
     8    25    27    2
     9     6    11    1
    10     6    12    1
    11    29    36    1
    12    29    37    1
    13     7     9    1
    14     7    13    1
    15     8    10    1
    16     8    14    1
    17     4     5    1
    18    28    36    1
    19    30    33    1
    20    30    38    1
    21    31    34    1
    22    31    39    1
    23    32    35    1
    24    32    40    1
    25    41    43   ar
    26    15    19    2
    27    42    43   ar
    28    16    22    2
    29    17    12    1
    30    17    19   ar
    31    17    20   ar
    32    18    19   ar
    33    18    22   ar
    34    18    23    1
    35     9    10    1
    36     9    11    1
    37    10    12    1
    38    11     5    1
    39    33    34    1
    40    33    35    1
    41    34    36    1
    42    35    37    1
    43    37    43    1
    44    20    21   ar
    45    21    22   ar
@<TRIPOS>MOLECULE
UDP-glaA
 43 45 0 0 0
SMALL
GASTEIGER

@<TRIPOS>ATOM
      1 P          22.0177   70.5708   -0.2887 P.3     1  UNL1        0.2189
      2 O          20.8571   69.6401   -0.9245 O.3     1  UNL1       -0.4371
      3 O          23.2840   69.8485    0.0675 O.2     1  UNL1       -0.5170
      4 O          21.2793   71.3372    0.9290 O.3     1  UNL1       -0.3112
      5 C          22.0352   72.2387    1.7197 C.3     1  UNL1        0.1811
      6 O          22.4436   72.6813    4.0460 O.3     1  UNL1       -0.3308
      7 O          19.4847   73.0994    4.2935 O.3     1  UNL1       -0.3794
      8 O          20.4408   75.6514    4.1993 O.3     1  UNL1       -0.3779
      9 C          20.3564   73.4309    3.2128 C.3     1  UNL1        0.1713
     10 C          21.1972   74.6390    3.5680 C.3     1  UNL1        0.1895
     11 C          21.4063   72.3331    3.1026 C.3     1  UNL1        0.1764
     12 C          22.2459   74.0349    4.4863 C.3     1  UNL1        0.2383
     13 H          18.9959   72.2990    4.0366 H       1  UNL1        0.2105
     14 H          19.7266   75.9061    3.5901 H       1  UNL1        0.2106
     15 O          23.4036   75.4311    6.6510 O.2     1  UNL1       -0.2464
     16 O          27.0524   76.6831    4.1297 O.2     1  UNL1       -0.2670
     17 N          23.4975   74.7340    4.4238 N.ar    1  UNL1       -0.2551
     18 N          25.2195   76.0540    5.3939 N.ar    1  UNL1       -0.2743
     19 C          23.9903   75.4044    5.5677 C.ar    1  UNL1        0.3323
     20 C          24.2235   74.7511    3.2379 C.ar    1  UNL1        0.0869
     21 C          25.3942   75.3746    3.0884 C.ar    1  UNL1        0.0795
     22 C          25.9781   76.0993    4.2345 C.ar    1  UNL1        0.2626
     23 H          25.5928   76.5432    6.2030 H       1  UNL1        0.1734
     24 O          22.1955   71.7356   -1.3963 O.3     1  UNL1       -0.2703
     25 P          22.4064   71.6537   -2.9967 P.3     1  UNL1        0.2208
     26 O          23.4546   70.4342   -3.1708 O.3     1  UNL1       -0.4371
     27 O          22.8463   72.9441   -3.6269 O.2     1  UNL1       -0.5170
     28 O          21.0104   71.0765   -3.5641 O.3     1  UNL1       -0.2858
     29 O          19.9813   72.1863   -5.3831 O.3     1  UNL1       -0.3226
     30 O          16.8777   69.8340   -3.9293 O.3     1  UNL1       -0.3794
     31 O          18.6774   71.2120   -2.0941 O.3     1  UNL1       -0.3775
     32 O          17.3166   71.4332   -6.1384 O.3     1  UNL1       -0.3792
     33 C          18.2124   70.2091   -4.2585 C.3     1  UNL1        0.1718
     34 C          18.6166   71.4732   -3.4922 C.3     1  UNL1        0.1968
     35 C          18.2986   70.4605   -5.7664 C.3     1  UNL1        0.1723
     36 C          19.9836   71.9820   -3.9664 C.3     1  UNL1        0.2706
     37 C          19.6830   71.0005   -6.1183 C.3     1  UNL1        0.1830
     38 H          16.6643   69.0330   -4.4378 H       1  UNL1        0.2105
     39 H          18.9454   72.0357   -1.6531 H       1  UNL1        0.2106
     40 H          17.6146   72.3061   -5.8313 H       1  UNL1        0.2106
     41 O          19.2709   72.6266   -7.7584 O.co2   1  UNL1       -0.5466
     42 O          20.2313   70.6772   -8.4474 O.co2   1  UNL1       -0.5466
     43 C          19.7707   71.3827   -7.5616 C.2     1  UNL1        0.0799
@<TRIPOS>UNITY_ATOM_ATTR
41 1
charge -1
@<TRIPOS>BOND
     1     1     4    1
     2     1    24    1
     3     1     2    1
     4     1     3    2
     5    25    28    1
     6    25    24    1
     7    25    26    1
     8    25    27    2
     9     6    11    1
    10     6    12    1
    11    29    36    1
    12    29    37    1
    13     7     9    1
    14     7    13    1
    15     8    10    1
    16     8    14    1
    17     4     5    1
    18    28    36    1
    19    30    33    1
    20    30    38    1
    21    31    34    1
    22    31    39    1
    23    32    35    1
    24    32    40    1
    25    41    43   ar
    26    15    19    2
    27    42    43   ar
    28    16    22    2
    29    17    12    1
    30    17    19   ar
    31    17    20   ar
    32    18    19   ar
    33    18    22   ar
    34    18    23    1
    35     9    10    1
    36     9    11    1
    37    10    12    1
    38    11     5    1
    39    33    34    1
    40    33    35    1
    41    34    36    1
    42    35    37    1
    43    37    43    1
    44    20    21   ar
    45    21    22   ar
@<TRIPOS>MOLECULE
UDP-glaA
 43 45 0 0 0
SMALL
GASTEIGER

@<TRIPOS>ATOM
      1 P          22.3397   73.1671   -4.4084 P.3     1  UNL1        0.2189
      2 O          21.7436   74.2224   -3.3368 O.3     1  UNL1       -0.4371
      3 O          23.8368   73.0655   -4.4311 O.2     1  UNL1       -0.5170
      4 O          21.6429   73.5934   -5.8042 O.3     1  UNL1       -0.3112
      5 C          20.9380   74.8218   -5.8620 C.3     1  UNL1        0.1811
      6 O          19.9017   73.7225   -7.7307 O.3     1  UNL1       -0.3308
      7 O          19.0697   76.4566   -8.6382 O.3     1  UNL1       -0.3794
      8 O          16.7893   75.4875   -7.4996 O.3     1  UNL1       -0.3779
      9 C          19.1712   75.9370   -7.3125 C.3     1  UNL1        0.1713
     10 C          18.0250   74.9886   -7.0310 C.3     1  UNL1        0.1895
     11 C          20.3750   75.0053   -7.2642 C.3     1  UNL1        0.1764
     12 C          18.4651   73.7343   -7.7665 C.3     1  UNL1        0.2383
     13 H          19.8437   77.0263   -8.7863 H       1  UNL1        0.2105
     14 H          16.6338   76.3422   -7.0620 H       1  UNL1        0.2106
     15 O          15.9050   72.6364   -8.2314 O.2     1  UNL1       -0.2464
     16 O          16.6822   69.1317   -5.3416 O.2     1  UNL1       -0.2670
     17 N          17.9726   72.5358   -7.1496 N.ar    1  UNL1       -0.2551
     18 N          16.2935   70.8922   -6.7917 N.ar    1  UNL1       -0.2743
     19 C          16.6715   72.0697   -7.4504 C.ar    1  UNL1        0.3323
     20 C          18.7761   71.8352   -6.2569 C.ar    1  UNL1        0.0869
     21 C          18.4014   70.7138   -5.6373 C.ar    1  UNL1        0.0795
     22 C          17.0572   70.1605   -5.8956 C.ar    1  UNL1        0.2626
     23 H          15.3618   70.5389   -6.9923 H       1  UNL1        0.1734
     24 O          21.5772   71.7931   -4.0266 O.3     1  UNL1       -0.2703
     25 P          21.8923   70.6855   -2.8924 P.3     1  UNL1        0.2208
     26 O          23.4907   70.4714   -3.0167 O.3     1  UNL1       -0.4371
     27 O          21.0860   69.4249   -3.0216 O.2     1  UNL1       -0.5170
     28 O          21.6921   71.4644   -1.4934 O.3     1  UNL1       -0.2858
     29 O          23.3238   72.8445   -0.4773 O.3     1  UNL1       -0.3226
     30 O          21.0099   71.6904    2.7775 O.3     1  UNL1       -0.3794
     31 O          21.6895   69.7723    0.6882 O.3     1  UNL1       -0.3775
     32 O          23.0612   73.4800    2.3094 O.3     1  UNL1       -0.3792
     33 C          21.3178   72.0550    1.4349 C.3     1  UNL1        0.1718
     34 C          22.2997   71.0517    0.8204 C.3     1  UNL1        0.1968
     35 C          21.9313   73.4579    1.4310 C.3     1  UNL1        0.1723
     36 C          22.7696   71.5273   -0.5600 C.3     1  UNL1        0.2706
     37 C          22.3985   73.8098    0.0204 C.3     1  UNL1        0.1830
     38 H          20.3891   72.3526    3.1263 H       1  UNL1        0.2105
     39 H          22.3436   69.1752    0.2876 H       1  UNL1        0.2106
     40 H          23.7934   73.0033    1.8830 H       1  UNL1        0.2106
     41 O          22.3447   76.0834   -0.5556 O.co2   1  UNL1       -0.5466
     42 O          24.2556   75.3024    0.4117 O.co2   1  UNL1       -0.5466
     43 C          23.1215   75.1189   -0.0060 C.2     1  UNL1        0.0799
@<TRIPOS>UNITY_ATOM_ATTR
41 1
charge -1
@<TRIPOS>BOND
     1     1     4    1
     2     1    24    1
     3     1     2    1
     4     1     3    2
     5    25    28    1
     6    25    24    1
     7    25    26    1
     8    25    27    2
     9     6    11    1
    10     6    12    1
    11    29    36    1
    12    29    37    1
    13     7     9    1
    14     7    13    1
    15     8    10    1
    16     8    14    1
    17     4     5    1
    18    28    36    1
    19    30    33    1
    20    30    38    1
    21    31    34    1
    22    31    39    1
    23    32    35    1
    24    32    40    1
    25    41    43   ar
    26    15    19    2
    27    42    43   ar
    28    16    22    2
    29    17    12    1
    30    17    19   ar
    31    17    20   ar
    32    18    19   ar
    33    18    22   ar
    34    18    23    1
    35     9    10    1
    36     9    11    1
    37    10    12    1
    38    11     5    1
    39    33    34    1
    40    33    35    1
    41    34    36    1
    42    35    37    1
    43    37    43    1
    44    20    21   ar
    45    21    22   ar
@<TRIPOS>MOLECULE
UDP-glaA
 43 45 0 0 0
SMALL
GASTEIGER

@<TRIPOS>ATOM
      1 P          23.1963   73.6041   -3.4090 P.3     1  UNL1        0.2189
      2 O          23.6499   75.0551   -3.9624 O.3     1  UNL1       -0.4371
      3 O          23.8242   72.4349   -4.1096 O.2     1  UNL1       -0.5170
      4 O          21.5805   73.6607   -3.4459 O.3     1  UNL1       -0.3112
      5 C          20.9397   73.9168   -4.6840 C.3     1  UNL1        0.1811
      6 O          20.2423   72.1701   -6.1796 O.3     1  UNL1       -0.3308
      7 O          22.8927   72.5290   -7.5353 O.3     1  UNL1       -0.3794
      8 O          21.1919   73.8770   -9.1864 O.3     1  UNL1       -0.3779
      9 C          22.0432   73.5090   -6.9390 C.3     1  UNL1        0.1713
     10 C          20.8412   73.7694   -7.8222 C.3     1  UNL1        0.1895
     11 C          21.4031   72.8873   -5.7048 C.3     1  UNL1        0.1764
     12 C          19.9711   72.5572   -7.5368 C.3     1  UNL1        0.2383
     13 H          23.6260   72.3667   -6.9177 H       1  UNL1        0.2105
     14 H          21.8327   74.6043   -9.2674 H       1  UNL1        0.2106
     15 O          18.0414   70.7016   -8.4358 O.2     1  UNL1       -0.2464
     16 O          14.6277   73.7682   -8.0102 O.2     1  UNL1       -0.2670
     17 N          18.5713   72.8436   -7.6700 N.ar    1  UNL1       -0.2551
     18 N          16.3429   72.2300   -8.2238 N.ar    1  UNL1       -0.2743
     19 C          17.6859   71.8416   -8.1314 C.ar    1  UNL1        0.3323
     20 C          18.0881   74.1063   -7.3453 C.ar    1  UNL1        0.0869
     21 C          16.8047   74.4611   -7.4384 C.ar    1  UNL1        0.0795
     22 C          15.8150   73.4736   -7.9128 C.ar    1  UNL1        0.2626
     23 H          15.6883   71.5259   -8.5538 H       1  UNL1        0.1734
     24 O          23.5270   73.6994   -1.8289 O.3     1  UNL1       -0.2703
     25 P          23.8188   74.9763   -0.8818 P.3     1  UNL1        0.2208
     26 O          22.5822   75.9677   -1.2043 O.3     1  UNL1       -0.4371
     27 O          25.1745   75.5920   -1.0783 O.2     1  UNL1       -0.5170
     28 O          23.5378   74.4469    0.6164 O.3     1  UNL1       -0.2858
     29 O          21.8597   72.7787    0.5883 O.3     1  UNL1       -0.3226
     30 O          22.5833   73.2177    4.6580 O.3     1  UNL1       -0.3794
     31 O          22.4743   75.5515    2.9124 O.3     1  UNL1       -0.3775
     32 O          21.1398   71.4948    3.0524 O.3     1  UNL1       -0.3792
     33 C          22.8603   73.1775    3.2609 C.3     1  UNL1        0.1718
     34 C          22.0498   74.2492    2.5243 C.3     1  UNL1        0.1968
     35 C          22.5019   71.7888    2.7248 C.3     1  UNL1        0.1723
     36 C          22.2089   74.1026    1.0059 C.3     1  UNL1        0.2706
     37 C          22.6570   71.7694    1.2057 C.3     1  UNL1        0.1830
     38 H          23.1147   72.5228    5.0826 H       1  UNL1        0.2105
     39 H          21.9413   76.1943    2.4148 H       1  UNL1        0.2106
     40 H          20.5624   72.0234    2.4759 H       1  UNL1        0.2106
     41 O          23.2028   69.5680    0.6062 O.co2   1  UNL1       -0.5466
     42 O          21.0608   70.2476    0.2229 O.co2   1  UNL1       -0.5466
     43 C          22.1934   70.4715    0.6248 C.2     1  UNL1        0.0799
@<TRIPOS>UNITY_ATOM_ATTR
41 1
charge -1
@<TRIPOS>BOND
     1     1     4    1
     2     1    24    1
     3     1     2    1
     4     1     3    2
     5    25    28    1
     6    25    24    1
     7    25    26    1
     8    25    27    2
     9     6    11    1
    10     6    12    1
    11    29    36    1
    12    29    37    1
    13     7     9    1
    14     7    13    1
    15     8    10    1
    16     8    14    1
    17     4     5    1
    18    28    36    1
    19    30    33    1
    20    30    38    1
    21    31    34    1
    22    31    39    1
    23    32    35    1
    24    32    40    1
    25    41    43   ar
    26    15    19    2
    27    42    43   ar
    28    16    22    2
    29    17    12    1
    30    17    19   ar
    31    17    20   ar
    32    18    19   ar
    33    18    22   ar
    34    18    23    1
    35     9    10    1
    36     9    11    1
    37    10    12    1
    38    11     5    1
    39    33    34    1
    40    33    35    1
    41    34    36    1
    42    35    37    1
    43    37    43    1
    44    20    21   ar
    45    21    22   ar
@<TRIPOS>MOLECULE
UDP-glaA
 43 45 0 0 0
SMALL
GASTEIGER

@<TRIPOS>ATOM
      1 P          22.3100   74.2419   -6.5220 P.3     1  UNL1        0.2189
      2 O          23.3583   75.4726   -6.4592 O.3     1  UNL1       -0.4371
      3 O          22.7737   73.0553   -7.3152 O.2     1  UNL1       -0.5170
      4 O          20.9335   74.9276   -7.0226 O.3     1  UNL1       -0.3112
      5 C          19.7092   74.2684   -6.7474 C.3     1  UNL1        0.1811
      6 O          19.5769   71.9794   -7.4664 O.3     1  UNL1       -0.3308
      7 O          17.8369   72.9757   -9.6960 O.3     1  UNL1       -0.3794
      8 O          16.0220   71.9586   -7.9332 O.3     1  UNL1       -0.3779
      9 C          17.9174   73.4249   -8.3434 C.3     1  UNL1        0.1713
     10 C          17.2508   72.4284   -7.4186 C.3     1  UNL1        0.1895
     11 C          19.3739   73.3404   -7.9063 C.3     1  UNL1        0.1764
     12 C          18.3006   71.3343   -7.3237 C.3     1  UNL1        0.2383
     13 H          18.3097   73.6240  -10.2453 H       1  UNL1        0.2105
     14 H          15.4461   72.7310   -8.0666 H       1  UNL1        0.2106
     15 O          16.3085   69.4760   -6.5800 O.2     1  UNL1       -0.2464
     16 O          18.2572   68.7565   -2.4662 O.2     1  UNL1       -0.2670
     17 N          18.2631   70.6462   -6.0650 N.ar    1  UNL1       -0.2551
     18 N          17.2799   69.1193   -4.5318 N.ar    1  UNL1       -0.2743
     19 C          17.2185   69.7332   -5.7898 C.ar    1  UNL1        0.3323
     20 C          19.2544   70.8789   -5.1181 C.ar    1  UNL1        0.0869
     21 C          19.2993   70.2853   -3.9233 C.ar    1  UNL1        0.0795
     22 C          18.2451   69.3188   -3.5570 C.ar    1  UNL1        0.2626
     23 H          16.5387   68.4595   -4.3120 H       1  UNL1        0.1734
     24 O          22.0166   73.9358   -4.9615 O.3     1  UNL1       -0.2703
     25 P          22.7135   72.8998   -3.9350 P.3     1  UNL1        0.2208
     26 O          24.2341   73.4420   -3.8357 O.3     1  UNL1       -0.4371
     27 O          22.5944   71.4582   -4.3391 O.2     1  UNL1       -0.5170
     28 O          22.0621   73.2458   -2.4997 O.3     1  UNL1       -0.2858
     29 O          22.4814   74.1117   -0.3378 O.3     1  UNL1       -0.3226
     30 O          21.3181   70.2094    0.4976 O.3     1  UNL1       -0.3794
     31 O          23.0676   70.7818   -1.7646 O.3     1  UNL1       -0.3775
     32 O          21.8392   72.5009    1.9494 O.3     1  UNL1       -0.3792
     33 C          21.3573   71.4633   -0.1781 C.3     1  UNL1        0.1718
     34 C          22.7583   71.7229   -0.7420 C.3     1  UNL1        0.1968
     35 C          20.9766   72.5700    0.8092 C.3     1  UNL1        0.1723
     36 C          22.8573   73.1403   -1.3196 C.3     1  UNL1        0.2706
     37 C          21.1502   73.9335    0.1436 C.3     1  UNL1        0.1830
     38 H          20.4158   70.0884    0.8393 H       1  UNL1        0.2105
     39 H          23.9569   70.9911   -2.0966 H       1  UNL1        0.2106
     40 H          22.7162   72.8335    1.6938 H       1  UNL1        0.2106
     41 O          22.0761   75.4318    1.6933 O.co2   1  UNL1       -0.5466
     42 O          19.8259   75.5535    1.3484 O.co2   1  UNL1       -0.5466
     43 C          20.9139   75.0489    1.1116 C.2     1  UNL1        0.0799
@<TRIPOS>UNITY_ATOM_ATTR
41 1
charge -1
@<TRIPOS>BOND
     1     1     4    1
     2     1    24    1
     3     1     2    1
     4     1     3    2
     5    25    28    1
     6    25    24    1
     7    25    26    1
     8    25    27    2
     9     6    11    1
    10     6    12    1
    11    29    36    1
    12    29    37    1
    13     7     9    1
    14     7    13    1
    15     8    10    1
    16     8    14    1
    17     4     5    1
    18    28    36    1
    19    30    33    1
    20    30    38    1
    21    31    34    1
    22    31    39    1
    23    32    35    1
    24    32    40    1
    25    41    43   ar
    26    15    19    2
    27    42    43   ar
    28    16    22    2
    29    17    12    1
    30    17    19   ar
    31    17    20   ar
    32    18    19   ar
    33    18    22   ar
    34    18    23    1
    35     9    10    1
    36     9    11    1
    37    10    12    1
    38    11     5    1
    39    33    34    1
    40    33    35    1
    41    34    36    1
    42    35    37    1
    43    37    43    1
    44    20    21   ar
    45    21    22   ar
@<TRIPOS>MOLECULE
UDP-glaA
 43 45 0 0 0
SMALL
GASTEIGER

@<TRIPOS>ATOM
      1 P          19.1900   69.2957   -3.0579 P.3     1  UNL1        0.2189
      2 O          19.0340   67.7815   -3.6059 O.3     1  UNL1       -0.4371
      3 O          17.9895   69.8346   -2.3366 O.2     1  UNL1       -0.5170
      4 O          19.6640   70.1335   -4.3575 O.3     1  UNL1       -0.3112
      5 C          18.8324   70.1310   -5.5054 C.3     1  UNL1        0.1811
      6 O          18.7334   72.5220   -5.7233 O.3     1  UNL1       -0.3308
      7 O          15.7791   72.1777   -6.1044 O.3     1  UNL1       -0.3794
      8 O          16.6723   72.5261   -8.6572 O.3     1  UNL1       -0.3779
      9 C          16.8498   71.3410   -6.5418 C.3     1  UNL1        0.1713
     10 C          17.5682   71.9768   -7.7133 C.3     1  UNL1        0.1895
     11 C          17.9256   71.3527   -5.4638 C.3     1  UNL1        0.1764
     12 C          18.4153   73.0352   -7.0275 C.3     1  UNL1        0.2383
     13 H          15.3745   71.7498   -5.3307 H       1  UNL1        0.2105
     14 H          16.0957   71.8065   -8.9667 H       1  UNL1        0.2106
     15 O          20.0776   71.0489   -8.1530 O.2     1  UNL1       -0.2464
     16 O          23.0739   74.1826   -9.7151 O.2     1  UNL1       -0.2670
     17 N          19.6351   73.3037   -7.7341 N.ar    1  UNL1       -0.2551
     18 N          21.5688   72.6106   -8.9297 N.ar    1  UNL1       -0.2743
     19 C          20.3971   72.2343   -8.2600 C.ar    1  UNL1        0.3323
     20 C          20.0657   74.6153   -7.9002 C.ar    1  UNL1        0.0869
     21 C          21.1850   74.9579   -8.5417 C.ar    1  UNL1        0.0795
     22 C          22.0384   73.9010   -9.1199 C.ar    1  UNL1        0.2626
     23 H          22.1328   71.8582   -9.3155 H       1  UNL1        0.1734
     24 O          20.5354   69.2206   -2.1638 O.3     1  UNL1       -0.2703
     25 P          21.2550   70.3312   -1.2357 P.3     1  UNL1        0.2208
     26 O          22.7431   70.4303   -1.8619 O.3     1  UNL1       -0.4371
     27 O          21.2200   70.0225    0.2337 O.2     1  UNL1       -0.5170
     28 O          20.5477   71.7237   -1.6414 O.3     1  UNL1       -0.2858
     29 O          22.2926   73.1814   -2.2969 O.3     1  UNL1       -0.3226
     30 O          18.9175   75.5254   -2.9244 O.3     1  UNL1       -0.3794
     31 O          19.1245   73.8286   -0.5614 O.3     1  UNL1       -0.3775
     32 O          21.6174   75.7087   -3.4782 O.3     1  UNL1       -0.3792
     33 C          19.7190   74.3492   -2.8596 C.3     1  UNL1        0.1718
     34 C          20.2158   74.1190   -1.4283 C.3     1  UNL1        0.1968
     35 C          20.9103   74.5088   -3.8083 C.3     1  UNL1        0.1723
     36 C          21.2159   72.9572   -1.3807 C.3     1  UNL1        0.2706
     37 C          21.8566   73.3209   -3.6482 C.3     1  UNL1        0.1830
     38 H          18.6279   75.6327   -3.8465 H       1  UNL1        0.2105
     39 H          19.4876   73.6816    0.3282 H       1  UNL1        0.2106
     40 H          22.1108   75.5597   -2.6539 H       1  UNL1        0.2106
     41 O          22.8077   74.0371   -5.6696 O.co2   1  UNL1       -0.5466
     42 O          24.2268   73.2023   -4.0928 O.co2   1  UNL1       -0.5466
     43 C          23.0993   73.4978   -4.4614 C.2     1  UNL1        0.0799
@<TRIPOS>UNITY_ATOM_ATTR
41 1
charge -1
@<TRIPOS>BOND
     1     1     4    1
     2     1    24    1
     3     1     2    1
     4     1     3    2
     5    25    28    1
     6    25    24    1
     7    25    26    1
     8    25    27    2
     9     6    11    1
    10     6    12    1
    11    29    36    1
    12    29    37    1
    13     7     9    1
    14     7    13    1
    15     8    10    1
    16     8    14    1
    17     4     5    1
    18    28    36    1
    19    30    33    1
    20    30    38    1
    21    31    34    1
    22    31    39    1
    23    32    35    1
    24    32    40    1
    25    41    43   ar
    26    15    19    2
    27    42    43   ar
    28    16    22    2
    29    17    12    1
    30    17    19   ar
    31    17    20   ar
    32    18    19   ar
    33    18    22   ar
    34    18    23    1
    35     9    10    1
    36     9    11    1
    37    10    12    1
    38    11     5    1
    39    33    34    1
    40    33    35    1
    41    34    36    1
    42    35    37    1
    43    37    43    1
    44    20    21   ar
    45    21    22   ar
@<TRIPOS>MOLECULE
UDP-glaA
 43 45 0 0 0
SMALL
GASTEIGER

@<TRIPOS>ATOM
      1 P          20.2319   69.8437   -2.3998 P.3     1  UNL1        0.2189
      2 O          21.6183   69.7040   -3.2218 O.3     1  UNL1       -0.4371
      3 O          19.1903   68.8170   -2.7363 O.2     1  UNL1       -0.5170
      4 O          19.7983   71.3852   -2.6260 O.3     1  UNL1       -0.3112
      5 C          18.7990   71.6735   -3.5891 C.3     1  UNL1        0.1811
      6 O          19.5397   73.2794   -5.2161 O.3     1  UNL1       -0.3308
      7 O          17.6264   75.1925   -3.9237 O.3     1  UNL1       -0.3794
      8 O          16.2576   74.3879   -6.1406 O.3     1  UNL1       -0.3779
      9 C          17.4937   73.7871   -4.1351 C.3     1  UNL1        0.1713
     10 C          17.2111   73.5000   -5.5947 C.3     1  UNL1        0.1895
     11 C          18.8648   73.1519   -3.9451 C.3     1  UNL1        0.1764
     12 C          18.5859   73.6625   -6.2204 C.3     1  UNL1        0.2383
     13 H          17.8449   75.3251   -2.9854 H       1  UNL1        0.2105
     14 H          15.4427   74.3005   -5.6168 H       1  UNL1        0.2106
     15 O          19.6541   74.5524   -8.6785 O.2     1  UNL1       -0.2464
     16 O          19.2219   70.3797  -10.5863 O.2     1  UNL1       -0.2670
     17 N          18.7642   72.8302   -7.3757 N.ar    1  UNL1       -0.2551
     18 N          19.4377   72.4741   -9.6271 N.ar    1  UNL1       -0.2743
     19 C          19.3087   73.3753   -8.5620 C.ar    1  UNL1        0.3323
     20 C          18.4010   71.4889   -7.3265 C.ar    1  UNL1        0.0869
     21 C          18.5307   70.6424   -8.3504 C.ar    1  UNL1        0.0795
     22 C          19.0902   71.1321   -9.6259 C.ar    1  UNL1        0.2626
     23 H          19.8263   72.8442  -10.4903 H       1  UNL1        0.1734
     24 O          20.7212   69.8266   -0.8585 O.3     1  UNL1       -0.2703
     25 P          21.8871   70.6563   -0.1070 P.3     1  UNL1        0.2208
     26 O          23.1973   70.3515   -1.0050 O.3     1  UNL1       -0.4371
     27 O          22.0415   70.3208    1.3488 O.2     1  UNL1       -0.5170
     28 O          21.5415   72.2049   -0.4012 O.3     1  UNL1       -0.2858
     29 O          23.2832   73.0885   -1.7373 O.3     1  UNL1       -0.3226
     30 O          20.7878   76.3801   -1.2707 O.3     1  UNL1       -0.3794
     31 O          21.3135   74.5899    0.9708 O.3     1  UNL1       -0.3775
     32 O          23.0235   75.7549   -2.7676 O.3     1  UNL1       -0.3792
     33 C          21.1627   75.0133   -1.4176 C.3     1  UNL1        0.1718
     34 C          22.0496   74.5738   -0.2477 C.3     1  UNL1        0.1968
     35 C          21.9179   74.8462   -2.7390 C.3     1  UNL1        0.1723
     36 C          22.5978   73.1608   -0.4827 C.3     1  UNL1        0.2706
     37 C          22.4515   73.4195   -2.8483 C.3     1  UNL1        0.1830
     38 H          20.2309   76.6150   -2.0325 H       1  UNL1        0.2105
     39 H          21.9115   74.2962    1.6787 H       1  UNL1        0.2106
     40 H          23.7120   75.4226   -2.1672 H       1  UNL1        0.2106
     41 O          24.5624   73.6992   -3.8330 O.co2   1  UNL1       -0.5466
     42 O          22.9319   72.7615   -5.1212 O.co2   1  UNL1       -0.5466
     43 C          23.3063   73.2465   -4.0633 C.2     1  UNL1        0.0799
@<TRIPOS>UNITY_ATOM_ATTR
41 1
charge -1
@<TRIPOS>BOND
     1     1     4    1
     2     1    24    1
     3     1     2    1
     4     1     3    2
     5    25    28    1
     6    25    24    1
     7    25    26    1
     8    25    27    2
     9     6    11    1
    10     6    12    1
    11    29    36    1
    12    29    37    1
    13     7     9    1
    14     7    13    1
    15     8    10    1
    16     8    14    1
    17     4     5    1
    18    28    36    1
    19    30    33    1
    20    30    38    1
    21    31    34    1
    22    31    39    1
    23    32    35    1
    24    32    40    1
    25    41    43   ar
    26    15    19    2
    27    42    43   ar
    28    16    22    2
    29    17    12    1
    30    17    19   ar
    31    17    20   ar
    32    18    19   ar
    33    18    22   ar
    34    18    23    1
    35     9    10    1
    36     9    11    1
    37    10    12    1
    38    11     5    1
    39    33    34    1
    40    33    35    1
    41    34    36    1
    42    35    37    1
    43    37    43    1
    44    20    21   ar
    45    21    22   ar
@<TRIPOS>MOLECULE
UDP-glaA
 43 45 0 0 0
SMALL
GASTEIGER

@<TRIPOS>ATOM
      1 P          22.4524   73.4536   -5.0951 P.3     1  UNL1        0.2189
      2 O          23.4963   72.4467   -4.3784 O.3     1  UNL1       -0.4371
      3 O          22.4691   74.8601   -4.5721 O.2     1  UNL1       -0.5170
      4 O          21.0345   72.6825   -4.9931 O.3     1  UNL1       -0.3112
      5 C          20.7606   71.9193   -3.8304 C.3     1  UNL1        0.1811
      6 O          18.5904   72.2023   -4.8224 O.3     1  UNL1       -0.3308
      7 O          17.5049   70.8273   -2.3888 O.3     1  UNL1       -0.3794
      8 O          17.4971   68.8357   -4.2513 O.3     1  UNL1       -0.3779
      9 C          18.7227   70.5876   -3.0939 C.3     1  UNL1        0.1713
     10 C          18.4416   69.8755   -4.4002 C.3     1  UNL1        0.1895
     11 C          19.2607   71.9298   -3.5720 C.3     1  UNL1        0.1764
     12 C          17.9301   71.0083   -5.2737 C.3     1  UNL1        0.2383
     13 H          17.7301   71.3184   -1.5802 H       1  UNL1        0.2105
     14 H          17.8517   68.2097   -3.5966 H       1  UNL1        0.2106
     15 O          15.9825   70.7825   -7.3063 O.2     1  UNL1       -0.2464
     16 O          19.1889   70.2336  -10.5707 O.2     1  UNL1       -0.2670
     17 N          18.2277   70.8067   -6.6630 N.ar    1  UNL1       -0.2551
     18 N          17.5805   70.5088   -8.9304 N.ar    1  UNL1       -0.2743
     19 C          17.1760   70.7056   -7.6035 C.ar    1  UNL1        0.3323
     20 C          19.5502   70.7108   -7.0818 C.ar    1  UNL1        0.0869
     21 C          19.9196   70.5235   -8.3507 C.ar    1  UNL1        0.0795
     22 C          18.8825   70.4067   -9.3951 C.ar    1  UNL1        0.2626
     23 H          16.8412   70.4326   -9.6238 H       1  UNL1        0.1734
     24 O          22.8304   73.3129   -6.6612 O.3     1  UNL1       -0.2703
     25 P          22.3225   74.1411   -7.9530 P.3     1  UNL1        0.2208
     26 O          21.7181   75.4968   -7.3106 O.3     1  UNL1       -0.4371
     27 O          21.3622   73.3883   -8.8287 O.2     1  UNL1       -0.5170
     28 O          23.6759   74.6095   -8.6965 O.3     1  UNL1       -0.2858
     29 O          25.6284   75.8289   -8.1486 O.3     1  UNL1       -0.3226
     30 O          24.6144   77.4254  -11.8503 O.3     1  UNL1       -0.3794
     31 O          22.5511   76.8389   -9.8742 O.3     1  UNL1       -0.3775
     32 O          26.7484   77.6050  -10.1056 O.3     1  UNL1       -0.3792
     33 C          24.7537   76.4471  -10.8237 C.3     1  UNL1        0.1718
     34 C          23.9454   76.8519   -9.5864 C.3     1  UNL1        0.1968
     35 C          26.2358   76.3168  -10.4616 C.3     1  UNL1        0.1723
     36 C          24.2244   75.8972   -8.4189 C.3     1  UNL1        0.2706
     37 C          26.3916   75.3786   -9.2668 C.3     1  UNL1        0.1830
     38 H          25.1433   77.1299  -12.6109 H       1  UNL1        0.2105
     39 H          22.0814   77.0916   -9.0616 H       1  UNL1        0.2106
     40 H          26.4072   77.8410   -9.2263 H       1  UNL1        0.2106
     41 O          27.8626   75.2008   -7.4480 O.co2   1  UNL1       -0.5466
     42 O          28.7925   75.3755   -9.5221 O.co2   1  UNL1       -0.5466
     43 C          27.8102   75.3226   -8.7964 C.2     1  UNL1        0.0799
@<TRIPOS>UNITY_ATOM_ATTR
41 1
charge -1
@<TRIPOS>BOND
     1     1     4    1
     2     1    24    1
     3     1     2    1
     4     1     3    2
     5    25    28    1
     6    25    24    1
     7    25    26    1
     8    25    27    2
     9     6    11    1
    10     6    12    1
    11    29    36    1
    12    29    37    1
    13     7     9    1
    14     7    13    1
    15     8    10    1
    16     8    14    1
    17     4     5    1
    18    28    36    1
    19    30    33    1
    20    30    38    1
    21    31    34    1
    22    31    39    1
    23    32    35    1
    24    32    40    1
    25    41    43   ar
    26    15    19    2
    27    42    43   ar
    28    16    22    2
    29    17    12    1
    30    17    19   ar
    31    17    20   ar
    32    18    19   ar
    33    18    22   ar
    34    18    23    1
    35     9    10    1
    36     9    11    1
    37    10    12    1
    38    11     5    1
    39    33    34    1
    40    33    35    1
    41    34    36    1
    42    35    37    1
    43    37    43    1
    44    20    21   ar
    45    21    22   ar
@<TRIPOS>MOLECULE
UDP-glaA
 43 45 0 0 0
SMALL
GASTEIGER

@<TRIPOS>ATOM
      1 P          21.6590   73.4503   -5.4478 P.3     1  UNL1        0.2189
      2 O          21.1112   74.9074   -5.8885 O.3     1  UNL1       -0.4371
      3 O          22.7330   72.8844   -6.3301 O.2     1  UNL1       -0.5170
      4 O          20.3189   72.5556   -5.3095 O.3     1  UNL1       -0.3112
      5 C          20.4215   71.2673   -4.7273 C.3     1  UNL1        0.1811
      6 O          18.2406   72.0124   -4.0469 O.3     1  UNL1       -0.3308
      7 O          18.0688   69.4680   -2.4696 O.3     1  UNL1       -0.3794
      8 O          16.5857   68.8964   -4.6853 O.3     1  UNL1       -0.3779
      9 C          18.6751   69.7038   -3.7402 C.3     1  UNL1        0.1713
     10 C          17.6131   69.8581   -4.8083 C.3     1  UNL1        0.1895
     11 C          19.3020   71.0915   -3.7112 C.3     1  UNL1        0.1764
     12 C          17.1204   71.2738   -4.5615 C.3     1  UNL1        0.2383
     13 H          18.7838   69.4151   -1.8126 H       1  UNL1        0.2105
     14 H          16.9985   68.0177   -4.7460 H       1  UNL1        0.2106
     15 O          17.8393   70.4753   -7.1732 O.2     1  UNL1       -0.2464
     16 O          15.2691   73.7859   -9.0897 O.2     1  UNL1       -0.2670
     17 N          16.6535   71.9087   -5.7608 N.ar    1  UNL1       -0.2551
     18 N          16.5594   72.1247   -8.1258 N.ar    1  UNL1       -0.2743
     19 C          17.0754   71.4307   -7.0235 C.ar    1  UNL1        0.3323
     20 C          15.7871   72.9931   -5.6789 C.ar    1  UNL1        0.0869
     21 C          15.3034   73.6438   -6.7393 C.ar    1  UNL1        0.0795
     22 C          15.6956   73.2085   -8.0944 C.ar    1  UNL1        0.2626
     23 H          16.8496   71.7989   -9.0438 H       1  UNL1        0.1734
     24 O          22.1025   73.6800   -3.9097 O.3     1  UNL1       -0.2703
     25 P          21.5733   74.7281   -2.7988 P.3     1  UNL1        0.2208
     26 O          19.9645   74.5961   -2.9008 O.3     1  UNL1       -0.4371
     27 O          22.0931   76.1263   -2.9742 O.2     1  UNL1       -0.5170
     28 O          21.9500   74.0494   -1.3841 O.3     1  UNL1       -0.2858
     29 O          20.9811   72.1275   -0.4008 O.3     1  UNL1       -0.3226
     30 O          22.1870   74.2975    2.9332 O.3     1  UNL1       -0.3794
     31 O          20.9749   75.6443    0.6478 O.3     1  UNL1       -0.3775
     32 O          21.1851   71.7711    2.4399 O.3     1  UNL1       -0.3792
     33 C          22.2187   73.7876    1.6031 C.3     1  UNL1        0.1718
     34 C          20.9723   74.2323    0.8304 C.3     1  UNL1        0.1968
     35 C          22.2819   72.2589    1.6601 C.3     1  UNL1        0.1723
     36 C          20.9118   73.5502   -0.5420 C.3     1  UNL1        0.2706
     37 C          22.1732   71.6877    0.2480 C.3     1  UNL1        0.1830
     38 H          22.9915   73.9899    3.3846 H       1  UNL1        0.2105
     39 H          20.1747   75.8769    0.1474 H       1  UNL1        0.2106
     40 H          20.3705   71.8605    1.9170 H       1  UNL1        0.2106
     41 O          21.0320   69.7584   -0.4444 O.co2   1  UNL1       -0.5466
     42 O          22.8931   69.4597    0.8378 O.co2   1  UNL1       -0.5466
     43 C          22.1003   70.1939    0.2661 C.2     1  UNL1        0.0799
@<TRIPOS>UNITY_ATOM_ATTR
41 1
charge -1
@<TRIPOS>BOND
     1     1     4    1
     2     1    24    1
     3     1     2    1
     4     1     3    2
     5    25    28    1
     6    25    24    1
     7    25    26    1
     8    25    27    2
     9     6    11    1
    10     6    12    1
    11    29    36    1
    12    29    37    1
    13     7     9    1
    14     7    13    1
    15     8    10    1
    16     8    14    1
    17     4     5    1
    18    28    36    1
    19    30    33    1
    20    30    38    1
    21    31    34    1
    22    31    39    1
    23    32    35    1
    24    32    40    1
    25    41    43   ar
    26    15    19    2
    27    42    43   ar
    28    16    22    2
    29    17    12    1
    30    17    19   ar
    31    17    20   ar
    32    18    19   ar
    33    18    22   ar
    34    18    23    1
    35     9    10    1
    36     9    11    1
    37    10    12    1
    38    11     5    1
    39    33    34    1
    40    33    35    1
    41    34    36    1
    42    35    37    1
    43    37    43    1
    44    20    21   ar
    45    21    22   ar
@<TRIPOS>MOLECULE
UDP-glaA
 43 45 0 0 0
SMALL
GASTEIGER

@<TRIPOS>ATOM
      1 P          20.1469   71.4655   -3.5039 P.3     1  UNL1        0.2189
      2 O          20.6894   69.9461   -3.6236 O.3     1  UNL1       -0.4371
      3 O          19.3359   71.7531   -2.2744 O.2     1  UNL1       -0.5170
      4 O          19.4004   71.7251   -4.9149 O.3     1  UNL1       -0.3112
      5 C          20.1710   71.6967   -6.1043 C.3     1  UNL1        0.1811
      6 O          18.1014   70.9084   -7.0367 O.3     1  UNL1       -0.3308
      7 O          19.7560   69.7598   -9.2580 O.3     1  UNL1       -0.3794
      8 O          18.7617   72.0404  -10.3742 O.3     1  UNL1       -0.3779
      9 C          19.9377   70.9753   -8.5321 C.3     1  UNL1        0.1713
     10 C          18.9192   72.0063   -8.9708 C.3     1  UNL1        0.1895
     11 C          19.5334   70.7234   -7.0855 C.3     1  UNL1        0.1764
     12 C          17.6651   71.5362   -8.2536 C.3     1  UNL1        0.2383
     13 H          20.4028   69.1189   -8.9166 H       1  UNL1        0.2105
     14 H          19.6312   72.2406  -10.7615 H       1  UNL1        0.2106
     15 O          16.0407   71.6332   -5.9455 O.2     1  UNL1       -0.2464
     16 O          14.3079   75.7404   -7.1148 O.2     1  UNL1       -0.2670
     17 N          16.7806   72.6188   -7.9296 N.ar    1  UNL1       -0.2551
     18 N          15.1785   73.6781   -6.5296 N.ar    1  UNL1       -0.2743
     19 C          16.0073   72.5694   -6.7462 C.ar    1  UNL1        0.3323
     20 C          16.6854   73.7145   -8.7804 C.ar    1  UNL1        0.0869
     21 C          15.8908   74.7641   -8.5596 C.ar    1  UNL1        0.0795
     22 C          15.0496   74.7906   -7.3466 C.ar    1  UNL1        0.2626
     23 H          14.6129   73.6640   -5.6852 H       1  UNL1        0.1734
     24 O          21.4975   72.3443   -3.6406 O.3     1  UNL1       -0.2703
     25 P          23.0141   72.0371   -3.1735 P.3     1  UNL1        0.2208
     26 O          23.9009   72.9619   -4.1606 O.3     1  UNL1       -0.4371
     27 O          23.3814   70.5809   -3.1921 O.2     1  UNL1       -0.5170
     28 O          23.1468   72.7397   -1.7269 O.3     1  UNL1       -0.2858
     29 O          21.4834   73.3883   -0.1739 O.3     1  UNL1       -0.3226
     30 O          24.3910   76.3039    0.3956 O.3     1  UNL1       -0.3794
     31 O          23.7250   75.3802   -2.2894 O.3     1  UNL1       -0.3775
     32 O          22.0410   75.5467    1.6341 O.3     1  UNL1       -0.3792
     33 C          23.8408   75.0206    0.1114 C.3     1  UNL1        0.1718
     34 C          22.9488   75.0852   -1.1329 C.3     1  UNL1        0.1968
     35 C          23.0229   74.5541    1.3188 C.3     1  UNL1        0.1723
     36 C          22.2178   73.7539   -1.3469 C.3     1  UNL1        0.2706
     37 C          22.3092   73.2469    0.9810 C.3     1  UNL1        0.1830
     38 H          24.9449   76.2163    1.1900 H       1  UNL1        0.2105
     39 H          23.1209   75.4012   -3.0506 H       1  UNL1        0.2106
     40 H          21.3382   75.5101    0.9633 H       1  UNL1        0.2106
     41 O          21.2103   71.4790    2.0629 O.co2   1  UNL1       -0.5466
     42 O          20.8849   73.5731    2.9032 O.co2   1  UNL1       -0.5466
     43 C          21.3955   72.8209    2.0859 C.2     1  UNL1        0.0799
@<TRIPOS>UNITY_ATOM_ATTR
41 1
charge -1
@<TRIPOS>BOND
     1     1     4    1
     2     1    24    1
     3     1     2    1
     4     1     3    2
     5    25    28    1
     6    25    24    1
     7    25    26    1
     8    25    27    2
     9     6    11    1
    10     6    12    1
    11    29    36    1
    12    29    37    1
    13     7     9    1
    14     7    13    1
    15     8    10    1
    16     8    14    1
    17     4     5    1
    18    28    36    1
    19    30    33    1
    20    30    38    1
    21    31    34    1
    22    31    39    1
    23    32    35    1
    24    32    40    1
    25    41    43   ar
    26    15    19    2
    27    42    43   ar
    28    16    22    2
    29    17    12    1
    30    17    19   ar
    31    17    20   ar
    32    18    19   ar
    33    18    22   ar
    34    18    23    1
    35     9    10    1
    36     9    11    1
    37    10    12    1
    38    11     5    1
    39    33    34    1
    40    33    35    1
    41    34    36    1
    42    35    37    1
    43    37    43    1
    44    20    21   ar
    45    21    22   ar
@<TRIPOS>MOLECULE
UDP-glaA
 43 45 0 0 0
SMALL
GASTEIGER

@<TRIPOS>ATOM
      1 P          22.3322   73.5355   -4.1748 P.3     1  UNL1        0.2189
      2 O          21.4739   72.1951   -3.8850 O.3     1  UNL1       -0.4371
      3 O          23.8009   73.3129   -4.3880 O.2     1  UNL1       -0.5170
      4 O          21.9406   74.5207   -2.9536 O.3     1  UNL1       -0.3112
      5 C          22.9378   75.3825   -2.4320 C.3     1  UNL1        0.1811
      6 O          21.7340   74.8664   -0.4174 O.3     1  UNL1       -0.3308
      7 O          23.1537   77.2059    0.8083 O.3     1  UNL1       -0.3794
      8 O          24.5751   75.0820    1.7592 O.3     1  UNL1       -0.3779
      9 C          23.6313   76.2591   -0.1473 C.3     1  UNL1        0.1713
     10 C          23.9078   74.9300    0.5234 C.3     1  UNL1        0.1895
     11 C          22.4790   75.9115   -1.0805 C.3     1  UNL1        0.1764
     12 C          22.5089   74.3590    0.6815 C.3     1  UNL1        0.2383
     13 H          22.9537   78.0271    0.3274 H       1  UNL1        0.2105
     14 H          25.4094   75.5511    1.5856 H       1  UNL1        0.2106
     15 O          22.7602   72.6953    2.9496 O.2     1  UNL1       -0.2464
     16 O          22.4415   68.8672    0.4035 O.2     1  UNL1       -0.2670
     17 N          22.4944   72.9247    0.6404 N.ar    1  UNL1       -0.2551
     18 N          22.6019   70.7901    1.6802 N.ar    1  UNL1       -0.2743
     19 C          22.6287   72.1822    1.8368 C.ar    1  UNL1        0.3323
     20 C          22.3483   72.2675   -0.5762 C.ar    1  UNL1        0.0869
     21 C          22.3241   70.9395   -0.7090 C.ar    1  UNL1        0.0795
     22 C          22.4592   70.0910    0.4916 C.ar    1  UNL1        0.2626
     23 H          22.6974   70.2361    2.5269 H       1  UNL1        0.1734
     24 O          21.5611   74.1943   -5.4344 O.3     1  UNL1       -0.2703
     25 P          21.6432   73.8696   -7.0157 P.3     1  UNL1        0.2208
     26 O          22.6838   72.6335   -7.0872 O.3     1  UNL1       -0.4371
     27 O          22.0203   75.0477   -7.8676 O.2     1  UNL1       -0.5170
     28 O          20.2108   73.2189   -7.3744 O.3     1  UNL1       -0.2858
     29 O          18.6869   71.9690   -6.0648 O.3     1  UNL1       -0.3226
     30 O          18.2361   70.2365   -9.8164 O.3     1  UNL1       -0.3794
     31 O          20.8812   70.9721   -8.8323 O.3     1  UNL1       -0.3775
     32 O          16.9690   70.0741   -7.3673 O.3     1  UNL1       -0.3792
     33 C          18.4675   71.2559   -8.8481 C.3     1  UNL1        0.1718
     34 C          19.7141   70.9314   -8.0180 C.3     1  UNL1        0.1968
     35 C          17.2425   71.3591   -7.9353 C.3     1  UNL1        0.1723
     36 C          19.8735   71.9296   -6.8644 C.3     1  UNL1        0.2706
     37 C          17.5266   72.3457   -6.8048 C.3     1  UNL1        0.1830
     38 H          17.4384   70.4817  -10.3155 H       1  UNL1        0.2105
     39 H          21.6431   70.7704   -8.2633 H       1  UNL1        0.2106
     40 H          17.6383   69.8882   -6.6870 H       1  UNL1        0.2106
     41 O          16.5020   71.3469   -4.9456 O.co2   1  UNL1       -0.5466
     42 O          15.5225   73.2261   -5.7860 O.co2   1  UNL1       -0.5466
     43 C          16.4058   72.3814   -5.8151 C.2     1  UNL1        0.0799
@<TRIPOS>UNITY_ATOM_ATTR
41 1
charge -1
@<TRIPOS>BOND
     1     1     4    1
     2     1    24    1
     3     1     2    1
     4     1     3    2
     5    25    28    1
     6    25    24    1
     7    25    26    1
     8    25    27    2
     9     6    11    1
    10     6    12    1
    11    29    36    1
    12    29    37    1
    13     7     9    1
    14     7    13    1
    15     8    10    1
    16     8    14    1
    17     4     5    1
    18    28    36    1
    19    30    33    1
    20    30    38    1
    21    31    34    1
    22    31    39    1
    23    32    35    1
    24    32    40    1
    25    41    43   ar
    26    15    19    2
    27    42    43   ar
    28    16    22    2
    29    17    12    1
    30    17    19   ar
    31    17    20   ar
    32    18    19   ar
    33    18    22   ar
    34    18    23    1
    35     9    10    1
    36     9    11    1
    37    10    12    1
    38    11     5    1
    39    33    34    1
    40    33    35    1
    41    34    36    1
    42    35    37    1
    43    37    43    1
    44    20    21   ar
    45    21    22   ar
@<TRIPOS>MOLECULE
UDP-glaA
 43 45 0 0 0
SMALL
GASTEIGER

@<TRIPOS>ATOM
      1 P          19.2521   72.5470   -3.3129 P.3     1  UNL1        0.2189
      2 O          19.1188   72.2464   -1.7289 O.3     1  UNL1       -0.4371
      3 O          20.2247   71.6687   -4.0442 O.2     1  UNL1       -0.5170
      4 O          19.5480   74.1354   -3.3846 O.3     1  UNL1       -0.3112
      5 C          20.4047   74.6195   -4.4048 C.3     1  UNL1        0.1811
      6 O          21.6945   74.9443   -2.4035 O.3     1  UNL1       -0.3308
      7 O          23.7314   76.2753   -4.1557 O.3     1  UNL1       -0.3794
      8 O          24.7945   73.7913   -3.7878 O.3     1  UNL1       -0.3779
      9 C          22.8906   75.1566   -4.4373 C.3     1  UNL1        0.1713
     10 C          23.3907   73.9272   -3.7085 C.3     1  UNL1        0.1895
     11 C          21.5451   75.3996   -3.7664 C.3     1  UNL1        0.1764
     12 C          22.9077   74.1823   -2.2909 C.3     1  UNL1        0.2383
     13 H          23.3509   77.0457   -4.6110 H       1  UNL1        0.2105
     14 H          25.0312   73.7432   -4.7300 H       1  UNL1        0.2106
     15 O          23.3188   71.5914   -3.3366 O.2     1  UNL1       -0.2464
     16 O          21.8118   69.5921    0.5325 O.2     1  UNL1       -0.2670
     17 N          22.6320   72.9674   -1.5787 N.ar    1  UNL1       -0.2551
     18 N          22.5676   70.5976   -1.4095 N.ar    1  UNL1       -0.2743
     19 C          22.8728   71.7171   -2.1947 C.ar    1  UNL1        0.3323
     20 C          22.1282   73.0220   -0.2838 C.ar    1  UNL1        0.0869
     21 C          21.8428   71.9455    0.4520 C.ar    1  UNL1        0.0795
     22 C          22.0646   70.6017   -0.1177 C.ar    1  UNL1        0.2626
     23 H          22.7323   69.6880   -1.8322 H       1  UNL1        0.1734
     24 O          17.7245   72.4385   -3.8322 O.3     1  UNL1       -0.2703
     25 P          17.0207   71.3942   -4.8455 P.3     1  UNL1        0.2208
     26 O          15.7669   72.2321   -5.4301 O.3     1  UNL1       -0.4371
     27 O          16.6502   70.0811   -4.2175 O.2     1  UNL1       -0.5170
     28 O          18.0458   71.2741   -6.0860 O.3     1  UNL1       -0.2858
     29 O          19.2474   72.9685   -7.2195 O.3     1  UNL1       -0.3226
     30 O          18.5755   70.2021  -10.2485 O.3     1  UNL1       -0.3794
     31 O          16.4813   70.8200   -8.3151 O.3     1  UNL1       -0.3775
     32 O          20.0521   72.5157   -9.9372 O.3     1  UNL1       -0.3792
     33 C          18.8279   70.6908   -8.9341 C.3     1  UNL1        0.1718
     34 C          17.6738   71.5831   -8.4649 C.3     1  UNL1        0.1968
     35 C          20.1353   71.4878   -8.9446 C.3     1  UNL1        0.1723
     36 C          18.0126   72.2504   -7.1261 C.3     1  UNL1        0.2706
     37 C          20.3506   72.1386   -7.5800 C.3     1  UNL1        0.1830
     38 H          19.3309   69.6458  -10.5047 H       1  UNL1        0.2105
     39 H          15.7835   71.4232   -8.0086 H       1  UNL1        0.2106
     40 H          19.4617   73.2150   -9.6090 H       1  UNL1        0.2106
     41 O          22.5384   72.5100   -6.8189 O.co2   1  UNL1       -0.5466
     42 O          21.6346   74.0898   -8.1917 O.co2   1  UNL1       -0.5466
     43 C          21.5495   73.0329   -7.5833 C.2     1  UNL1        0.0799
@<TRIPOS>UNITY_ATOM_ATTR
41 1
charge -1
@<TRIPOS>BOND
     1     1     4    1
     2     1    24    1
     3     1     2    1
     4     1     3    2
     5    25    28    1
     6    25    24    1
     7    25    26    1
     8    25    27    2
     9     6    11    1
    10     6    12    1
    11    29    36    1
    12    29    37    1
    13     7     9    1
    14     7    13    1
    15     8    10    1
    16     8    14    1
    17     4     5    1
    18    28    36    1
    19    30    33    1
    20    30    38    1
    21    31    34    1
    22    31    39    1
    23    32    35    1
    24    32    40    1
    25    41    43   ar
    26    15    19    2
    27    42    43   ar
    28    16    22    2
    29    17    12    1
    30    17    19   ar
    31    17    20   ar
    32    18    19   ar
    33    18    22   ar
    34    18    23    1
    35     9    10    1
    36     9    11    1
    37    10    12    1
    38    11     5    1
    39    33    34    1
    40    33    35    1
    41    34    36    1
    42    35    37    1
    43    37    43    1
    44    20    21   ar
    45    21    22   ar
@<TRIPOS>MOLECULE
UDP-glaA
 43 45 0 0 0
SMALL
GASTEIGER

@<TRIPOS>ATOM
      1 P          21.6640   73.1789   -5.8366 P.3     1  UNL1        0.2189
      2 O          21.5447   74.5593   -5.0013 O.3     1  UNL1       -0.4371
      3 O          22.3925   73.2910   -7.1438 O.2     1  UNL1       -0.5170
      4 O          20.1403   72.6438   -5.9246 O.3     1  UNL1       -0.3112
      5 C          19.8860   71.2760   -5.6531 C.3     1  UNL1        0.1811
      6 O          17.7086   72.2575   -5.3885 O.3     1  UNL1       -0.3308
      7 O          16.8438   69.5940   -4.3165 O.3     1  UNL1       -0.3794
      8 O          15.9094   69.5370   -6.8776 O.3     1  UNL1       -0.3779
      9 C          17.7742   69.8895   -5.3580 C.3     1  UNL1        0.1713
     10 C          17.0415   70.3368   -6.6053 C.3     1  UNL1        0.1895
     11 C          18.5340   71.1498   -4.9655 C.3     1  UNL1        0.1764
     12 C          16.6745   71.7698   -6.2591 C.3     1  UNL1        0.2383
     13 H          17.3588   69.3505   -3.5284 H       1  UNL1        0.2105
     14 H          16.2167   68.6196   -6.9788 H       1  UNL1        0.2106
     15 O          18.4280   71.5987   -8.4662 O.2     1  UNL1       -0.2464
     16 O          16.3088   75.0590  -10.6511 O.2     1  UNL1       -0.2670
     17 N          16.6035   72.6129   -7.4182 N.ar    1  UNL1       -0.2551
     18 N          17.3719   73.3222   -9.5525 N.ar    1  UNL1       -0.2743
     19 C          17.5328   72.4456   -8.4714 C.ar    1  UNL1        0.3323
     20 C          15.6210   73.5930   -7.5033 C.ar    1  UNL1        0.0869
     21 C          15.4803   74.4207   -8.5411 C.ar    1  UNL1        0.0795
     22 C          16.4108   74.3128   -9.6822 C.ar    1  UNL1        0.2626
     23 H          18.0292   73.2206  -10.3211 H       1  UNL1        0.1734
     24 O          22.3427   72.1686   -4.7718 O.3     1  UNL1       -0.2703
     25 P          22.4101   72.2179   -3.1576 P.3     1  UNL1        0.2208
     26 O          23.1382   73.6312   -2.8597 O.3     1  UNL1       -0.4371
     27 O          23.0833   71.0297   -2.5326 O.2     1  UNL1       -0.5170
     28 O          20.8813   72.4398   -2.6911 O.3     1  UNL1       -0.2858
     29 O          20.9755   71.7796   -0.4207 O.3     1  UNL1       -0.3226
     30 O          23.4700   75.1045   -0.4651 O.3     1  UNL1       -0.3794
     31 O          20.9742   75.1044   -1.9742 O.3     1  UNL1       -0.3775
     32 O          22.8047   73.1208    1.3383 O.3     1  UNL1       -0.3792
     33 C          22.8296   73.9235   -0.9399 C.3     1  UNL1        0.1718
     34 C          21.3116   74.1250   -0.9975 C.3     1  UNL1        0.1968
     35 C          23.1688   72.7639    0.0007 C.3     1  UNL1        0.1723
     36 C          20.6017   72.8097   -1.3416 C.3     1  UNL1        0.2706
     37 C          22.3789   71.5228   -0.4090 C.3     1  UNL1        0.1830
     38 H          24.4265   74.9308   -0.4428 H       1  UNL1        0.2105
     39 H          20.0061   75.1905   -1.9811 H       1  UNL1        0.2106
     40 H          21.8360   73.0870    1.4142 H       1  UNL1        0.2106
     41 O          23.5107   69.5315    0.0985 O.co2   1  UNL1       -0.5466
     42 O          21.9927   70.2809    1.6252 O.co2   1  UNL1       -0.5466
     43 C          22.5802   70.4015    0.5600 C.2     1  UNL1        0.0799
@<TRIPOS>UNITY_ATOM_ATTR
41 1
charge -1
@<TRIPOS>BOND
     1     1     4    1
     2     1    24    1
     3     1     2    1
     4     1     3    2
     5    25    28    1
     6    25    24    1
     7    25    26    1
     8    25    27    2
     9     6    11    1
    10     6    12    1
    11    29    36    1
    12    29    37    1
    13     7     9    1
    14     7    13    1
    15     8    10    1
    16     8    14    1
    17     4     5    1
    18    28    36    1
    19    30    33    1
    20    30    38    1
    21    31    34    1
    22    31    39    1
    23    32    35    1
    24    32    40    1
    25    41    43   ar
    26    15    19    2
    27    42    43   ar
    28    16    22    2
    29    17    12    1
    30    17    19   ar
    31    17    20   ar
    32    18    19   ar
    33    18    22   ar
    34    18    23    1
    35     9    10    1
    36     9    11    1
    37    10    12    1
    38    11     5    1
    39    33    34    1
    40    33    35    1
    41    34    36    1
    42    35    37    1
    43    37    43    1
    44    20    21   ar
    45    21    22   ar
