@<TRIPOS>MOLECULE
*****
 43 45 0 0 0
SMALL
GASTEIGER

@<TRIPOS>ATOM
      1 P          22.9764   71.6717   -2.8611 P.3     1  UNL1        0.2189
      2 O          23.7914   72.9905   -3.3254 O.co2   1  UNL1       -0.4371
      3 O          23.6175   70.3670   -3.2333 O.2     1  UNL1       -0.5170
      4 O          21.4851   71.9125   -3.4407 O.3     1  UNL1       -0.3112
      5 C          20.6112   70.8031   -3.5403 C.3     1  UNL1        0.1811
      6 O          18.7793   71.8946   -4.6496 O.3     1  UNL1       -0.3308
      7 O          17.0314   70.7253   -2.5121 O.3     1  UNL1       -0.3794
      8 O          16.5978   69.0495   -4.6192 O.3     1  UNL1       -0.3779
      9 C          18.1802   70.1639   -3.1474 C.3     1  UNL1        0.1713
     10 C          17.8378   69.7225   -4.5545 C.3     1  UNL1        0.1895
     11 C          19.1744   71.2892   -3.3995 C.3     1  UNL1        0.1764
     12 C          17.8263   71.0431   -5.3053 C.3     1  UNL1        0.2383
     13 H          16.3817   70.0251   -2.3408 H       1  UNL1        0.2105
     14 H          16.6567   68.2153   -4.1267 H       1  UNL1        0.2106
     15 O          16.0216   70.4641   -7.3993 O.2     1  UNL1       -0.2464
     16 O          19.3848   70.4926  -10.5509 O.2     1  UNL1       -0.2670
     17 N          18.2034   70.8939   -6.6824 N.ar    1  UNL1       -0.2551
     18 N          17.6985   70.4778   -8.9668 N.ar    1  UNL1       -0.2743
     19 C          17.2190   70.6029   -7.6563 C.ar    1  UNL1        0.3323
     20 C          19.5339   71.0370   -7.0566 C.ar    1  UNL1        0.0869
     21 C          19.9759   70.9151   -8.3098 C.ar    1  UNL1        0.0795
     22 C          19.0119   70.6108   -9.3876 C.ar    1  UNL1        0.2626
     23 H          17.0321   70.2734   -9.6620 H       1  UNL1        0.1734
     24 O          22.7900   71.9012   -1.2719 O.3     1  UNL1       -0.2703
     25 P          22.4528   70.8605   -0.0815 P.3     1  UNL1        0.2208
     26 O          23.7079   69.8388   -0.1169 O.co2   1  UNL1       -0.4371
     27 O          21.1117   70.1971   -0.2051 O.2     1  UNL1       -0.5170
     28 O          22.6572   71.7098    1.2747 O.3     1  UNL1       -0.2858
     29 O          21.8443   72.4203    3.3827 O.3     1  UNL1       -0.3226
     30 O          21.1299   75.7481    1.0410 O.3     1  UNL1       -0.3794
     31 O          20.5845   73.0687    0.0124 O.3     1  UNL1       -0.3775
     32 O          23.3521   75.7324    2.9152 O.3     1  UNL1       -0.3792
     33 C          21.8243   74.5723    1.4574 C.3     1  UNL1        0.1718
     34 C          20.8879   73.3670    1.3702 C.3     1  UNL1        0.1968
     35 C          22.2878   74.7830    2.9006 C.3     1  UNL1        0.1723
     36 C          21.5190   72.1356    2.0216 C.3     1  UNL1        0.2706
     37 C          22.7868   73.4812    3.5211 C.3     1  UNL1        0.1830
     38 H          20.8258   75.6374    0.1264 H       1  UNL1        0.2105
     39 H          20.1840   73.8458   -0.4072 H       1  UNL1        0.2106
     40 H          23.0476   76.5656    2.5228 H       1  UNL1        0.2106
     41 O          21.9427   72.9302    5.6389 O.co2   1  UNL1       -0.5466
     42 O          23.7959   74.2569    5.5709 O.co2   1  UNL1       -0.5466
     43 C          22.9231   73.6178    5.0026 C.2     1  UNL1        0.0799
@<TRIPOS>UNITY_ATOM_ATTR
2 1
charge -1
26 1
charge -1
41 1
charge -1
@<TRIPOS>BOND
     1     1     4    1
     2     1    24    1
     3     1     2    1
     4     1     3    2
     5    25    28    1
     6    25    24    1
     7    25    26    1
     8    25    27    2
     9     6    11    1
    10     6    12    1
    11    29    36    1
    12    29    37    1
    13     7     9    1
    14     7    13    1
    15     8    10    1
    16     8    14    1
    17     4     5    1
    18    28    36    1
    19    30    33    1
    20    30    38    1
    21    31    34    1
    22    31    39    1
    23    32    35    1
    24    32    40    1
    25    41    43   ar
    26    15    19    2
    27    42    43   ar
    28    16    22    2
    29    17    12    1
    30    17    19   ar
    31    17    20   ar
    32    18    19   ar
    33    18    22   ar
    34    18    23    1
    35     9    10    1
    36     9    11    1
    37    10    12    1
    38    11     5    1
    39    33    34    1
    40    33    35    1
    41    34    36    1
    42    35    37    1
    43    37    43    1
    44    20    21   ar
    45    21    22   ar
@<TRIPOS>MOLECULE
*****
 43 45 0 0 0
SMALL
GASTEIGER

@<TRIPOS>ATOM
      1 P          22.7453   71.5382   -2.1168 P.3     1  UNL1        0.2189
      2 O          23.0648   73.1012   -2.3886 O.co2   1  UNL1       -0.4371
      3 O          23.5156   70.5760   -2.9726 O.2     1  UNL1       -0.5170
      4 O          21.1340   71.4455   -2.2307 O.3     1  UNL1       -0.3112
      5 C          20.5478   71.4177   -3.5192 C.3     1  UNL1        0.1811
      6 O          18.6039   72.2248   -4.6800 O.3     1  UNL1       -0.3308
      7 O          17.0007   71.0084   -2.4571 O.3     1  UNL1       -0.3794
      8 O          16.7537   69.1625   -4.4490 O.3     1  UNL1       -0.3779
      9 C          18.2040   70.5386   -3.0651 C.3     1  UNL1        0.1713
     10 C          17.9109   69.9721   -4.4382 C.3     1  UNL1        0.1895
     11 C          19.0660   71.7490   -3.3973 C.3     1  UNL1        0.1764
     12 C          17.7509   71.2320   -5.2717 C.3     1  UNL1        0.2383
     13 H          16.4335   70.2528   -2.2358 H       1  UNL1        0.2105
     14 H          16.9060   68.3735   -3.9047 H       1  UNL1        0.2106
     15 O          16.0057   70.3742   -7.3199 O.2     1  UNL1       -0.2464
     16 O          19.3539   70.5188  -10.4841 O.2     1  UNL1       -0.2670
     17 N          18.1402   71.0373   -6.6397 N.ar    1  UNL1       -0.2551
     18 N          17.6752   70.4461   -8.8937 N.ar    1  UNL1       -0.2743
     19 C          17.1859   70.6038   -7.5903 C.ar    1  UNL1        0.3323
     20 C          19.4528   71.2763   -7.0280 C.ar    1  UNL1        0.0869
     21 C          19.9043   71.1216   -8.2742 C.ar    1  UNL1        0.0795
     22 C          18.9716   70.6707   -9.3278 C.ar    1  UNL1        0.2626
     23 H          17.0298   70.1431   -9.5727 H       1  UNL1        0.1734
     24 O          23.0067   71.3852   -0.5290 O.3     1  UNL1       -0.2703
     25 P          22.2628   70.4826    0.5871 P.3     1  UNL1        0.2208
     26 O          23.4881   69.9103    1.4768 O.co2   1  UNL1       -0.4371
     27 O          21.3617   69.4232    0.0217 O.2     1  UNL1       -0.5170
     28 O          21.5240   71.5469    1.5483 O.3     1  UNL1       -0.2858
     29 O          22.1172   73.8200    1.2482 O.3     1  UNL1       -0.3226
     30 O          20.0317   73.9588    4.8118 O.3     1  UNL1       -0.3794
     31 O          21.9276   71.7987    4.2887 O.3     1  UNL1       -0.3775
     32 O          18.7896   74.8973    2.3568 O.3     1  UNL1       -0.3792
     33 C          20.3545   73.4729    3.5089 C.3     1  UNL1        0.1718
     34 C          21.7986   72.9712    3.4930 C.3     1  UNL1        0.1968
     35 C          20.1806   74.6258    2.5177 C.3     1  UNL1        0.1723
     36 C          22.2532   72.6578    2.0668 C.3     1  UNL1        0.2706
     37 C          20.7714   74.2816    1.1535 C.3     1  UNL1        0.1830
     38 H          20.1351   73.2432    5.4588 H       1  UNL1        0.2105
     39 H          21.6406   71.9902    5.1949 H       1  UNL1        0.2106
     40 H          18.4014   75.1177    3.2179 H       1  UNL1        0.2106
     41 O          20.6283   76.6195    1.0302 O.co2   1  UNL1       -0.5466
     42 O          21.1974   75.5101   -0.8789 O.co2   1  UNL1       -0.5466
     43 C          20.8953   75.5051    0.3050 C.2     1  UNL1        0.0799
@<TRIPOS>UNITY_ATOM_ATTR
2 1
charge -1
26 1
charge -1
41 1
charge -1
@<TRIPOS>BOND
     1     1     4    1
     2     1    24    1
     3     1     2    1
     4     1     3    2
     5    25    28    1
     6    25    24    1
     7    25    26    1
     8    25    27    2
     9     6    11    1
    10     6    12    1
    11    29    36    1
    12    29    37    1
    13     7     9    1
    14     7    13    1
    15     8    10    1
    16     8    14    1
    17     4     5    1
    18    28    36    1
    19    30    33    1
    20    30    38    1
    21    31    34    1
    22    31    39    1
    23    32    35    1
    24    32    40    1
    25    41    43   ar
    26    15    19    2
    27    42    43   ar
    28    16    22    2
    29    17    12    1
    30    17    19   ar
    31    17    20   ar
    32    18    19   ar
    33    18    22   ar
    34    18    23    1
    35     9    10    1
    36     9    11    1
    37    10    12    1
    38    11     5    1
    39    33    34    1
    40    33    35    1
    41    34    36    1
    42    35    37    1
    43    37    43    1
    44    20    21   ar
    45    21    22   ar
@<TRIPOS>MOLECULE
*****
 43 45 0 0 0
SMALL
GASTEIGER

@<TRIPOS>ATOM
      1 P          21.8862   70.6670   -1.1721 P.3     1  UNL1        0.2189
      2 O          22.9234   69.6846   -0.4119 O.co2   1  UNL1       -0.4371
      3 O          20.8465   71.2950   -0.2908 O.2     1  UNL1       -0.5170
      4 O          21.3221   69.7670   -2.3927 O.3     1  UNL1       -0.3112
      5 C          20.9103   70.4195   -3.5797 C.3     1  UNL1        0.1811
      6 O          19.1421   71.7127   -4.5692 O.3     1  UNL1       -0.3308
      7 O          17.3960   70.6648   -2.3681 O.3     1  UNL1       -0.3794
      8 O          16.6946   69.0942   -4.4841 O.3     1  UNL1       -0.3779
      9 C          18.4507   70.0106   -3.0740 C.3     1  UNL1        0.1713
     10 C          17.9966   69.6411   -4.4702 C.3     1  UNL1        0.1895
     11 C          19.5373   71.0397   -3.3542 C.3     1  UNL1        0.1764
     12 C          18.0781   70.9754   -5.1919 C.3     1  UNL1        0.2383
     13 H          16.6897   70.0272   -2.1778 H       1  UNL1        0.2105
     14 H          16.6953   68.2458   -4.0127 H       1  UNL1        0.2106
     15 O          16.1281   70.5577   -7.1917 O.2     1  UNL1       -0.2464
     16 O          19.3110   70.4144  -10.5222 O.2     1  UNL1       -0.2670
     17 N          18.3696   70.8256   -6.5895 N.ar    1  UNL1       -0.2551
     18 N          17.7153   70.4857   -8.8484 N.ar    1  UNL1       -0.2743
     19 C          17.3166   70.6196   -7.5120 C.ar    1  UNL1        0.3323
     20 C          19.6848   70.8849   -7.0340 C.ar    1  UNL1        0.0869
     21 C          20.0493   70.7557   -8.3112 C.ar    1  UNL1        0.0795
     22 C          19.0102   70.5368   -9.3387 C.ar    1  UNL1        0.2626
     23 H          17.0000   70.3394   -9.5089 H       1  UNL1        0.1734
     24 O          22.8620   71.7187   -1.9168 O.3     1  UNL1       -0.2703
     25 P          22.9410   73.3316   -1.8395 P.3     1  UNL1        0.2208
     26 O          21.4024   73.7878   -2.0515 O.co2   1  UNL1       -0.4371
     27 O          23.9079   73.9480   -2.8085 O.2     1  UNL1       -0.5170
     28 O          23.2508   73.6523   -0.2891 O.3     1  UNL1       -0.2858
     29 O          21.7813   73.7059    1.5674 O.3     1  UNL1       -0.3226
     30 O          24.5629   76.5757    2.6139 O.3     1  UNL1       -0.3794
     31 O          23.5641   76.4112   -0.1265 O.3     1  UNL1       -0.3775
     32 O          24.6173   73.9602    3.8815 O.3     1  UNL1       -0.3792
     33 C          24.0989   75.3732    2.0001 C.3     1  UNL1        0.1718
     34 C          23.0109   75.7066    0.9790 C.3     1  UNL1        0.1968
     35 C          23.5382   74.4674    3.0988 C.3     1  UNL1        0.1723
     36 C          22.3308   74.4352    0.4694 C.3     1  UNL1        0.2706
     37 C          22.7669   73.2897    2.5101 C.3     1  UNL1        0.1830
     38 H          24.9238   77.1672    1.9347 H       1  UNL1        0.2105
     39 H          23.9976   77.2190    0.1896 H       1  UNL1        0.2106
     40 H          25.1164   74.6998    4.2619 H       1  UNL1        0.2106
     41 O          20.8903   71.9752    3.0123 O.co2   1  UNL1       -0.5466
     42 O          22.2133   72.6095    4.7578 O.co2   1  UNL1       -0.5466
     43 C          21.9565   72.6067    3.5632 C.2     1  UNL1        0.0799
@<TRIPOS>UNITY_ATOM_ATTR
2 1
charge -1
26 1
charge -1
41 1
charge -1
@<TRIPOS>BOND
     1     1     4    1
     2     1    24    1
     3     1     2    1
     4     1     3    2
     5    25    28    1
     6    25    24    1
     7    25    26    1
     8    25    27    2
     9     6    11    1
    10     6    12    1
    11    29    36    1
    12    29    37    1
    13     7     9    1
    14     7    13    1
    15     8    10    1
    16     8    14    1
    17     4     5    1
    18    28    36    1
    19    30    33    1
    20    30    38    1
    21    31    34    1
    22    31    39    1
    23    32    35    1
    24    32    40    1
    25    41    43   ar
    26    15    19    2
    27    42    43   ar
    28    16    22    2
    29    17    12    1
    30    17    19   ar
    31    17    20   ar
    32    18    19   ar
    33    18    22   ar
    34    18    23    1
    35     9    10    1
    36     9    11    1
    37    10    12    1
    38    11     5    1
    39    33    34    1
    40    33    35    1
    41    34    36    1
    42    35    37    1
    43    37    43    1
    44    20    21   ar
    45    21    22   ar
@<TRIPOS>MOLECULE
*****
 43 45 0 0 0
SMALL
GASTEIGER

@<TRIPOS>ATOM
      1 P          21.9700   73.6726   -6.0628 P.3     1  UNL1        0.2189
      2 O          22.3721   75.2291   -6.2487 O.co2   1  UNL1       -0.4371
      3 O          22.8199   72.7027   -6.8300 O.2     1  UNL1       -0.5170
      4 O          20.3874   73.6375   -6.3974 O.3     1  UNL1       -0.3112
      5 C          19.9167   74.3657   -7.5166 C.3     1  UNL1        0.1811
      6 O          19.6318   72.0477   -8.0851 O.3     1  UNL1       -0.3308
      7 O          17.9598   73.0085  -10.3814 O.3     1  UNL1       -0.3794
      8 O          16.0831   72.2311   -8.5622 O.3     1  UNL1       -0.3779
      9 C          18.0713   73.5391   -9.0606 C.3     1  UNL1        0.1713
     10 C          17.3406   72.6512   -8.0757 C.3     1  UNL1        0.1895
     11 C          19.5188   73.3867   -8.6138 C.3     1  UNL1        0.1764
     12 C          18.3163   71.4992   -7.9055 C.3     1  UNL1        0.2383
     13 H          17.0433   73.0947  -10.6885 H       1  UNL1        0.2105
     14 H          15.4982   73.0002   -8.6529 H       1  UNL1        0.2106
     15 O          16.1131   69.9948   -6.9788 O.2     1  UNL1       -0.2464
     16 O          18.1106   69.2447   -2.8933 O.2     1  UNL1       -0.2670
     17 N          18.2343   70.8994   -6.6039 N.ar    1  UNL1       -0.2551
     18 N          17.1096   69.6235   -4.9445 N.ar    1  UNL1       -0.2743
     19 C          17.0827   70.1637   -6.2370 C.ar    1  UNL1        0.3323
     20 C          19.2866   71.0409   -5.7074 C.ar    1  UNL1        0.0869
     21 C          19.2978   70.5201   -4.4788 C.ar    1  UNL1        0.0795
     22 C          18.1325   69.7378   -4.0170 C.ar    1  UNL1        0.2626
     23 H          16.3180   69.1088   -4.6657 H       1  UNL1        0.1734
     24 O          22.0066   73.4775   -4.4586 O.3     1  UNL1       -0.2703
     25 P          23.1565   72.8879   -3.4870 P.3     1  UNL1        0.2208
     26 O          24.4325   73.8301   -3.8100 O.co2   1  UNL1       -0.4371
     27 O          23.4134   71.4187   -3.6580 O.2     1  UNL1       -0.5170
     28 O          22.6978   73.3189   -2.0016 O.3     1  UNL1       -0.2858
     29 O          21.5797   71.5832   -0.8414 O.3     1  UNL1       -0.3226
     30 O          21.0725   74.7762    1.7307 O.3     1  UNL1       -0.3794
     31 O          20.7695   75.1347   -1.1527 O.3     1  UNL1       -0.3775
     32 O          23.0170   72.7038    2.3430 O.3     1  UNL1       -0.3792
     33 C          21.7454   73.9875    0.7493 C.3     1  UNL1        0.1718
     34 C          20.8736   73.8738   -0.5015 C.3     1  UNL1        0.1968
     35 C          21.9995   72.6025    1.3486 C.3     1  UNL1        0.1723
     36 C          21.4537   72.8533   -1.4818 C.3     1  UNL1        0.2706
     37 C          22.4557   71.6097    0.2833 C.3     1  UNL1        0.1830
     38 H          20.9004   75.6611    1.3721 H       1  UNL1        0.2105
     39 H          20.4023   75.7871   -0.5364 H       1  UNL1        0.2106
     40 H          22.7392   73.3329    3.0270 H       1  UNL1        0.2106
     41 O          23.3974   69.9643    1.6645 O.co2   1  UNL1       -0.5466
     42 O          21.5302   69.3909    0.4882 O.co2   1  UNL1       -0.5466
     43 C          22.3833   70.2089    0.7980 C.2     1  UNL1        0.0799
@<TRIPOS>UNITY_ATOM_ATTR
2 1
charge -1
26 1
charge -1
41 1
charge -1
@<TRIPOS>BOND
     1     1     4    1
     2     1    24    1
     3     1     2    1
     4     1     3    2
     5    25    28    1
     6    25    24    1
     7    25    26    1
     8    25    27    2
     9     6    11    1
    10     6    12    1
    11    29    36    1
    12    29    37    1
    13     7     9    1
    14     7    13    1
    15     8    10    1
    16     8    14    1
    17     4     5    1
    18    28    36    1
    19    30    33    1
    20    30    38    1
    21    31    34    1
    22    31    39    1
    23    32    35    1
    24    32    40    1
    25    41    43   ar
    26    15    19    2
    27    42    43   ar
    28    16    22    2
    29    17    12    1
    30    17    19   ar
    31    17    20   ar
    32    18    19   ar
    33    18    22   ar
    34    18    23    1
    35     9    10    1
    36     9    11    1
    37    10    12    1
    38    11     5    1
    39    33    34    1
    40    33    35    1
    41    34    36    1
    42    35    37    1
    43    37    43    1
    44    20    21   ar
    45    21    22   ar
@<TRIPOS>MOLECULE
*****
 43 45 0 0 0
SMALL
GASTEIGER

@<TRIPOS>ATOM
      1 P          23.0222   72.0754   -3.2624 P.3     1  UNL1        0.2189
      2 O          23.7770   73.0309   -4.3283 O.co2   1  UNL1       -0.4371
      3 O          23.5531   70.6742   -3.1805 O.2     1  UNL1       -0.5170
      4 O          21.4590   72.2125   -3.6567 O.3     1  UNL1       -0.3112
      5 C          20.6341   71.0659   -3.5597 C.3     1  UNL1        0.1811
      6 O          18.7571   72.0450   -4.6980 O.3     1  UNL1       -0.3308
      7 O          17.0674   70.9118   -2.4952 O.3     1  UNL1       -0.3794
      8 O          16.6747   69.1317   -4.5232 O.3     1  UNL1       -0.3779
      9 C          18.2297   70.3625   -3.1163 C.3     1  UNL1        0.1713
     10 C          17.8913   69.8485   -4.4996 C.3     1  UNL1        0.1895
     11 C          19.1827   71.5087   -3.4266 C.3     1  UNL1        0.1764
     12 C          17.8285   71.1338   -5.3070 C.3     1  UNL1        0.2383
     13 H          16.4435   70.1982   -2.2874 H       1  UNL1        0.2105
     14 H          16.7660   68.3223   -3.9954 H       1  UNL1        0.2106
     15 O          16.0131   70.4934   -7.3736 O.2     1  UNL1       -0.2464
     16 O          19.3637   70.4026  -10.5373 O.2     1  UNL1       -0.2670
     17 N          18.1995   70.9373   -6.6798 N.ar    1  UNL1       -0.2551
     18 N          17.6838   70.4478   -8.9471 N.ar    1  UNL1       -0.2743
     19 C          17.2100   70.6184   -7.6397 C.ar    1  UNL1        0.3323
     20 C          19.5292   71.0622   -7.0637 C.ar    1  UNL1        0.0869
     21 C          19.9655   70.8967   -8.3139 C.ar    1  UNL1        0.0795
     22 C          18.9960   70.5610   -9.3772 C.ar    1  UNL1        0.2626
     23 H          17.0137   70.2232   -9.6326 H       1  UNL1        0.1734
     24 O          23.1247   72.9158   -1.8854 O.3     1  UNL1       -0.2703
     25 P          22.6028   74.3980   -1.5052 P.3     1  UNL1        0.2208
     26 O          21.2513   74.5507   -2.3829 O.co2   1  UNL1       -0.4371
     27 O          23.6140   75.4841   -1.7329 O.2     1  UNL1       -0.5170
     28 O          22.0870   74.2720    0.0181 O.3     1  UNL1       -0.2858
     29 O          21.0944   72.1218    0.0112 O.3     1  UNL1       -0.3226
     30 O          21.0846   73.0393    4.0394 O.3     1  UNL1       -0.3794
     31 O          20.3696   75.0633    2.0578 O.3     1  UNL1       -0.3775
     32 O          23.0260   71.1543    2.9769 O.3     1  UNL1       -0.3792
     33 C          21.5769   73.0591    2.6995 C.3     1  UNL1        0.1718
     34 C          20.5257   73.6771    1.7772 C.3     1  UNL1        0.1968
     35 C          21.8693   71.6162    2.2817 C.3     1  UNL1        0.1723
     36 C          20.9185   73.5074    0.3089 C.3     1  UNL1        0.2706
     37 C          22.1279   71.5122    0.7814 C.3     1  UNL1        0.1830
     38 H          20.8917   73.9457    4.3266 H       1  UNL1        0.2105
     39 H          20.1206   75.1784    2.9879 H       1  UNL1        0.2106
     40 H          22.8745   71.2155    3.9330 H       1  UNL1        0.2106
     41 O          20.9526   69.8419   -0.3718 O.co2   1  UNL1       -0.5466
     42 O          22.9469   69.2532    0.5636 O.co2   1  UNL1       -0.5466
     43 C          22.0846   70.0876    0.3332 C.2     1  UNL1        0.0799
@<TRIPOS>UNITY_ATOM_ATTR
2 1
charge -1
26 1
charge -1
41 1
charge -1
@<TRIPOS>BOND
     1     1     4    1
     2     1    24    1
     3     1     2    1
     4     1     3    2
     5    25    28    1
     6    25    24    1
     7    25    26    1
     8    25    27    2
     9     6    11    1
    10     6    12    1
    11    29    36    1
    12    29    37    1
    13     7     9    1
    14     7    13    1
    15     8    10    1
    16     8    14    1
    17     4     5    1
    18    28    36    1
    19    30    33    1
    20    30    38    1
    21    31    34    1
    22    31    39    1
    23    32    35    1
    24    32    40    1
    25    41    43   ar
    26    15    19    2
    27    42    43   ar
    28    16    22    2
    29    17    12    1
    30    17    19   ar
    31    17    20   ar
    32    18    19   ar
    33    18    22   ar
    34    18    23    1
    35     9    10    1
    36     9    11    1
    37    10    12    1
    38    11     5    1
    39    33    34    1
    40    33    35    1
    41    34    36    1
    42    35    37    1
    43    37    43    1
    44    20    21   ar
    45    21    22   ar
@<TRIPOS>MOLECULE
*****
 43 45 0 0 0
SMALL
GASTEIGER

@<TRIPOS>ATOM
      1 P          22.9832   72.0214   -3.2098 P.3     1  UNL1        0.2189
      2 O          23.8614   72.9422   -4.2096 O.co2   1  UNL1       -0.4371
      3 O          23.5323   70.6458   -2.9689 O.2     1  UNL1       -0.5170
      4 O          21.4918   72.0831   -3.8342 O.3     1  UNL1       -0.3112
      5 C          20.6517   70.9524   -3.6914 C.3     1  UNL1        0.1811
      6 O          18.7857   71.9808   -4.8041 O.3     1  UNL1       -0.3308
      7 O          17.0904   70.8536   -2.6026 O.3     1  UNL1       -0.3794
      8 O          16.6492   69.1059   -4.6488 O.3     1  UNL1       -0.3779
      9 C          18.2375   70.2897   -3.2388 C.3     1  UNL1        0.1713
     10 C          17.8795   69.7990   -4.6256 C.3     1  UNL1        0.1895
     11 C          19.2100   71.4212   -3.5424 C.3     1  UNL1        0.1764
     12 C          17.8356   71.0949   -5.4172 C.3     1  UNL1        0.2383
     13 H          16.4544   70.1496   -2.3989 H       1  UNL1        0.2105
     14 H          16.7288   68.2886   -4.1314 H       1  UNL1        0.2106
     15 O          16.0115   70.3969   -7.4573 O.2     1  UNL1       -0.2464
     16 O          19.3184   70.4037  -10.6680 O.2     1  UNL1       -0.2670
     17 N          18.1930   70.9079   -6.7949 N.ar    1  UNL1       -0.2551
     18 N          17.6604   70.4000   -9.0542 N.ar    1  UNL1       -0.2743
     19 C          17.2002   70.5579   -7.7404 C.ar    1  UNL1        0.3323
     20 C          19.5127   71.0726   -7.1976 C.ar    1  UNL1        0.0869
     21 C          19.9362   70.9188   -8.4537 C.ar    1  UNL1        0.0795
     22 C          18.9624   70.5524   -9.5029 C.ar    1  UNL1        0.2626
     23 H          16.9879   70.1543   -9.7300 H       1  UNL1        0.1734
     24 O          22.8606   72.9391   -1.8848 O.3     1  UNL1       -0.2703
     25 P          22.0933   72.6848   -0.4848 P.3     1  UNL1        0.2208
     26 O          22.9398   71.4798    0.1873 O.co2   1  UNL1       -0.4371
     27 O          20.6256   72.4039   -0.6291 O.2     1  UNL1       -0.5170
     28 O          22.4423   73.9782    0.4140 O.3     1  UNL1       -0.2858
     29 O          24.5226   74.8363   -0.3241 O.3     1  UNL1       -0.3226
     30 O          23.5649   77.4579    2.7219 O.3     1  UNL1       -0.3794
     31 O          23.1177   74.5888    3.0421 O.3     1  UNL1       -0.3775
     32 O          23.2693   78.2740   -0.0526 O.3     1  UNL1       -0.3792
     33 C          23.3005   76.5620    1.6424 C.3     1  UNL1        0.1718
     34 C          23.8564   75.1779    1.9782 C.3     1  UNL1        0.1968
     35 C          23.9794   77.1184    0.3888 C.3     1  UNL1        0.1723
     36 C          23.7981   74.2546    0.7604 C.3     1  UNL1        0.2706
     37 C          23.9911   76.0922   -0.7405 C.3     1  UNL1        0.1830
     38 H          23.1432   77.1247    3.5296 H       1  UNL1        0.2105
     39 H          23.1503   75.1695    3.8181 H       1  UNL1        0.2106
     40 H          23.2543   78.9350    0.6571 H       1  UNL1        0.2106
     41 O          25.8487   75.5421   -2.0627 O.co2   1  UNL1       -0.5466
     42 O          24.8777   77.5729   -2.4266 O.co2   1  UNL1       -0.5466
     43 C          24.9282   76.5096   -1.8267 C.2     1  UNL1        0.0799
@<TRIPOS>UNITY_ATOM_ATTR
2 1
charge -1
26 1
charge -1
41 1
charge -1
@<TRIPOS>BOND
     1     1     4    1
     2     1    24    1
     3     1     2    1
     4     1     3    2
     5    25    28    1
     6    25    24    1
     7    25    26    1
     8    25    27    2
     9     6    11    1
    10     6    12    1
    11    29    36    1
    12    29    37    1
    13     7     9    1
    14     7    13    1
    15     8    10    1
    16     8    14    1
    17     4     5    1
    18    28    36    1
    19    30    33    1
    20    30    38    1
    21    31    34    1
    22    31    39    1
    23    32    35    1
    24    32    40    1
    25    41    43   ar
    26    15    19    2
    27    42    43   ar
    28    16    22    2
    29    17    12    1
    30    17    19   ar
    31    17    20   ar
    32    18    19   ar
    33    18    22   ar
    34    18    23    1
    35     9    10    1
    36     9    11    1
    37    10    12    1
    38    11     5    1
    39    33    34    1
    40    33    35    1
    41    34    36    1
    42    35    37    1
    43    37    43    1
    44    20    21   ar
    45    21    22   ar
@<TRIPOS>MOLECULE
*****
 43 45 0 0 0
SMALL
GASTEIGER

@<TRIPOS>ATOM
      1 P          23.0201   71.8673   -3.1542 P.3     1  UNL1        0.2189
      2 O          23.8503   72.9412   -4.0353 O.co2   1  UNL1       -0.4371
      3 O          23.5805   70.4752   -3.1592 O.2     1  UNL1       -0.5170
      4 O          21.5011   72.0152   -3.6915 O.3     1  UNL1       -0.3112
      5 C          20.6501   70.8852   -3.6328 C.3     1  UNL1        0.1811
      6 O          18.7946   71.9377   -4.7405 O.3     1  UNL1       -0.3308
      7 O          17.0818   70.7815   -2.5677 O.3     1  UNL1       -0.3794
      8 O          16.6475   69.0680   -4.6441 O.3     1  UNL1       -0.3779
      9 C          18.2309   70.2238   -3.2057 C.3     1  UNL1        0.1713
     10 C          17.8799   69.7564   -4.6023 C.3     1  UNL1        0.1895
     11 C          19.2092   71.3566   -3.4852 C.3     1  UNL1        0.1764
     12 C          17.8453   71.0649   -5.3734 C.3     1  UNL1        0.2383
     13 H          16.4422   70.0765   -2.3791 H       1  UNL1        0.2105
     14 H          16.7211   68.2424   -4.1394 H       1  UNL1        0.2106
     15 O          16.0230   70.4594   -7.4443 O.2     1  UNL1       -0.2464
     16 O          19.3589   70.4493  -10.6248 O.2     1  UNL1       -0.2670
     17 N          18.2107   70.8986   -6.7517 N.ar    1  UNL1       -0.2551
     18 N          17.6864   70.4539   -9.0263 N.ar    1  UNL1       -0.2743
     19 C          17.2180   70.5952   -7.7134 C.ar    1  UNL1        0.3323
     20 C          19.5379   71.0374   -7.1391 C.ar    1  UNL1        0.0869
     21 C          19.9691   70.8999   -8.3944 C.ar    1  UNL1        0.0795
     22 C          18.9960   70.5820   -9.4600 C.ar    1  UNL1        0.2626
     23 H          17.0140   70.2406   -9.7131 H       1  UNL1        0.1734
     24 O          22.9593   72.5634   -1.6966 O.3     1  UNL1       -0.2703
     25 P          22.3318   72.0469   -0.2990 P.3     1  UNL1        0.2208
     26 O          23.2427   70.7583    0.0617 O.co2   1  UNL1       -0.4371
     27 O          20.8578   71.7669   -0.3520 O.2     1  UNL1       -0.5170
     28 O          22.7625   73.1652    0.7811 O.3     1  UNL1       -0.2858
     29 O          21.1321   74.8654    0.5360 O.3     1  UNL1       -0.3226
     30 O          23.2956   76.2363    3.7776 O.3     1  UNL1       -0.3794
     31 O          24.6606   75.0782    1.4689 O.3     1  UNL1       -0.3775
     32 O          20.6770   75.0371    4.1727 O.3     1  UNL1       -0.3792
     33 C          22.7210   75.2540    2.9156 C.3     1  UNL1        0.1718
     34 C          23.2805   75.4227    1.5028 C.3     1  UNL1        0.1968
     35 C          21.2039   75.4549    2.9148 C.3     1  UNL1        0.1723
     36 C          22.5232   74.5443    0.5060 C.3     1  UNL1        0.2706
     37 C          20.5348   74.6408    1.8111 C.3     1  UNL1        0.1830
     38 H          24.2596   76.1282    3.7940 H       1  UNL1        0.2105
     39 H          25.1472   75.6316    2.0993 H       1  UNL1        0.2106
     40 H          21.0949   75.5474    4.8839 H       1  UNL1        0.2106
     41 O          18.9385   75.5119    0.3296 O.co2   1  UNL1       -0.5466
     42 O          18.2509   75.0719    2.4586 O.co2   1  UNL1       -0.5466
     43 C          19.1240   75.0870    1.6039 C.2     1  UNL1        0.0799
@<TRIPOS>UNITY_ATOM_ATTR
2 1
charge -1
26 1
charge -1
41 1
charge -1
@<TRIPOS>BOND
     1     1     4    1
     2     1    24    1
     3     1     2    1
     4     1     3    2
     5    25    28    1
     6    25    24    1
     7    25    26    1
     8    25    27    2
     9     6    11    1
    10     6    12    1
    11    29    36    1
    12    29    37    1
    13     7     9    1
    14     7    13    1
    15     8    10    1
    16     8    14    1
    17     4     5    1
    18    28    36    1
    19    30    33    1
    20    30    38    1
    21    31    34    1
    22    31    39    1
    23    32    35    1
    24    32    40    1
    25    41    43   ar
    26    15    19    2
    27    42    43   ar
    28    16    22    2
    29    17    12    1
    30    17    19   ar
    31    17    20   ar
    32    18    19   ar
    33    18    22   ar
    34    18    23    1
    35     9    10    1
    36     9    11    1
    37    10    12    1
    38    11     5    1
    39    33    34    1
    40    33    35    1
    41    34    36    1
    42    35    37    1
    43    37    43    1
    44    20    21   ar
    45    21    22   ar
@<TRIPOS>MOLECULE
*****
 43 45 0 0 0
SMALL
GASTEIGER

@<TRIPOS>ATOM
      1 P          21.9676   70.7760   -1.3912 P.3     1  UNL1        0.2189
      2 O          22.8632   69.8911   -0.3745 O.co2   1  UNL1       -0.4371
      3 O          21.0217   71.7358   -0.7311 O.2     1  UNL1       -0.5170
      4 O          21.2879   69.6782   -2.3663 O.3     1  UNL1       -0.3112
      5 C          20.7778   70.1071   -3.6155 C.3     1  UNL1        0.1811
      6 O          19.1043   71.5295   -4.5922 O.3     1  UNL1       -0.3308
      7 O          17.2590   70.5093   -2.4602 O.3     1  UNL1       -0.3794
      8 O          16.5140   69.0511   -4.6408 O.3     1  UNL1       -0.3779
      9 C          18.2897   69.8205   -3.1686 C.3     1  UNL1        0.1713
     10 C          17.8438   69.5233   -4.5847 C.3     1  UNL1        0.1895
     11 C          19.4372   70.7956   -3.3939 C.3     1  UNL1        0.1764
     12 C          18.0137   70.8740   -5.2588 C.3     1  UNL1        0.2383
     13 H          16.5148   69.9063   -2.3045 H       1  UNL1        0.2105
     14 H          16.4581   68.1890   -4.1986 H       1  UNL1        0.2106
     15 O          16.0908   70.5060   -7.2944 O.2     1  UNL1       -0.2464
     16 O          19.3196   70.4273  -10.5826 O.2     1  UNL1       -0.2670
     17 N          18.3243   70.7543   -6.6553 N.ar    1  UNL1       -0.2551
     18 N          17.7009   70.4662   -8.9301 N.ar    1  UNL1       -0.2743
     19 C          17.2838   70.5716   -7.5966 C.ar    1  UNL1        0.3323
     20 C          19.6458   70.8197   -7.0800 C.ar    1  UNL1        0.0869
     21 C          20.0278   70.7177   -8.3545 C.ar    1  UNL1        0.0795
     22 C          19.0026   70.5244   -9.4010 C.ar    1  UNL1        0.2626
     23 H          16.9945   70.3364   -9.6035 H       1  UNL1        0.1734
     24 O          23.0761   71.4694   -2.3417 O.3     1  UNL1       -0.2703
     25 P          23.1812   72.9725   -2.9276 P.3     1  UNL1        0.2208
     26 O          21.6360   73.3745   -3.1941 O.co2   1  UNL1       -0.4371
     27 O          24.0706   73.1039   -4.1300 O.2     1  UNL1       -0.5170
     28 O          23.6246   73.8738   -1.6653 O.3     1  UNL1       -0.2858
     29 O          24.3416   76.1224   -1.8625 O.3     1  UNL1       -0.3226
     30 O          21.6000   75.8413   -4.9402 O.3     1  UNL1       -0.3794
     31 O          21.0359   74.6353   -2.3399 O.3     1  UNL1       -0.3775
     32 O          24.4490   75.8309   -5.5184 O.3     1  UNL1       -0.3792
     33 C          22.6028   75.3682   -4.0410 C.3     1  UNL1        0.1718
     34 C          22.1144   75.5261   -2.6009 C.3     1  UNL1        0.1968
     35 C          23.8696   76.1964   -4.2673 C.3     1  UNL1        0.1723
     36 C          23.2426   75.2469   -1.6069 C.3     1  UNL1        0.2706
     37 C          24.8970   75.9554   -3.1651 C.3     1  UNL1        0.1830
     38 H          20.7854   75.3296   -4.8146 H       1  UNL1        0.2105
     39 H          20.3166   74.8067   -2.9672 H       1  UNL1        0.2106
     40 H          23.8051   75.9794   -6.2285 H       1  UNL1        0.2106
     41 O          26.5637   77.1168   -1.9926 O.co2   1  UNL1       -0.5466
     42 O          26.2845   77.6397   -4.1944 O.co2   1  UNL1       -0.5466
     43 C          25.9725   76.9916   -3.2066 C.2     1  UNL1        0.0799
@<TRIPOS>UNITY_ATOM_ATTR
2 1
charge -1
26 1
charge -1
41 1
charge -1
@<TRIPOS>BOND
     1     1     4    1
     2     1    24    1
     3     1     2    1
     4     1     3    2
     5    25    28    1
     6    25    24    1
     7    25    26    1
     8    25    27    2
     9     6    11    1
    10     6    12    1
    11    29    36    1
    12    29    37    1
    13     7     9    1
    14     7    13    1
    15     8    10    1
    16     8    14    1
    17     4     5    1
    18    28    36    1
    19    30    33    1
    20    30    38    1
    21    31    34    1
    22    31    39    1
    23    32    35    1
    24    32    40    1
    25    41    43   ar
    26    15    19    2
    27    42    43   ar
    28    16    22    2
    29    17    12    1
    30    17    19   ar
    31    17    20   ar
    32    18    19   ar
    33    18    22   ar
    34    18    23    1
    35     9    10    1
    36     9    11    1
    37    10    12    1
    38    11     5    1
    39    33    34    1
    40    33    35    1
    41    34    36    1
    42    35    37    1
    43    37    43    1
    44    20    21   ar
    45    21    22   ar
@<TRIPOS>MOLECULE
*****
 43 45 0 0 0
SMALL
GASTEIGER

@<TRIPOS>ATOM
      1 P          22.2913   71.4969   -1.5519 P.3     1  UNL1        0.2189
      2 O          22.8728   72.5848   -2.5994 O.co2   1  UNL1       -0.4371
      3 O          23.2066   70.3435   -1.2629 O.2     1  UNL1       -0.5170
      4 O          20.8424   71.1091   -2.1587 O.3     1  UNL1       -0.3112
      5 C          20.4119   71.7519   -3.3445 C.3     1  UNL1        0.1811
      6 O          18.4539   72.4528   -4.5497 O.3     1  UNL1       -0.3308
      7 O          16.8690   71.1536   -2.3606 O.3     1  UNL1       -0.3794
      8 O          16.7657   69.2959   -4.3542 O.3     1  UNL1       -0.3779
      9 C          18.1091   70.7487   -2.9410 C.3     1  UNL1        0.1713
     10 C          17.8774   70.1663   -4.3192 C.3     1  UNL1        0.1895
     11 C          18.9121   72.0033   -3.2562 C.3     1  UNL1        0.1764
     12 C          17.6687   71.4153   -5.1584 C.3     1  UNL1        0.2383
     13 H          16.3383   70.3688   -2.1506 H       1  UNL1        0.2105
     14 H          16.9480   68.5165   -3.8052 H       1  UNL1        0.2106
     15 O          16.0610   70.3331   -7.2128 O.2     1  UNL1       -0.2464
     16 O          19.4211   70.7924  -10.3341 O.2     1  UNL1       -0.2670
     17 N          18.0982   71.2408   -6.5170 N.ar    1  UNL1       -0.2551
     18 N          17.7364   70.5619   -8.7652 N.ar    1  UNL1       -0.2743
     19 C          17.2126   70.6874   -7.4717 C.ar    1  UNL1        0.3323
     20 C          19.3822   71.6171   -6.8922 C.ar    1  UNL1        0.0869
     21 C          19.8671   71.4915   -8.1291 C.ar    1  UNL1        0.0795
     22 C          19.0065   70.9213   -9.1862 C.ar    1  UNL1        0.2626
     23 H          17.1390   70.1773   -9.4468 H       1  UNL1        0.1734
     24 O          21.9163   72.3982   -0.2635 O.3     1  UNL1       -0.2703
     25 P          22.4191   73.8671    0.1870 P.3     1  UNL1        0.2208
     26 O          21.3039   74.8517   -0.4512 O.co2   1  UNL1       -0.4371
     27 O          23.8295   74.1860   -0.2171 O.2     1  UNL1       -0.5170
     28 O          22.1494   73.9224    1.7765 O.3     1  UNL1       -0.2858
     29 O          24.0185   73.6548    3.2061 O.3     1  UNL1       -0.3226
     30 O          20.8711   73.1779    5.8394 O.3     1  UNL1       -0.3794
     31 O          20.7821   71.9542    3.1881 O.3     1  UNL1       -0.3775
     32 O          22.3882   75.6576    5.8124 O.3     1  UNL1       -0.3792
     33 C          21.5434   73.6986    4.6927 C.3     1  UNL1        0.1718
     34 C          21.9387   72.5491    3.7653 C.3     1  UNL1        0.1968
     35 C          22.7887   74.4467    5.1737 C.3     1  UNL1        0.1723
     36 C          22.8574   73.0405    2.6458 C.3     1  UNL1        0.2706
     37 C          23.7151   74.7917    4.0112 C.3     1  UNL1        0.1830
     38 H          20.0761   72.6981    5.5582 H       1  UNL1        0.2105
     39 H          20.1946   71.6404    3.8929 H       1  UNL1        0.2106
     40 H          21.7980   75.4520    6.5542 H       1  UNL1        0.2106
     41 O          25.6741   74.1953    5.1549 O.co2   1  UNL1       -0.5466
     42 O          25.5414   76.3290    4.3618 O.co2   1  UNL1       -0.5466
     43 C          25.0574   75.2170    4.5108 C.2     1  UNL1        0.0799
@<TRIPOS>UNITY_ATOM_ATTR
2 1
charge -1
26 1
charge -1
41 1
charge -1
@<TRIPOS>BOND
     1     1     4    1
     2     1    24    1
     3     1     2    1
     4     1     3    2
     5    25    28    1
     6    25    24    1
     7    25    26    1
     8    25    27    2
     9     6    11    1
    10     6    12    1
    11    29    36    1
    12    29    37    1
    13     7     9    1
    14     7    13    1
    15     8    10    1
    16     8    14    1
    17     4     5    1
    18    28    36    1
    19    30    33    1
    20    30    38    1
    21    31    34    1
    22    31    39    1
    23    32    35    1
    24    32    40    1
    25    41    43   ar
    26    15    19    2
    27    42    43   ar
    28    16    22    2
    29    17    12    1
    30    17    19   ar
    31    17    20   ar
    32    18    19   ar
    33    18    22   ar
    34    18    23    1
    35     9    10    1
    36     9    11    1
    37    10    12    1
    38    11     5    1
    39    33    34    1
    40    33    35    1
    41    34    36    1
    42    35    37    1
    43    37    43    1
    44    20    21   ar
    45    21    22   ar
@<TRIPOS>MOLECULE
*****
 43 45 0 0 0
SMALL
GASTEIGER

@<TRIPOS>ATOM
      1 P          22.0801   70.8803   -1.4666 P.3     1  UNL1        0.2189
      2 O          23.0517   70.0515   -0.4725 O.co2   1  UNL1       -0.4371
      3 O          21.1980   71.8906   -0.7935 O.2     1  UNL1       -0.5170
      4 O          21.3152   69.7307   -2.3099 O.3     1  UNL1       -0.3112
      5 C          20.7613   70.0704   -3.5678 C.3     1  UNL1        0.1811
      6 O          19.1184   71.5278   -4.5449 O.3     1  UNL1       -0.3308
      7 O          17.2451   70.5306   -2.4264 O.3     1  UNL1       -0.3794
      8 O          16.4839   69.0971   -4.6177 O.3     1  UNL1       -0.3779
      9 C          18.2664   69.8268   -3.1337 C.3     1  UNL1        0.1713
     10 C          17.8218   69.5448   -4.5532 C.3     1  UNL1        0.1895
     11 C          19.4324   70.7820   -3.3488 C.3     1  UNL1        0.1764
     12 C          18.0192   70.8956   -5.2198 C.3     1  UNL1        0.2383
     13 H          16.4894   69.9405   -2.2772 H       1  UNL1        0.2105
     14 H          16.4104   68.2339   -4.1802 H       1  UNL1        0.2106
     15 O          16.1063   70.4871   -7.2570 O.2     1  UNL1       -0.2464
     16 O          19.3410   70.4561  -10.5402 O.2     1  UNL1       -0.2670
     17 N          18.3340   70.7771   -6.6154 N.ar    1  UNL1       -0.2551
     18 N          17.7193   70.4710   -8.8902 N.ar    1  UNL1       -0.2743
     19 C          17.2984   70.5730   -7.5577 C.ar    1  UNL1        0.3323
     20 C          19.6548   70.8648   -7.0384 C.ar    1  UNL1        0.0869
     21 C          20.0405   70.7657   -8.3120 C.ar    1  UNL1        0.0795
     22 C          19.0205   70.5511   -9.3594 C.ar    1  UNL1        0.2626
     23 H          17.0164   70.3267   -9.5643 H       1  UNL1        0.1734
     24 O          23.1100   71.4996   -2.5476 O.3     1  UNL1       -0.2703
     25 P          23.1372   72.9383   -3.2845 P.3     1  UNL1        0.2208
     26 O          21.6147   73.4644   -3.1252 O.co2   1  UNL1       -0.4371
     27 O          23.6315   72.8951   -4.7015 O.2     1  UNL1       -0.5170
     28 O          23.9998   73.8845   -2.3032 O.3     1  UNL1       -0.2858
     29 O          23.8255   76.1393   -1.5998 O.3     1  UNL1       -0.3226
     30 O          27.9072   75.7227   -2.0834 O.3     1  UNL1       -0.3794
     31 O          26.0602   74.5800   -4.0372 O.3     1  UNL1       -0.3775
     32 O          26.7487   75.7477    0.5827 O.3     1  UNL1       -0.3792
     33 C          26.5806   75.2932   -1.7774 C.3     1  UNL1        0.1718
     34 C          25.6860   75.4824   -3.0027 C.3     1  UNL1        0.1968
     35 C          26.0680   76.1375   -0.6086 C.3     1  UNL1        0.1723
     36 C          24.2164   75.2516   -2.6480 C.3     1  UNL1        0.2706
     37 C          24.5687   75.9460   -0.3985 C.3     1  UNL1        0.1830
     38 H          28.2538   75.2001   -2.8237 H       1  UNL1        0.2105
     39 H          26.9917   74.7207   -4.2671 H       1  UNL1        0.2106
     40 H          27.7041   75.8645    0.4622 H       1  UNL1        0.2106
     41 O          22.6839   77.1367    0.3302 O.co2   1  UNL1       -0.5466
     42 O          24.6800   77.6515    1.3045 O.co2   1  UNL1       -0.5466
     43 C          24.0212   76.9999    0.5081 C.2     1  UNL1        0.0799
@<TRIPOS>UNITY_ATOM_ATTR
2 1
charge -1
26 1
charge -1
41 1
charge -1
@<TRIPOS>BOND
     1     1     4    1
     2     1    24    1
     3     1     2    1
     4     1     3    2
     5    25    28    1
     6    25    24    1
     7    25    26    1
     8    25    27    2
     9     6    11    1
    10     6    12    1
    11    29    36    1
    12    29    37    1
    13     7     9    1
    14     7    13    1
    15     8    10    1
    16     8    14    1
    17     4     5    1
    18    28    36    1
    19    30    33    1
    20    30    38    1
    21    31    34    1
    22    31    39    1
    23    32    35    1
    24    32    40    1
    25    41    43   ar
    26    15    19    2
    27    42    43   ar
    28    16    22    2
    29    17    12    1
    30    17    19   ar
    31    17    20   ar
    32    18    19   ar
    33    18    22   ar
    34    18    23    1
    35     9    10    1
    36     9    11    1
    37    10    12    1
    38    11     5    1
    39    33    34    1
    40    33    35    1
    41    34    36    1
    42    35    37    1
    43    37    43    1
    44    20    21   ar
    45    21    22   ar
@<TRIPOS>MOLECULE
*****
 43 45 0 0 0
SMALL
GASTEIGER

@<TRIPOS>ATOM
      1 P          22.1944   73.1918   -4.1797 P.3     1  UNL1        0.2189
      2 O          21.8212   74.2075   -2.9764 O.co2   1  UNL1       -0.4371
      3 O          23.6133   73.2743   -4.6612 O.2     1  UNL1       -0.5170
      4 O          21.0565   73.4753   -5.2945 O.3     1  UNL1       -0.3112
      5 C          20.7334   74.8184   -5.6045 C.3     1  UNL1        0.1811
      6 O          20.4826   73.7651   -7.7505 O.3     1  UNL1       -0.3308
      7 O          20.3366   76.5365   -8.8861 O.3     1  UNL1       -0.3794
      8 O          17.7170   75.7822   -8.8167 O.3     1  UNL1       -0.3779
      9 C          19.8324   76.0404   -7.6459 C.3     1  UNL1        0.1713
     10 C          18.5984   75.1955   -7.8822 C.3     1  UNL1        0.1895
     11 C          20.8233   75.0149   -7.1124 C.3     1  UNL1        0.1764
     12 C          19.1992   73.8930   -8.3827 C.3     1  UNL1        0.2383
     13 H          19.7202   77.1936   -9.2465 H       1  UNL1        0.2105
     14 H          17.3612   76.6079   -8.4513 H       1  UNL1        0.2106
     15 O          18.8995   71.6095  -10.0175 O.2     1  UNL1       -0.2464
     16 O          16.0913   69.5781   -6.9792 O.2     1  UNL1       -0.2670
     17 N          18.3957   72.7528   -8.0432 N.ar    1  UNL1       -0.2551
     18 N          17.5003   70.6004   -8.5031 N.ar    1  UNL1       -0.2743
     19 C          18.3125   71.6573   -8.9349 C.ar    1  UNL1        0.3323
     20 C          17.7027   72.7264   -6.8391 C.ar    1  UNL1        0.0869
     21 C          16.9327   71.7118   -6.4412 C.ar    1  UNL1        0.0795
     22 C          16.7912   70.5286   -7.3150 C.ar    1  UNL1        0.2626
     23 H          17.4252   69.8272   -9.1080 H       1  UNL1        0.1734
     24 O          21.7683   71.7509   -3.5837 O.3     1  UNL1       -0.2703
     25 P          20.6473   71.3430   -2.4925 P.3     1  UNL1        0.2208
     26 O          20.8746   69.7512   -2.3062 O.co2   1  UNL1       -0.4371
     27 O          19.2473   71.7273   -2.8748 O.2     1  UNL1       -0.5170
     28 O          21.1662   71.9930   -1.1102 O.3     1  UNL1       -0.2858
     29 O          23.3128   72.7936   -0.5100 O.3     1  UNL1       -0.3226
     30 O          21.9095   71.3617    3.1022 O.3     1  UNL1       -0.3794
     31 O          21.4703   69.8525    0.6397 O.3     1  UNL1       -0.3775
     32 O          21.9781   74.2232    2.5943 O.3     1  UNL1       -0.3792
     33 C          21.8081   71.9526    1.8066 C.3     1  UNL1        0.1718
     34 C          22.3362   70.9756    0.7558 C.3     1  UNL1        0.1968
     35 C          22.6409   73.2365    1.8059 C.3     1  UNL1        0.1723
     36 C          22.4581   71.6538   -0.6095 C.3     1  UNL1        0.2706
     37 C          22.8219   73.7823    0.3925 C.3     1  UNL1        0.1830
     38 H          21.3880   70.5439    3.1265 H       1  UNL1        0.2105
     39 H          21.3881   69.4175    1.5025 H       1  UNL1        0.2106
     40 H          21.8565   73.8882    3.4964 H       1  UNL1        0.2106
     41 O          24.4131   74.9373   -0.8865 O.co2   1  UNL1       -0.5466
     42 O          24.2478   75.4943    1.3184 O.co2   1  UNL1       -0.5466
     43 C          23.8902   74.8263    0.3598 C.2     1  UNL1        0.0799
@<TRIPOS>UNITY_ATOM_ATTR
2 1
charge -1
26 1
charge -1
41 1
charge -1
@<TRIPOS>BOND
     1     1     4    1
     2     1    24    1
     3     1     2    1
     4     1     3    2
     5    25    28    1
     6    25    24    1
     7    25    26    1
     8    25    27    2
     9     6    11    1
    10     6    12    1
    11    29    36    1
    12    29    37    1
    13     7     9    1
    14     7    13    1
    15     8    10    1
    16     8    14    1
    17     4     5    1
    18    28    36    1
    19    30    33    1
    20    30    38    1
    21    31    34    1
    22    31    39    1
    23    32    35    1
    24    32    40    1
    25    41    43   ar
    26    15    19    2
    27    42    43   ar
    28    16    22    2
    29    17    12    1
    30    17    19   ar
    31    17    20   ar
    32    18    19   ar
    33    18    22   ar
    34    18    23    1
    35     9    10    1
    36     9    11    1
    37    10    12    1
    38    11     5    1
    39    33    34    1
    40    33    35    1
    41    34    36    1
    42    35    37    1
    43    37    43    1
    44    20    21   ar
    45    21    22   ar
@<TRIPOS>MOLECULE
*****
 43 45 0 0 0
SMALL
GASTEIGER

@<TRIPOS>ATOM
      1 P          23.0994   72.5754   -3.3811 P.3     1  UNL1        0.2189
      2 O          23.1702   70.9587   -3.3752 O.co2   1  UNL1       -0.4371
      3 O          24.2200   73.2560   -4.1111 O.2     1  UNL1       -0.5170
      4 O          22.9414   72.9631   -1.8182 O.3     1  UNL1       -0.3112
      5 C          22.6030   71.9409   -0.8989 C.3     1  UNL1        0.1811
      6 O          21.3266   72.2121    1.1198 O.3     1  UNL1       -0.3308
      7 O          19.2725   73.5800   -0.5835 O.3     1  UNL1       -0.3794
      8 O          20.5605   75.6750    0.5947 O.3     1  UNL1       -0.3779
      9 C          20.6964   73.6116   -0.6844 C.3     1  UNL1        0.1713
     10 C          21.2807   74.4735    0.4146 C.3     1  UNL1        0.1895
     11 C          21.2238   72.2304   -0.3205 C.3     1  UNL1        0.1764
     12 C          21.1915   73.5521    1.6192 C.3     1  UNL1        0.2383
     13 H          18.9125   74.4518   -0.8115 H       1  UNL1        0.2105
     14 H          20.6487   76.2268   -0.1988 H       1  UNL1        0.2106
     15 O          23.6965   74.6965    0.9932 O.2     1  UNL1       -0.2464
     16 O          25.1053   74.4584    5.3753 O.2     1  UNL1       -0.2670
     17 N          22.2314   73.8004    2.5772 N.ar    1  UNL1       -0.2551
     18 N          24.3962   74.5759    3.1762 N.ar    1  UNL1       -0.2743
     19 C          23.4529   74.3793    2.1589 C.ar    1  UNL1        0.3323
     20 C          22.0359   73.4734    3.9135 C.ar    1  UNL1        0.0869
     21 C          22.9443   73.6669    4.8717 C.ar    1  UNL1        0.0795
     22 C          24.2478   74.2663    4.5185 C.ar    1  UNL1        0.2626
     23 H          25.2552   74.9757    2.9089 H       1  UNL1        0.1734
     24 O          21.6275   72.8720   -3.9797 O.3     1  UNL1       -0.2703
     25 P          21.1458   73.2423   -5.4778 P.3     1  UNL1        0.2208
     26 O          22.1997   72.4452   -6.4129 O.co2   1  UNL1       -0.4371
     27 O          21.0669   74.7162   -5.7527 O.2     1  UNL1       -0.5170
     28 O          19.7532   72.4504   -5.6675 O.3     1  UNL1       -0.2858
     29 O          19.9083   70.1450   -5.1478 O.3     1  UNL1       -0.3226
     30 O          16.1147   70.3887   -6.7655 O.3     1  UNL1       -0.3794
     31 O          18.3398   71.8379   -7.9833 O.3     1  UNL1       -0.3775
     32 O          16.4614   70.1348   -3.8904 O.3     1  UNL1       -0.3792
     33 C          17.2576   70.8538   -6.0477 C.3     1  UNL1        0.1718
     34 C          18.4775   70.8492   -6.9693 C.3     1  UNL1        0.1968
     35 C          17.4843   69.9157   -4.8600 C.3     1  UNL1        0.1723
     36 C          19.7598   71.1196   -6.1810 C.3     1  UNL1        0.2706
     37 C          18.8394   70.1646   -4.2042 C.3     1  UNL1        0.1830
     38 H          15.9512   70.9696   -7.5251 H       1  UNL1        0.2105
     39 H          17.5280   71.6726   -8.4873 H       1  UNL1        0.2106
     40 H          15.5936   69.9798   -4.2951 H       1  UNL1        0.2106
     41 O          19.6392   69.5357   -2.0909 O.co2   1  UNL1       -0.5466
     42 O          19.0915   67.8597   -3.5366 O.co2   1  UNL1       -0.5466
     43 C          19.1919   69.0490   -3.2749 C.2     1  UNL1        0.0799
@<TRIPOS>UNITY_ATOM_ATTR
2 1
charge -1
26 1
charge -1
41 1
charge -1
@<TRIPOS>BOND
     1     1     4    1
     2     1    24    1
     3     1     2    1
     4     1     3    2
     5    25    28    1
     6    25    24    1
     7    25    26    1
     8    25    27    2
     9     6    11    1
    10     6    12    1
    11    29    36    1
    12    29    37    1
    13     7     9    1
    14     7    13    1
    15     8    10    1
    16     8    14    1
    17     4     5    1
    18    28    36    1
    19    30    33    1
    20    30    38    1
    21    31    34    1
    22    31    39    1
    23    32    35    1
    24    32    40    1
    25    41    43   ar
    26    15    19    2
    27    42    43   ar
    28    16    22    2
    29    17    12    1
    30    17    19   ar
    31    17    20   ar
    32    18    19   ar
    33    18    22   ar
    34    18    23    1
    35     9    10    1
    36     9    11    1
    37    10    12    1
    38    11     5    1
    39    33    34    1
    40    33    35    1
    41    34    36    1
    42    35    37    1
    43    37    43    1
    44    20    21   ar
    45    21    22   ar
@<TRIPOS>MOLECULE
*****
 43 45 0 0 0
SMALL
GASTEIGER

@<TRIPOS>ATOM
      1 P          22.0875   72.9520   -5.0737 P.3     1  UNL1        0.2189
      2 O          21.0779   74.2161   -5.1119 O.co2   1  UNL1       -0.4371
      3 O          23.5245   73.2965   -4.8126 O.2     1  UNL1       -0.5170
      4 O          21.7921   72.1768   -6.4629 O.3     1  UNL1       -0.3112
      5 C          21.2064   72.9003   -7.5296 C.3     1  UNL1        0.1811
      6 O          19.7143   71.0164   -7.4843 O.3     1  UNL1       -0.3308
      7 O          18.9045   71.8277  -10.2552 O.3     1  UNL1       -0.3794
      8 O          16.8599   72.7924   -8.7303 O.3     1  UNL1       -0.3779
      9 C          19.2524   72.6472   -9.1390 C.3     1  UNL1        0.1713
     10 C          18.1284   72.6561   -8.1247 C.3     1  UNL1        0.1895
     11 C          20.3674   71.9487   -8.3728 C.3     1  UNL1        0.1764
     12 C          18.3090   71.3110   -7.4421 C.3     1  UNL1        0.2383
     13 H          18.1935   72.2534  -10.7602 H       1  UNL1        0.2105
     14 H          16.7943   73.6647   -9.1506 H       1  UNL1        0.2106
     15 O          16.6871   69.3261   -6.2562 O.2     1  UNL1       -0.2464
     16 O          16.7113   71.4816   -2.1822 O.2     1  UNL1       -0.2670
     17 N          17.8766   71.3287   -6.0733 N.ar    1  UNL1       -0.2551
     18 N          16.6999   70.4021   -4.2285 N.ar    1  UNL1       -0.2743
     19 C          17.0633   70.2828   -5.5764 C.ar    1  UNL1        0.3323
     20 C          18.2589   72.3717   -5.2386 C.ar    1  UNL1        0.0869
     21 C          17.9047   72.4716   -3.9558 C.ar    1  UNL1        0.0795
     22 C          17.0547   71.4207   -3.3589 C.ar    1  UNL1        0.2626
     23 H          16.1320   69.6869   -3.8605 H       1  UNL1        0.1734
     24 O          21.4153   71.9840   -3.9674 O.3     1  UNL1       -0.2703
     25 P          22.0543   71.2303   -2.6878 P.3     1  UNL1        0.2208
     26 O          23.4740   70.6904   -3.2475 O.co2   1  UNL1       -0.4371
     27 O          21.1760   70.1646   -2.0989 O.2     1  UNL1       -0.5170
     28 O          22.4439   72.4167   -1.6664 O.3     1  UNL1       -0.2858
     29 O          21.0708   73.0003    0.1729 O.3     1  UNL1       -0.3226
     30 O          23.3201   76.4306   -0.3188 O.3     1  UNL1       -0.3794
     31 O          22.2517   75.0149   -2.6402 O.3     1  UNL1       -0.3775
     32 O          23.9086   74.5998    1.8613 O.3     1  UNL1       -0.3792
     33 C          23.0590   75.0275   -0.3524 C.3     1  UNL1        0.1718
     34 C          21.8854   74.7477   -1.2915 C.3     1  UNL1        0.1968
     35 C          22.7220   74.5750    1.0701 C.3     1  UNL1        0.1723
     36 C          21.4292   73.2924   -1.1783 C.3     1  UNL1        0.2706
     37 C          22.1556   73.1582    1.0846 C.3     1  UNL1        0.1830
     38 H          23.5367   76.7408   -1.2122 H       1  UNL1        0.2105
     39 H          22.5425   75.9367   -2.7193 H       1  UNL1        0.2106
     40 H          24.2792   75.4962    1.8602 H       1  UNL1        0.2106
     41 O          21.5936   73.9270    3.2281 O.co2   1  UNL1       -0.5466
     42 O          21.0277   71.7794    2.7119 O.co2   1  UNL1       -0.5466
     43 C          21.5306   72.8502    2.4062 C.2     1  UNL1        0.0799
@<TRIPOS>UNITY_ATOM_ATTR
2 1
charge -1
26 1
charge -1
41 1
charge -1
@<TRIPOS>BOND
     1     1     4    1
     2     1    24    1
     3     1     2    1
     4     1     3    2
     5    25    28    1
     6    25    24    1
     7    25    26    1
     8    25    27    2
     9     6    11    1
    10     6    12    1
    11    29    36    1
    12    29    37    1
    13     7     9    1
    14     7    13    1
    15     8    10    1
    16     8    14    1
    17     4     5    1
    18    28    36    1
    19    30    33    1
    20    30    38    1
    21    31    34    1
    22    31    39    1
    23    32    35    1
    24    32    40    1
    25    41    43   ar
    26    15    19    2
    27    42    43   ar
    28    16    22    2
    29    17    12    1
    30    17    19   ar
    31    17    20   ar
    32    18    19   ar
    33    18    22   ar
    34    18    23    1
    35     9    10    1
    36     9    11    1
    37    10    12    1
    38    11     5    1
    39    33    34    1
    40    33    35    1
    41    34    36    1
    42    35    37    1
    43    37    43    1
    44    20    21   ar
    45    21    22   ar
@<TRIPOS>MOLECULE
*****
 43 45 0 0 0
SMALL
GASTEIGER

@<TRIPOS>ATOM
      1 P          22.0638   70.7490   -2.7194 P.3     1  UNL1        0.2189
      2 O          23.5549   70.7699   -3.3479 O.co2   1  UNL1       -0.4371
      3 O          21.3603   69.4261   -2.8011 O.2     1  UNL1       -0.5170
      4 O          21.3183   71.9874   -3.4464 O.3     1  UNL1       -0.3112
      5 C          21.9898   72.6583   -4.4969 C.3     1  UNL1        0.1811
      6 O          21.0162   73.9825   -6.2508 O.3     1  UNL1       -0.3308
      7 O          19.4910   75.3907   -4.0869 O.3     1  UNL1       -0.3794
      8 O          17.6352   73.6684   -5.0998 O.3     1  UNL1       -0.3779
      9 C          19.8606   74.0149   -4.1833 C.3     1  UNL1        0.1713
     10 C          18.9972   73.3109   -5.2086 C.3     1  UNL1        0.1895
     11 C          21.2396   73.9428   -4.8247 C.3     1  UNL1        0.1764
     12 C          19.6201   73.7716   -6.5153 C.3     1  UNL1        0.2383
     13 H          18.6129   75.4622   -3.6800 H       1  UNL1        0.2105
     14 H          17.2849   73.3527   -4.2515 H       1  UNL1        0.2106
     15 O          19.7017   70.9777   -6.1106 O.2     1  UNL1       -0.2464
     16 O          19.0907   70.1259  -10.5989 O.2     1  UNL1       -0.2670
     17 N          19.4850   72.7969   -7.5605 N.ar    1  UNL1       -0.2551
     18 N          19.3983   70.5561   -8.3466 N.ar    1  UNL1       -0.2743
     19 C          19.5406   71.4174   -7.2506 C.ar    1  UNL1        0.3323
     20 C          19.2981   73.2098   -8.8741 C.ar    1  UNL1        0.0869
     21 C          19.1640   72.3770   -9.9081 C.ar    1  UNL1        0.0795
     22 C          19.2112   70.9194   -9.6704 C.ar    1  UNL1        0.2626
     23 H          19.4357   69.5910   -8.1560 H       1  UNL1        0.1734
     24 O          22.2960   71.2965   -1.2163 O.3     1  UNL1       -0.2703
     25 P          22.4920   70.5088    0.1818 P.3     1  UNL1        0.2208
     26 O          23.9525   69.8294    0.0220 O.co2   1  UNL1       -0.4371
     27 O          21.3909   69.5398    0.5023 O.2     1  UNL1       -0.5170
     28 O          22.7017   71.6712    1.2806 O.3     1  UNL1       -0.2858
     29 O          21.9615   72.4188    3.4025 O.3     1  UNL1       -0.3226
     30 O          21.2206   75.7263    1.0404 O.3     1  UNL1       -0.3794
     31 O          20.6101   73.0418    0.0630 O.3     1  UNL1       -0.3775
     32 O          23.4974   75.7044    2.8478 O.3     1  UNL1       -0.3792
     33 C          21.9119   74.5467    1.4511 C.3     1  UNL1        0.1718
     34 C          20.9577   73.3529    1.4073 C.3     1  UNL1        0.1968
     35 C          22.4209   74.7691    2.8771 C.3     1  UNL1        0.1723
     36 C          21.5919   72.1215    2.0554 C.3     1  UNL1        0.2706
     37 C          22.9213   73.4687    3.4991 C.3     1  UNL1        0.1830
     38 H          20.8879   75.6082    0.1367 H       1  UNL1        0.2105
     39 H          20.2073   73.8189   -0.3545 H       1  UNL1        0.2106
     40 H          23.1921   76.5366    2.4539 H       1  UNL1        0.2106
     41 O          22.1909   72.8798    5.6488 O.co2   1  UNL1       -0.5466
     42 O          23.9561   74.3161    5.5072 O.co2   1  UNL1       -0.5466
     43 C          23.1035   73.6219    4.9741 C.2     1  UNL1        0.0799
@<TRIPOS>UNITY_ATOM_ATTR
2 1
charge -1
26 1
charge -1
41 1
charge -1
@<TRIPOS>BOND
     1     1     4    1
     2     1    24    1
     3     1     2    1
     4     1     3    2
     5    25    28    1
     6    25    24    1
     7    25    26    1
     8    25    27    2
     9     6    11    1
    10     6    12    1
    11    29    36    1
    12    29    37    1
    13     7     9    1
    14     7    13    1
    15     8    10    1
    16     8    14    1
    17     4     5    1
    18    28    36    1
    19    30    33    1
    20    30    38    1
    21    31    34    1
    22    31    39    1
    23    32    35    1
    24    32    40    1
    25    41    43   ar
    26    15    19    2
    27    42    43   ar
    28    16    22    2
    29    17    12    1
    30    17    19   ar
    31    17    20   ar
    32    18    19   ar
    33    18    22   ar
    34    18    23    1
    35     9    10    1
    36     9    11    1
    37    10    12    1
    38    11     5    1
    39    33    34    1
    40    33    35    1
    41    34    36    1
    42    35    37    1
    43    37    43    1
    44    20    21   ar
    45    21    22   ar
@<TRIPOS>MOLECULE
*****
 43 45 0 0 0
SMALL
GASTEIGER

@<TRIPOS>ATOM
      1 P          21.2770   72.5202   -5.3189 P.3     1  UNL1        0.2189
      2 O          20.4144   73.6602   -4.5604 O.co2   1  UNL1       -0.4371
      3 O          22.7023   72.8909   -5.6069 O.2     1  UNL1       -0.5170
      4 O          20.3746   72.1438   -6.6081 O.3     1  UNL1       -0.3112
      5 C          19.4126   71.1127   -6.4823 C.3     1  UNL1        0.1811
      6 O          17.2872   71.0483   -7.6030 O.3     1  UNL1       -0.3308
      7 O          18.8250   71.4532  -10.1452 O.3     1  UNL1       -0.3794
      8 O          17.8629   73.9515   -9.6264 O.3     1  UNL1       -0.3779
      9 C          19.0702   71.9907   -8.8454 C.3     1  UNL1        0.1713
     10 C          18.0692   73.0826   -8.5323 C.3     1  UNL1        0.1895
     11 C          18.7094   70.9243   -7.8203 C.3     1  UNL1        0.1764
     12 C          16.8278   72.2808   -8.1802 C.3     1  UNL1        0.2383
     13 H          19.0483   72.1167  -10.8172 H       1  UNL1        0.2105
     14 H          18.6816   74.4391   -9.8109 H       1  UNL1        0.2106
     15 O          14.8153   74.1388   -8.8689 O.2     1  UNL1       -0.2464
     16 O          13.6732   74.8143   -4.4549 O.2     1  UNL1       -0.2670
     17 N          15.9897   72.9571   -7.2309 N.ar    1  UNL1       -0.2551
     18 N          14.2491   74.4742   -6.6698 N.ar    1  UNL1       -0.2743
     19 C          15.0087   73.8720   -7.6813 C.ar    1  UNL1        0.3323
     20 C          16.1421   72.7108   -5.8719 C.ar    1  UNL1        0.0869
     21 C          15.4105   73.2924   -4.9195 C.ar    1  UNL1        0.0795
     22 C          14.3643   74.2619   -5.3055 C.ar    1  UNL1        0.2626
     23 H          13.5611   75.1165   -6.9588 H       1  UNL1        0.1734
     24 O          21.0969   71.2311   -4.3605 O.3     1  UNL1       -0.2703
     25 P          21.8133   70.8372   -2.9657 P.3     1  UNL1        0.2208
     26 O          23.3861   70.8243   -3.3484 O.co2   1  UNL1       -0.4371
     27 O          21.3145   69.5587   -2.3569 O.2     1  UNL1       -0.5170
     28 O          21.6324   72.1392   -2.0306 O.3     1  UNL1       -0.2858
     29 O          21.1567   71.4523    0.1855 O.3     1  UNL1       -0.3226
     30 O          20.9666   75.5656    0.5211 O.3     1  UNL1       -0.3794
     31 O          19.7943   74.2124   -1.7874 O.3     1  UNL1       -0.3775
     32 O          23.2793   74.1244    1.5335 O.3     1  UNL1       -0.3792
     33 C          21.4318   74.3208   -0.0004 C.3     1  UNL1        0.1718
     34 C          20.2607   73.5540   -0.6154 C.3     1  UNL1        0.1968
     35 C          22.0428   73.5232    1.1538 C.3     1  UNL1        0.1723
     36 C          20.6714   72.1258   -0.9766 C.3     1  UNL1        0.2706
     37 C          22.3076   72.0752    0.7517 C.3     1  UNL1        0.1830
     38 H          20.5739   76.0898   -0.1946 H       1  UNL1        0.2105
     39 H          19.5323   75.1194   -1.5656 H       1  UNL1        0.2106
     40 H          23.1248   75.0465    1.7916 H       1  UNL1        0.2106
     41 O          23.0674   70.0194    1.5870 O.co2   1  UNL1       -0.5466
     42 O          22.4131   71.5837    3.1115 O.co2   1  UNL1       -0.5466
     43 C          22.5874   71.2334    1.9539 C.2     1  UNL1        0.0799
@<TRIPOS>UNITY_ATOM_ATTR
2 1
charge -1
26 1
charge -1
41 1
charge -1
@<TRIPOS>BOND
     1     1     4    1
     2     1    24    1
     3     1     2    1
     4     1     3    2
     5    25    28    1
     6    25    24    1
     7    25    26    1
     8    25    27    2
     9     6    11    1
    10     6    12    1
    11    29    36    1
    12    29    37    1
    13     7     9    1
    14     7    13    1
    15     8    10    1
    16     8    14    1
    17     4     5    1
    18    28    36    1
    19    30    33    1
    20    30    38    1
    21    31    34    1
    22    31    39    1
    23    32    35    1
    24    32    40    1
    25    41    43   ar
    26    15    19    2
    27    42    43   ar
    28    16    22    2
    29    17    12    1
    30    17    19   ar
    31    17    20   ar
    32    18    19   ar
    33    18    22   ar
    34    18    23    1
    35     9    10    1
    36     9    11    1
    37    10    12    1
    38    11     5    1
    39    33    34    1
    40    33    35    1
    41    34    36    1
    42    35    37    1
    43    37    43    1
    44    20    21   ar
    45    21    22   ar
@<TRIPOS>MOLECULE
*****
 43 45 0 0 0
SMALL
GASTEIGER

@<TRIPOS>ATOM
      1 P          22.9832   72.0313   -3.2901 P.3     1  UNL1        0.2189
      2 O          23.7197   72.8987   -4.4407 O.co2   1  UNL1       -0.4371
      3 O          23.5221   70.6437   -3.1001 O.2     1  UNL1       -0.5170
      4 O          21.4144   72.1293   -3.6739 O.3     1  UNL1       -0.3112
      5 C          20.5955   70.9930   -3.4672 C.3     1  UNL1        0.1811
      6 O          18.7425   72.0884   -4.5368 O.3     1  UNL1       -0.3308
      7 O          17.0182   70.8083   -2.4441 O.3     1  UNL1       -0.3794
      8 O          16.6167   69.2023   -4.6111 O.3     1  UNL1       -0.3779
      9 C          18.1775   70.2929   -3.0989 C.3     1  UNL1        0.1713
     10 C          17.8434   69.8964   -4.5214 C.3     1  UNL1        0.1895
     11 C          19.1496   71.4457   -3.3095 C.3     1  UNL1        0.1764
     12 C          17.8060   71.2431   -5.2236 C.3     1  UNL1        0.2383
     13 H          16.3823   70.0898   -2.2988 H       1  UNL1        0.2105
     14 H          16.6919   68.3520   -4.1493 H       1  UNL1        0.2106
     15 O          16.0906   71.8243   -7.3907 O.2     1  UNL1       -0.2464
     16 O          19.3694   70.8570  -10.4823 O.2     1  UNL1       -0.2670
     17 N          18.1855   71.1515   -6.6050 N.ar    1  UNL1       -0.2551
     18 N          17.7250   71.3410   -8.9284 N.ar    1  UNL1       -0.2743
     19 C          17.2478   71.4656   -7.6170 C.ar    1  UNL1        0.3323
     20 C          19.4734   70.7562   -6.9457 C.ar    1  UNL1        0.0869
     21 C          19.9137   70.6422   -8.2003 C.ar    1  UNL1        0.0795
     22 C          18.9965   70.9511   -9.3168 C.ar    1  UNL1        0.2626
     23 H          17.0896   71.5524   -9.6502 H       1  UNL1        0.1734
     24 O          23.0990   72.9826   -1.9884 O.3     1  UNL1       -0.2703
     25 P          23.3880   74.5676   -1.8544 P.3     1  UNL1        0.2208
     26 O          23.1886   74.8475   -0.2726 O.co2   1  UNL1       -0.4371
     27 O          22.5385   75.4260   -2.7463 O.2     1  UNL1       -0.5170
     28 O          24.9760   74.7160   -2.0971 O.3     1  UNL1       -0.2858
     29 O          26.5995   76.3790   -1.6413 O.3     1  UNL1       -0.3226
     30 O          27.7180   75.1243   -5.4152 O.3     1  UNL1       -0.3794
     31 O          24.8980   75.5156   -4.7600 O.3     1  UNL1       -0.3775
     32 O          29.2408   74.2822   -3.0866 O.3     1  UNL1       -0.3792
     33 C          27.1723   74.9836   -4.1036 C.3     1  UNL1        0.1718
     34 C          25.9837   75.9311   -3.9394 C.3     1  UNL1        0.1968
     35 C          28.2706   75.3277   -3.0950 C.3     1  UNL1        0.1723
     36 C          25.5182   75.9776   -2.4834 C.3     1  UNL1        0.2706
     37 C          27.7052   75.4798   -1.6859 C.3     1  UNL1        0.1830
     38 H          27.0378   74.9107   -6.0733 H       1  UNL1        0.2105
     39 H          25.1864   75.4836   -5.6853 H       1  UNL1        0.2106
     40 H          29.6084   74.1749   -3.9778 H       1  UNL1        0.2106
     41 O          29.1715   77.2758   -1.3314 O.co2   1  UNL1       -0.5466
     42 O          29.0497   75.6937    0.3060 O.co2   1  UNL1       -0.5466
     43 C          28.7019   76.1286   -0.7816 C.2     1  UNL1        0.0799
@<TRIPOS>UNITY_ATOM_ATTR
2 1
charge -1
26 1
charge -1
41 1
charge -1
@<TRIPOS>BOND
     1     1     4    1
     2     1    24    1
     3     1     2    1
     4     1     3    2
     5    25    28    1
     6    25    24    1
     7    25    26    1
     8    25    27    2
     9     6    11    1
    10     6    12    1
    11    29    36    1
    12    29    37    1
    13     7     9    1
    14     7    13    1
    15     8    10    1
    16     8    14    1
    17     4     5    1
    18    28    36    1
    19    30    33    1
    20    30    38    1
    21    31    34    1
    22    31    39    1
    23    32    35    1
    24    32    40    1
    25    41    43   ar
    26    15    19    2
    27    42    43   ar
    28    16    22    2
    29    17    12    1
    30    17    19   ar
    31    17    20   ar
    32    18    19   ar
    33    18    22   ar
    34    18    23    1
    35     9    10    1
    36     9    11    1
    37    10    12    1
    38    11     5    1
    39    33    34    1
    40    33    35    1
    41    34    36    1
    42    35    37    1
    43    37    43    1
    44    20    21   ar
    45    21    22   ar
@<TRIPOS>MOLECULE
*****
 43 45 0 0 0
SMALL
GASTEIGER

@<TRIPOS>ATOM
      1 P          20.0681   71.5040   -2.2370 P.3     1  UNL1        0.2189
      2 O          18.8213   72.4561   -1.8395 O.co2   1  UNL1       -0.4371
      3 O          21.1663   72.1841   -3.0006 O.2     1  UNL1       -0.5170
      4 O          19.3739   70.2438   -2.9771 O.3     1  UNL1       -0.3112
      5 C          19.3960   70.1944   -4.3919 C.3     1  UNL1        0.1811
      6 O          18.6903   72.2678   -5.3823 O.3     1  UNL1       -0.3308
      7 O          16.2161   70.8037   -6.2345 O.3     1  UNL1       -0.3794
      8 O          17.7013   70.8453   -8.5211 O.3     1  UNL1       -0.3779
      9 C          17.5609   70.3318   -6.1486 C.3     1  UNL1        0.1713
     10 C          18.3867   70.8921   -7.2872 C.3     1  UNL1        0.1895
     11 C          18.2101   70.9817   -4.9343 C.3     1  UNL1        0.1764
     12 C          18.6488   72.3128   -6.8174 C.3     1  UNL1        0.2383
     13 H          15.7807   70.4021   -7.0032 H       1  UNL1        0.2105
     14 H          17.5588   69.9200   -8.7769 H       1  UNL1        0.2106
     15 O          18.9626   73.6678   -9.2755 O.2     1  UNL1       -0.2464
     16 O          23.4820   74.2526   -8.5851 O.2     1  UNL1       -0.2670
     17 N          19.8963   72.8298   -7.3046 N.ar    1  UNL1       -0.2551
     18 N          21.2134   73.9569   -8.9298 N.ar    1  UNL1       -0.2743
     19 C          19.9457   73.4945   -8.5527 C.ar    1  UNL1        0.3323
     20 C          21.0525   72.6778   -6.5489 C.ar    1  UNL1        0.0869
     21 C          22.2537   73.1241   -6.9215 C.ar    1  UNL1        0.0795
     22 C          22.3920   73.8291   -8.2127 C.ar    1  UNL1        0.2626
     23 H          21.2732   74.4211   -9.7959 H       1  UNL1        0.1734
     24 O          20.5205   70.8855   -0.8138 O.3     1  UNL1       -0.2703
     25 P          21.9782   70.4672   -0.2535 P.3     1  UNL1        0.2208
     26 O          22.8883   70.4172   -1.5912 O.co2   1  UNL1       -0.4371
     27 O          21.9886   69.1986    0.5493 O.2     1  UNL1       -0.5170
     28 O          22.4988   71.7689    0.5447 O.3     1  UNL1       -0.2858
     29 O          21.2722   72.8713    2.2445 O.3     1  UNL1       -0.3226
     30 O          23.7780   75.8811    0.9293 O.3     1  UNL1       -0.3794
     31 O          22.4805   74.0934   -0.9825 O.3     1  UNL1       -0.3775
     32 O          24.3151   74.5314    3.4474 O.3     1  UNL1       -0.3792
     33 C          23.3973   74.5363    1.2197 C.3     1  UNL1        0.1718
     34 C          22.1595   74.1669    0.4018 C.3     1  UNL1        0.1968
     35 C          23.0933   74.4436    2.7166 C.3     1  UNL1        0.1723
     36 C          21.5873   72.8221    0.8525 C.3     1  UNL1        0.2706
     37 C          22.4100   73.1246    3.0657 C.3     1  UNL1        0.1830
     38 H          23.9760   75.9642   -0.0169 H       1  UNL1        0.2105
     39 H          22.8444   74.9433   -1.2751 H       1  UNL1        0.2106
     40 H          24.7601   75.3665    3.2341 H       1  UNL1        0.2106
     41 O          20.7348   73.9806    4.4666 O.co2   1  UNL1       -0.5466
     42 O          22.2652   72.5790    5.4115 O.co2   1  UNL1       -0.5466
     43 C          21.8267   73.1768    4.4402 C.2     1  UNL1        0.0799
@<TRIPOS>UNITY_ATOM_ATTR
2 1
charge -1
26 1
charge -1
41 1
charge -1
@<TRIPOS>BOND
     1     1     4    1
     2     1    24    1
     3     1     2    1
     4     1     3    2
     5    25    28    1
     6    25    24    1
     7    25    26    1
     8    25    27    2
     9     6    11    1
    10     6    12    1
    11    29    36    1
    12    29    37    1
    13     7     9    1
    14     7    13    1
    15     8    10    1
    16     8    14    1
    17     4     5    1
    18    28    36    1
    19    30    33    1
    20    30    38    1
    21    31    34    1
    22    31    39    1
    23    32    35    1
    24    32    40    1
    25    41    43   ar
    26    15    19    2
    27    42    43   ar
    28    16    22    2
    29    17    12    1
    30    17    19   ar
    31    17    20   ar
    32    18    19   ar
    33    18    22   ar
    34    18    23    1
    35     9    10    1
    36     9    11    1
    37    10    12    1
    38    11     5    1
    39    33    34    1
    40    33    35    1
    41    34    36    1
    42    35    37    1
    43    37    43    1
    44    20    21   ar
    45    21    22   ar
@<TRIPOS>MOLECULE
*****
 43 45 0 0 0
SMALL
GASTEIGER

@<TRIPOS>ATOM
      1 P          21.8927   70.4833   -0.8387 P.3     1  UNL1        0.2189
      2 O          23.3936   69.9688   -0.5203 O.co2   1  UNL1       -0.4371
      3 O          20.9553   70.4666    0.3329 O.2     1  UNL1       -0.5170
      4 O          21.4399   69.5957   -2.1135 O.3     1  UNL1       -0.3112
      5 C          21.0135   70.2647   -3.2861 C.3     1  UNL1        0.1811
      6 O          19.3130   71.7199   -4.1628 O.3     1  UNL1       -0.3308
      7 O          17.4532   70.4227   -2.2007 O.3     1  UNL1       -0.3794
      8 O          16.8208   69.1700   -4.5389 O.3     1  UNL1       -0.3779
      9 C          18.5273   69.8467   -2.9444 C.3     1  UNL1        0.1713
     10 C          18.1299   69.6804   -4.3959 C.3     1  UNL1        0.1895
     11 C          19.6424   70.8794   -3.0357 C.3     1  UNL1        0.1764
     12 C          18.2657   71.0982   -4.9244 C.3     1  UNL1        0.2383
     13 H          16.7286   69.7812   -2.1290 H       1  UNL1        0.2105
     14 H          16.7863   68.2657   -4.1882 H       1  UNL1        0.2106
     15 O          20.5713   72.3613   -5.9567 O.2     1  UNL1       -0.2464
     16 O          19.5114   71.1685  -10.2808 O.2     1  UNL1       -0.2670
     17 N          18.6166   71.1329   -6.3160 N.ar    1  UNL1       -0.2551
     18 N          20.0407   71.7669   -8.1095 N.ar    1  UNL1       -0.2743
     19 C          19.7970   71.7944   -6.7300 C.ar    1  UNL1        0.3323
     20 C          17.7975   70.5156   -7.2535 C.ar    1  UNL1        0.0869
     21 C          18.0431   70.4976   -8.5650 C.ar    1  UNL1        0.0795
     22 C          19.2556   71.1666   -9.0805 C.ar    1  UNL1        0.2626
     23 H          20.8556   72.2226   -8.4219 H       1  UNL1        0.1734
     24 O          22.1393   71.9451   -1.4830 O.3     1  UNL1       -0.2703
     25 P          22.2781   73.4000   -0.7919 P.3     1  UNL1        0.2208
     26 O          22.7886   73.0516    0.7042 O.co2   1  UNL1       -0.4371
     27 O          21.0262   74.2272   -0.8411 O.2     1  UNL1       -0.5170
     28 O          23.5550   74.0746   -1.5110 O.3     1  UNL1       -0.2858
     29 O          23.4892   76.3213   -2.2574 O.3     1  UNL1       -0.3226
     30 O          26.6621   74.8071   -4.4272 O.3     1  UNL1       -0.3794
     31 O          24.2237   73.2367   -4.0774 O.3     1  UNL1       -0.3775
     32 O          27.1503   76.5314   -2.1382 O.3     1  UNL1       -0.3792
     33 C          25.7881   74.9222   -3.3043 C.3     1  UNL1        0.1718
     34 C          24.3550   74.6121   -3.7374 C.3     1  UNL1        0.1968
     35 C          25.8858   76.3543   -2.7738 C.3     1  UNL1        0.1723
     36 C          23.3623   74.9467   -2.6232 C.3     1  UNL1        0.2706
     37 C          24.7845   76.6490   -1.7595 C.3     1  UNL1        0.1830
     38 H          26.6168   73.9050   -4.7813 H       1  UNL1        0.2105
     39 H          24.8509   73.0174   -4.7837 H       1  UNL1        0.2106
     40 H          27.8600   76.3467   -2.7731 H       1  UNL1        0.2106
     41 O          23.3841   78.5069   -1.4616 O.co2   1  UNL1       -0.5466
     42 O          25.6320   78.8683   -1.3378 O.co2   1  UNL1       -0.5466
     43 C          24.6823   78.1166   -1.4988 C.2     1  UNL1        0.0799
@<TRIPOS>UNITY_ATOM_ATTR
2 1
charge -1
26 1
charge -1
41 1
charge -1
@<TRIPOS>BOND
     1     1     4    1
     2     1    24    1
     3     1     2    1
     4     1     3    2
     5    25    28    1
     6    25    24    1
     7    25    26    1
     8    25    27    2
     9     6    11    1
    10     6    12    1
    11    29    36    1
    12    29    37    1
    13     7     9    1
    14     7    13    1
    15     8    10    1
    16     8    14    1
    17     4     5    1
    18    28    36    1
    19    30    33    1
    20    30    38    1
    21    31    34    1
    22    31    39    1
    23    32    35    1
    24    32    40    1
    25    41    43   ar
    26    15    19    2
    27    42    43   ar
    28    16    22    2
    29    17    12    1
    30    17    19   ar
    31    17    20   ar
    32    18    19   ar
    33    18    22   ar
    34    18    23    1
    35     9    10    1
    36     9    11    1
    37    10    12    1
    38    11     5    1
    39    33    34    1
    40    33    35    1
    41    34    36    1
    42    35    37    1
    43    37    43    1
    44    20    21   ar
    45    21    22   ar
@<TRIPOS>MOLECULE
*****
 43 45 0 0 0
SMALL
GASTEIGER

@<TRIPOS>ATOM
      1 P          21.7355   73.7008   -6.6051 P.3     1  UNL1        0.2189
      2 O          21.9074   75.2500   -7.0401 O.co2   1  UNL1       -0.4371
      3 O          22.7507   72.7624   -7.1887 O.2     1  UNL1       -0.5170
      4 O          20.1904   73.3689   -6.9525 O.3     1  UNL1       -0.3112
      5 C          19.6659   72.1115   -6.5673 C.3     1  UNL1        0.1811
      6 O          17.5108   71.4766   -7.4218 O.3     1  UNL1       -0.3308
      7 O          18.7972   71.4571  -10.1304 O.3     1  UNL1       -0.3794
      8 O          17.4819   73.8458  -10.1126 O.3     1  UNL1       -0.3779
      9 C          19.0359   72.3260   -9.0229 C.3     1  UNL1        0.1713
     10 C          17.8948   73.3097   -8.8729 C.3     1  UNL1        0.1895
     11 C          18.9176   71.5039   -7.7468 C.3     1  UNL1        0.1764
     12 C          16.8234   72.4528   -8.2204 C.3     1  UNL1        0.2383
     13 H          18.8674   71.9600  -10.9573 H       1  UNL1        0.2105
     14 H          18.1981   74.3831  -10.4871 H       1  UNL1        0.2106
     15 O          14.6743   74.0287   -9.1556 O.2     1  UNL1       -0.2464
     16 O          13.5400   75.3418   -4.8856 O.2     1  UNL1       -0.2670
     17 N          15.9503   73.2168   -7.3749 N.ar    1  UNL1       -0.2551
     18 N          14.1121   74.6820   -7.0281 N.ar    1  UNL1       -0.2743
     19 C          14.9008   73.9752   -7.9454 C.ar    1  UNL1        0.3323
     20 C          16.1366   73.2088   -5.9978 C.ar    1  UNL1        0.0869
     21 C          15.3765   73.8876   -5.1362 C.ar    1  UNL1        0.0795
     22 C          14.2587   74.7057   -5.6506 C.ar    1  UNL1        0.2626
     23 H          13.3763   75.2189   -7.4018 H       1  UNL1        0.1734
     24 O          21.7371   73.7750   -4.9904 O.3     1  UNL1       -0.2703
     25 P          22.9501   73.6893   -3.9251 P.3     1  UNL1        0.2208
     26 O          23.6893   75.1199   -4.0904 O.co2   1  UNL1       -0.4371
     27 O          23.8507   72.5027   -4.1115 O.2     1  UNL1       -0.5170
     28 O          22.2335   73.7657   -2.4818 O.3     1  UNL1       -0.2858
     29 O          21.0085   71.8173   -1.9228 O.3     1  UNL1       -0.3226
     30 O          19.9128   74.3986    1.1111 O.3     1  UNL1       -0.3794
     31 O          20.1056   75.3492   -1.6446 O.3     1  UNL1       -0.3775
     32 O          21.8111   72.2590    1.6301 O.3     1  UNL1       -0.3792
     33 C          20.7828   73.8375    0.1281 C.3     1  UNL1        0.1718
     34 C          20.1506   73.9809   -1.2565 C.3     1  UNL1        0.1968
     35 C          20.9900   72.3599    0.4681 C.3     1  UNL1        0.1723
     36 C          20.9397   73.1923   -2.3026 C.3     1  UNL1        0.2706
     37 C          21.6709   71.6150   -0.6765 C.3     1  UNL1        0.1830
     38 H          19.7664   75.3375    0.9155 H       1  UNL1        0.2105
     39 H          19.6066   75.8556   -0.9851 H       1  UNL1        0.2106
     40 H          21.3891   72.7292    2.3661 H       1  UNL1        0.2106
     41 O          21.2399   69.5212   -1.6417 O.co2   1  UNL1       -0.5466
     42 O          21.7663   69.5554    0.5766 O.co2   1  UNL1       -0.5466
     43 C          21.5727   70.1371   -0.4803 C.2     1  UNL1        0.0799
@<TRIPOS>UNITY_ATOM_ATTR
2 1
charge -1
26 1
charge -1
41 1
charge -1
@<TRIPOS>BOND
     1     1     4    1
     2     1    24    1
     3     1     2    1
     4     1     3    2
     5    25    28    1
     6    25    24    1
     7    25    26    1
     8    25    27    2
     9     6    11    1
    10     6    12    1
    11    29    36    1
    12    29    37    1
    13     7     9    1
    14     7    13    1
    15     8    10    1
    16     8    14    1
    17     4     5    1
    18    28    36    1
    19    30    33    1
    20    30    38    1
    21    31    34    1
    22    31    39    1
    23    32    35    1
    24    32    40    1
    25    41    43   ar
    26    15    19    2
    27    42    43   ar
    28    16    22    2
    29    17    12    1
    30    17    19   ar
    31    17    20   ar
    32    18    19   ar
    33    18    22   ar
    34    18    23    1
    35     9    10    1
    36     9    11    1
    37    10    12    1
    38    11     5    1
    39    33    34    1
    40    33    35    1
    41    34    36    1
    42    35    37    1
    43    37    43    1
    44    20    21   ar
    45    21    22   ar
@<TRIPOS>MOLECULE
*****
 43 45 0 0 0
SMALL
GASTEIGER

@<TRIPOS>ATOM
      1 P          16.2425   73.9028   -4.1235 P.3     1  UNL1        0.2189
      2 O          15.4797   72.5530   -4.5873 O.co2   1  UNL1       -0.4371
      3 O          15.4266   74.8310   -3.2724 O.2     1  UNL1       -0.5170
      4 O          16.8024   74.5276   -5.5070 O.3     1  UNL1       -0.3112
      5 C          16.4110   73.9265   -6.7276 C.3     1  UNL1        0.1811
      6 O          18.6003   72.9350   -6.6902 O.3     1  UNL1       -0.3308
      7 O          18.4134   72.8587   -9.6820 O.3     1  UNL1       -0.3794
      8 O          17.8322   70.2878   -8.9829 O.3     1  UNL1       -0.3779
      9 C          17.3887   72.6626   -8.7073 C.3     1  UNL1        0.1713
     10 C          17.5433   71.3076   -8.0496 C.3     1  UNL1        0.1895
     11 C          17.6558   73.6121   -7.5473 C.3     1  UNL1        0.1764
     12 C          18.6876   71.5557   -7.0816 C.3     1  UNL1        0.2383
     13 H          18.2640   72.2626  -10.4330 H       1  UNL1        0.2105
     14 H          17.0733   70.1679   -9.5759 H       1  UNL1        0.2106
     15 O          16.3956   70.0875   -6.3280 O.2     1  UNL1       -0.2464
     16 O          18.4729   68.4270   -2.5635 O.2     1  UNL1       -0.2670
     17 N          18.6021   70.7314   -5.9093 N.ar    1  UNL1       -0.2551
     18 N          17.4321   69.2627   -4.4533 N.ar    1  UNL1       -0.2743
     19 C          17.4041   70.0356   -5.6215 C.ar    1  UNL1        0.3323
     20 C          19.6963   70.6171   -5.0605 C.ar    1  UNL1        0.0869
     21 C          19.7079   69.8764   -3.9505 C.ar    1  UNL1        0.0795
     22 C          18.4958   69.1183   -3.5773 C.ar    1  UNL1        0.2626
     23 H          16.6088   68.7706   -4.2309 H       1  UNL1        0.1734
     24 O          17.5798   73.3378   -3.4125 O.3     1  UNL1       -0.2703
     25 P          18.6308   74.0491   -2.4109 P.3     1  UNL1        0.2208
     26 O          17.9978   73.7654   -0.9483 O.co2   1  UNL1       -0.4371
     27 O          18.8781   75.5000   -2.7069 O.2     1  UNL1       -0.5170
     28 O          19.9477   73.1194   -2.4720 O.3     1  UNL1       -0.2858
     29 O          21.5431   72.4589   -0.8510 O.3     1  UNL1       -0.3226
     30 O          23.9077   72.9637   -4.2009 O.3     1  UNL1       -0.3794
     31 O          21.7939   74.8815   -3.5777 O.3     1  UNL1       -0.3775
     32 O          23.2155   70.2903   -3.2928 O.3     1  UNL1       -0.3792
     33 C          22.7170   72.6398   -3.4831 C.3     1  UNL1        0.1718
     34 C          22.2466   73.8621   -2.6942 C.3     1  UNL1        0.1968
     35 C          23.0374   71.4840   -2.5326 C.3     1  UNL1        0.1723
     36 C          21.1123   73.4923   -1.7375 C.3     1  UNL1        0.2706
     37 C          21.9103   71.2594   -1.5288 C.3     1  UNL1        0.1830
     38 H          23.7283   73.6961   -4.8114 H       1  UNL1        0.2105
     39 H          22.5087   75.1208   -4.1879 H       1  UNL1        0.2106
     40 H          23.9301   70.4199   -3.9358 H       1  UNL1        0.2106
     41 O          21.2950   69.8297    0.2259 O.co2   1  UNL1       -0.5466
     42 O          23.5257   70.1513   -0.1202 O.co2   1  UNL1       -0.5466
     43 C          22.3605   70.3697   -0.4161 C.2     1  UNL1        0.0799
@<TRIPOS>UNITY_ATOM_ATTR
2 1
charge -1
26 1
charge -1
41 1
charge -1
@<TRIPOS>BOND
     1     1     4    1
     2     1    24    1
     3     1     2    1
     4     1     3    2
     5    25    28    1
     6    25    24    1
     7    25    26    1
     8    25    27    2
     9     6    11    1
    10     6    12    1
    11    29    36    1
    12    29    37    1
    13     7     9    1
    14     7    13    1
    15     8    10    1
    16     8    14    1
    17     4     5    1
    18    28    36    1
    19    30    33    1
    20    30    38    1
    21    31    34    1
    22    31    39    1
    23    32    35    1
    24    32    40    1
    25    41    43   ar
    26    15    19    2
    27    42    43   ar
    28    16    22    2
    29    17    12    1
    30    17    19   ar
    31    17    20   ar
    32    18    19   ar
    33    18    22   ar
    34    18    23    1
    35     9    10    1
    36     9    11    1
    37    10    12    1
    38    11     5    1
    39    33    34    1
    40    33    35    1
    41    34    36    1
    42    35    37    1
    43    37    43    1
    44    20    21   ar
    45    21    22   ar
