
 OpenBabel04092510463D

 45 46  0  0  1  0  0  0  0  0999 V2000
    4.4240    1.6744    3.3592 O   0  0  0  0  0  0  0  0  0  0  0  0
    5.6625    1.8008    2.6576 C   0  0  0  0  0  0  0  0  0  0  0  0
    5.4289    2.3295    1.2305 C   0  0  1  0  0  0  0  0  0  0  0  0
    4.5933    1.3990    0.5396 O   0  0  0  0  0  0  0  0  0  0  0  0
    4.3335    1.7495   -0.8084 C   0  0  1  0  0  0  0  0  0  0  0  0
    3.5049    0.7148   -1.3226 O   0  0  0  0  0  0  0  0  0  0  0  0
    3.6447    3.1268   -0.9497 C   0  0  2  0  0  0  0  0  0  0  0  0
    3.5438    3.4523   -2.3625 O   0  0  0  0  0  0  0  0  0  0  0  0
    2.8298    4.6640   -2.6100 C   0  0  2  0  0  0  0  0  0  0  0  0
    1.5514    4.5800   -1.9848 O   0  0  0  0  0  0  0  0  0  0  0  0
    0.8933    5.8394   -1.9426 C   0  0  2  0  0  0  0  0  0  0  0  0
   -0.3797    5.6780   -1.1032 C   0  0  0  0  0  0  0  0  0  0  0  0
   -1.0202    6.9227   -0.8597 O   0  0  0  0  0  0  0  0  0  0  0  0
    0.5933    6.3206   -3.3700 C   0  0  1  0  0  0  0  0  0  0  0  0
   -0.0038    7.6248   -3.3290 O   0  0  0  0  0  0  0  0  0  0  0  0
    1.8851    6.3155   -4.2162 C   0  0  2  0  0  0  0  0  0  0  0  0
    1.5986    6.6470   -5.5791 O   0  0  0  0  0  0  0  0  0  0  0  0
    2.6461    4.9706   -4.1091 C   0  0  1  0  0  0  0  0  0  0  0  0
    3.9073    5.0590   -4.7906 O   0  0  0  0  0  0  0  0  0  0  0  0
    4.4461    4.1827   -0.1507 C   0  0  1  0  0  0  0  0  0  0  0  0
    3.7319    5.4330   -0.0399 O   0  0  0  0  0  0  0  0  0  0  0  0
    4.7865    3.7145    1.2653 C   0  0  2  0  0  0  0  0  0  0  0  0
    5.6564    4.6595    1.9019 O   0  0  0  0  0  0  0  0  0  0  0  0
    4.6078    1.1545    4.1605 H   0  0  0  0  0  0  0  0  0  0  0  0
    6.1227    0.8088    2.6144 H   0  0  0  0  0  0  0  0  0  0  0  0
    6.3136    2.4716    3.2279 H   0  0  0  0  0  0  0  0  0  0  0  0
    6.4051    2.3772    0.7309 H   0  0  0  0  0  0  0  0  0  0  0  0
    5.2657    1.7212   -1.3843 H   0  0  0  0  0  0  0  0  0  0  0  0
    2.7547    0.6647   -0.7074 H   0  0  0  0  0  0  0  0  0  0  0  0
    2.6291    3.0446   -0.5424 H   0  0  0  0  0  0  0  0  0  0  0  0
    3.4258    5.4877   -2.2141 H   0  0  0  0  0  0  0  0  0  0  0  0
    1.5306    6.5760   -1.4346 H   0  0  0  0  0  0  0  0  0  0  0  0
   -1.0877    4.9947   -1.5853 H   0  0  0  0  0  0  0  0  0  0  0  0
   -0.1294    5.2318   -0.1334 H   0  0  0  0  0  0  0  0  0  0  0  0
   -1.1540    7.3513   -1.7303 H   0  0  0  0  0  0  0  0  0  0  0  0
   -0.1360    5.6568   -3.8461 H   0  0  0  0  0  0  0  0  0  0  0  0
    0.7031    8.2812   -3.1802 H   0  0  0  0  0  0  0  0  0  0  0  0
    2.5409    7.1258   -3.8721 H   0  0  0  0  0  0  0  0  0  0  0  0
    1.0403    5.9454   -5.9576 H   0  0  0  0  0  0  0  0  0  0  0  0
    2.0813    4.1734   -4.6058 H   0  0  0  0  0  0  0  0  0  0  0  0
    4.2832    5.9456   -4.6548 H   0  0  0  0  0  0  0  0  0  0  0  0
    5.3606    4.4282   -0.7081 H   0  0  0  0  0  0  0  0  0  0  0  0
    3.0062    5.3081    0.6001 H   0  0  0  0  0  0  0  0  0  0  0  0
    3.8607    3.6915    1.8533 H   0  0  0  0  0  0  0  0  0  0  0  0
    6.2280    5.0662    1.2278 H   0  0  0  0  0  0  0  0  0  0  0  0
  1  2  1  0  0  0  0
  1 24  1  0  0  0  0
  2 25  1  0  0  0  0
  2 26  1  0  0  0  0
  3  4  1  0  0  0  0
  3 22  1  0  0  0  0
  3  2  1  0  0  0  0
  3 27  1  6  0  0  0
  4  5  1  0  0  0  0
  5  6  1  0  0  0  0
  5  7  1  0  0  0  0
  5 28  1  6  0  0  0
  6 29  1  0  0  0  0
  7 20  1  0  0  0  0
  7  8  1  0  0  0  0
  7 30  1  1  0  0  0
  8  9  1  0  0  0  0
  9 10  1  0  0  0  0
  9 18  1  0  0  0  0
  9 31  1  1  0  0  0
 10 11  1  0  0  0  0
 11 14  1  0  0  0  0
 11 12  1  0  0  0  0
 11 32  1  1  0  0  0
 12 13  1  0  0  0  0
 12 33  1  0  0  0  0
 12 34  1  0  0  0  0
 13 35  1  0  0  0  0
 14 15  1  0  0  0  0
 14 16  1  0  0  0  0
 14 36  1  6  0  0  0
 15 37  1  0  0  0  0
 16 17  1  0  0  0  0
 16 18  1  0  0  0  0
 16 38  1  1  0  0  0
 17 39  1  0  0  0  0
 18 19  1  0  0  0  0
 18 40  1  6  0  0  0
 19 41  1  0  0  0  0
 20 21  1  0  0  0  0
 20 22  1  0  0  0  0
 20 42  1  6  0  0  0
 21 43  1  0  0  0  0
 22 23  1  0  0  0  0
 22 44  1  1  0  0  0
 23 45  1  0  0  0  0
M  END
$$$$
