


 31 32  0  0  0  0  0  0  0  0999 V2000
  -10.1554   -2.7411   12.8026 O   0  0  0  0  0  0  0  0  0  0  0  0
   -7.0356   -5.4635   13.5643 C   0  0  0  0  0  0  0  0  0  0  0  0
   -7.1045   -4.2333   14.2877 O   0  0  0  0  0  0  0  0  0  0  0  0
   -8.3686   -3.5969   14.2217 C   0  0  0  0  0  0  0  0  0  0  0  0
   -8.2440   -2.4115   14.9970 O   0  0  0  0  0  0  0  0  0  0  0  0
   -8.7998   -3.2644   12.7743 C   0  0  0  0  0  0  0  0  0  0  0  0
   -8.6693   -4.5338   11.8985 C   0  0  0  0  0  0  0  0  0  0  0  0
   -8.8226   -4.2387   10.4931 O   0  0  0  0  0  0  0  0  0  0  0  0
   -7.3239   -5.2385   12.0816 C   0  0  0  0  0  0  0  0  0  0  0  0
   -7.3180   -6.4833   11.3707 O   0  0  0  0  0  0  0  0  0  0  0  0
   -7.4755   -1.9479   14.6252 H   0  0  0  0  0  0  0  0  0  0  0  0
   -8.0119   -3.7878   10.1911 H   0  0  0  0  0  0  0  0  0  0  0  0
   -8.2181   -6.8525   11.3733 H   0  0  0  0  0  0  0  0  0  0  0  0
   -4.8197   -5.8404   12.6062 O   0  0  0  0  0  0  0  0  0  0  0  0
   -5.6306   -6.0613   13.7620 C   0  0  0  0  0  0  0  0  0  0  0  0
   -3.9049   -6.0503   12.8616 H   0  0  0  0  0  0  0  0  0  0  0  0
  -10.2215   -1.3386   12.5423 C   0  0  0  0  0  0  0  0  0  0  0  0
  -10.9997   -0.7179   13.5628 O   0  0  0  0  0  0  0  0  0  0  0  0
  -10.8819    0.6986   13.5377 C   0  0  0  0  0  0  0  0  0  0  0  0
  -11.4595    1.2480   12.2249 C   0  0  0  0  0  0  0  0  0  0  0  0
  -11.2732    2.6697   12.1681 O   0  0  0  0  0  0  0  0  0  0  0  0
  -10.8037    0.5422   11.0180 C   0  0  0  0  0  0  0  0  0  0  0  0
  -11.4173    0.9587    9.7935 O   0  0  0  0  0  0  0  0  0  0  0  0
  -10.8226   -0.9997   11.1643 C   0  0  0  0  0  0  0  0  0  0  0  0
  -10.0785   -1.6082   10.0971 O   0  0  0  0  0  0  0  0  0  0  0  0
  -10.3468    2.8479   11.9178 H   0  0  0  0  0  0  0  0  0  0  0  0
  -12.3435    0.6601    9.7941 H   0  0  0  0  0  0  0  0  0  0  0  0
   -9.3022   -1.0586    9.8942 H   0  0  0  0  0  0  0  0  0  0  0  0
  -11.6067    1.2536   14.7698 C   0  0  0  0  0  0  0  0  0  0  0  0
  -11.2466    2.6014   15.0391 O   0  0  0  0  0  0  0  0  0  0  0  0
  -11.3935    3.1077   14.2135 H   0  0  0  0  0  0  0  0  0  0  0  0
 14 15  1  0
 14 16  1  0
  2  3  1  0
  2  9  1  0
  2 15  1  0
  3  4  1  0
  4  5  1  0
  4  6  1  0
  5 11  1  0
  6  7  1  0
  6  1  1  0
  1 17  1  0
 17 18  1  0
 17 24  1  0
 18 19  1  0
 19 20  1  0
 19 29  1  0
 29 30  1  0
 30 31  1  0
 20 21  1  0
 20 22  1  0
 21 26  1  0
 22 23  1  0
 22 24  1  0
 23 27  1  0
 24 25  1  0
 25 28  1  0
  7  8  1  0
  7  9  1  0
  8 12  1  0
  9 10  1  0
 10 13  1  0
M  END
> <minimizedAffinity>
-5.85893

> <CNNscore>
0.9258788824

> <CNNaffinity>
2.8068549633

> <CNN_VS>
2.5988078117

> <CNNaffinity_variance>
0.7027967572

$$$$



 31 32  0  0  0  0  0  0  0  0999 V2000
   -8.8862   -2.2543   12.8649 O   0  0  0  0  0  0  0  0  0  0  0  0
  -11.1173    1.2442   12.1532 C   0  0  0  0  0  0  0  0  0  0  0  0
  -11.2311    0.5651   13.4051 O   0  0  0  0  0  0  0  0  0  0  0  0
  -10.1793   -0.3488   13.6619 C   0  0  0  0  0  0  0  0  0  0  0  0
  -10.4602   -0.9110   14.9373 O   0  0  0  0  0  0  0  0  0  0  0  0
  -10.0670   -1.4543   12.5864 C   0  0  0  0  0  0  0  0  0  0  0  0
  -10.0265   -0.8001   11.1842 C   0  0  0  0  0  0  0  0  0  0  0  0
  -10.1654   -1.7758   10.1286 O   0  0  0  0  0  0  0  0  0  0  0  0
  -11.1221    0.2504   10.9938 C   0  0  0  0  0  0  0  0  0  0  0  0
  -10.9425    0.9300    9.7445 O   0  0  0  0  0  0  0  0  0  0  0  0
  -11.3644   -1.2587   14.8648 H   0  0  0  0  0  0  0  0  0  0  0  0
  -11.0964   -2.0669   10.1099 H   0  0  0  0  0  0  0  0  0  0  0  0
   -9.9912    0.9818    9.5473 H   0  0  0  0  0  0  0  0  0  0  0  0
  -11.9006    3.3983   11.3066 O   0  0  0  0  0  0  0  0  0  0  0  0
  -12.2932    2.2306   12.0308 C   0  0  0  0  0  0  0  0  0  0  0  0
  -12.7170    3.8792   11.0868 H   0  0  0  0  0  0  0  0  0  0  0  0
   -9.1539   -3.6565   12.9024 C   0  0  0  0  0  0  0  0  0  0  0  0
   -8.9527   -4.1274   14.2328 O   0  0  0  0  0  0  0  0  0  0  0  0
   -9.4645   -5.4407   14.4181 C   0  0  0  0  0  0  0  0  0  0  0  0
   -8.6905   -6.4325   13.5372 C   0  0  0  0  0  0  0  0  0  0  0  0
   -9.2557   -7.7449   13.6689 O   0  0  0  0  0  0  0  0  0  0  0  0
   -8.6977   -5.9576   12.0677 C   0  0  0  0  0  0  0  0  0  0  0  0
   -7.8801   -6.8083   11.2569 O   0  0  0  0  0  0  0  0  0  0  0  0
   -8.2766   -4.4730   11.9335 C   0  0  0  0  0  0  0  0  0  0  0  0
   -8.4360   -4.0334   10.5754 O   0  0  0  0  0  0  0  0  0  0  0  0
  -10.0660   -7.7857   13.1262 H   0  0  0  0  0  0  0  0  0  0  0  0
   -6.9564   -6.7217   11.5508 H   0  0  0  0  0  0  0  0  0  0  0  0
   -9.2338   -4.4419   10.1982 H   0  0  0  0  0  0  0  0  0  0  0  0
   -9.3589   -5.7815   15.9094 C   0  0  0  0  0  0  0  0  0  0  0  0
   -8.3300   -5.0437   16.5543 O   0  0  0  0  0  0  0  0  0  0  0  0
   -8.4911   -4.0973   16.3598 H   0  0  0  0  0  0  0  0  0  0  0  0
 14 15  1  0
 14 16  1  0
  2  3  1  0
  2  9  1  0
  2 15  1  0
  3  4  1  0
  4  5  1  0
  4  6  1  0
  5 11  1  0
  6  7  1  0
  6  1  1  0
  1 17  1  0
 17 18  1  0
 17 24  1  0
 18 19  1  0
 19 20  1  0
 19 29  1  0
 29 30  1  0
 30 31  1  0
 20 21  1  0
 20 22  1  0
 21 26  1  0
 22 23  1  0
 22 24  1  0
 23 27  1  0
 24 25  1  0
 25 28  1  0
  7  8  1  0
  7  9  1  0
  8 12  1  0
  9 10  1  0
 10 13  1  0
M  END
> <minimizedAffinity>
-5.50061

> <CNNscore>
0.9208292365

> <CNNaffinity>
3.0824639797

> <CNN_VS>
2.8384230137

> <CNNaffinity_variance>
0.4384436607

$$$$



 31 32  0  0  0  0  0  0  0  0999 V2000
   -8.6540   -2.2204   12.4307 O   0  0  0  0  0  0  0  0  0  0  0  0
  -11.2804    1.0669   12.2915 C   0  0  0  0  0  0  0  0  0  0  0  0
  -11.2820    0.1971   13.4250 O   0  0  0  0  0  0  0  0  0  0  0  0
  -10.1279   -0.6186   13.5261 C   0  0  0  0  0  0  0  0  0  0  0  0
  -10.3078   -1.3963   14.7028 O   0  0  0  0  0  0  0  0  0  0  0  0
   -9.9241   -1.5279   12.2920 C   0  0  0  0  0  0  0  0  0  0  0  0
   -9.9969   -0.6682   11.0070 C   0  0  0  0  0  0  0  0  0  0  0  0
  -10.0564   -1.4818    9.8153 O   0  0  0  0  0  0  0  0  0  0  0  0
  -11.2077    0.2666   10.9929 C   0  0  0  0  0  0  0  0  0  0  0  0
  -11.1407    1.1440    9.8613 O   0  0  0  0  0  0  0  0  0  0  0  0
  -11.1694   -1.8302   14.5878 H   0  0  0  0  0  0  0  0  0  0  0  0
  -10.9493   -1.8714    9.7625 H   0  0  0  0  0  0  0  0  0  0  0  0
  -10.2072    1.3336    9.6637 H   0  0  0  0  0  0  0  0  0  0  0  0
  -12.4431    3.0559   11.4778 O   0  0  0  0  0  0  0  0  0  0  0  0
  -12.5619    1.9192   12.3357 C   0  0  0  0  0  0  0  0  0  0  0  0
  -13.3348    3.4344   11.3892 H   0  0  0  0  0  0  0  0  0  0  0  0
   -8.6294   -3.4861   11.7698 C   0  0  0  0  0  0  0  0  0  0  0  0
   -9.9636   -3.8500   11.4241 O   0  0  0  0  0  0  0  0  0  0  0  0
  -10.0015   -4.9490   10.5231 C   0  0  0  0  0  0  0  0  0  0  0  0
   -9.4238   -6.2006   11.2005 C   0  0  0  0  0  0  0  0  0  0  0  0
   -9.3940   -7.2899   10.2669 O   0  0  0  0  0  0  0  0  0  0  0  0
   -8.0182   -5.8998   11.7650 C   0  0  0  0  0  0  0  0  0  0  0  0
   -7.5185   -7.0207   12.5022 O   0  0  0  0  0  0  0  0  0  0  0  0
   -7.9976   -4.6070   12.6179 C   0  0  0  0  0  0  0  0  0  0  0  0
   -6.6507   -4.2872   13.0007 O   0  0  0  0  0  0  0  0  0  0  0  0
   -8.6258   -7.1677    9.6774 H   0  0  0  0  0  0  0  0  0  0  0  0
   -8.0852   -7.1560   13.2817 H   0  0  0  0  0  0  0  0  0  0  0  0
   -6.0496   -4.5026   12.2673 H   0  0  0  0  0  0  0  0  0  0  0  0
  -11.4563   -5.1457   10.0806 C   0  0  0  0  0  0  0  0  0  0  0  0
  -11.5500   -5.8581    8.8548 O   0  0  0  0  0  0  0  0  0  0  0  0
  -11.0388   -6.6864    8.9649 H   0  0  0  0  0  0  0  0  0  0  0  0
 14 15  1  0
 14 16  1  0
  2  3  1  0
  2  9  1  0
  2 15  1  0
  3  4  1  0
  4  5  1  0
  4  6  1  0
  5 11  1  0
  6  7  1  0
  6  1  1  0
  1 17  1  0
 17 18  1  0
 17 24  1  0
 18 19  1  0
 19 20  1  0
 19 29  1  0
 29 30  1  0
 30 31  1  0
 20 21  1  0
 20 22  1  0
 21 26  1  0
 22 23  1  0
 22 24  1  0
 23 27  1  0
 24 25  1  0
 25 28  1  0
  7  8  1  0
  7  9  1  0
  8 12  1  0
  9 10  1  0
 10 13  1  0
M  END
> <minimizedAffinity>
-6.05735

> <CNNscore>
0.9181079865

> <CNNaffinity>
2.9872436523

> <CNN_VS>
2.7426123619

> <CNNaffinity_variance>
0.6054847240

$$$$



 31 32  0  0  0  0  0  0  0  0999 V2000
  -12.0388   -1.4005   11.4237 O   0  0  0  0  0  0  0  0  0  0  0  0
  -12.4577    2.7874   11.3245 C   0  0  0  0  0  0  0  0  0  0  0  0
  -11.4767    2.1467   10.5068 O   0  0  0  0  0  0  0  0  0  0  0  0
  -11.6840    0.7547   10.3432 C   0  0  0  0  0  0  0  0  0  0  0  0
  -10.6274    0.3038    9.5053 O   0  0  0  0  0  0  0  0  0  0  0  0
  -11.6882   -0.0145   11.6847 C   0  0  0  0  0  0  0  0  0  0  0  0
  -12.6688    0.6737   12.6647 C   0  0  0  0  0  0  0  0  0  0  0  0
  -12.5432    0.1565   14.0071 O   0  0  0  0  0  0  0  0  0  0  0  0
  -12.4684    2.1889   12.7295 C   0  0  0  0  0  0  0  0  0  0  0  0
  -13.4973    2.7893   13.5269 O   0  0  0  0  0  0  0  0  0  0  0  0
   -9.8137    0.5992    9.9462 H   0  0  0  0  0  0  0  0  0  0  0  0
  -11.7142    0.5043   14.3862 H   0  0  0  0  0  0  0  0  0  0  0  0
  -14.3167    2.2748   13.4244 H   0  0  0  0  0  0  0  0  0  0  0  0
  -13.2155    5.0591   10.8397 O   0  0  0  0  0  0  0  0  0  0  0  0
  -12.1353    4.2921   11.3753 C   0  0  0  0  0  0  0  0  0  0  0  0
  -13.0478    5.9862   11.0817 H   0  0  0  0  0  0  0  0  0  0  0  0
  -11.0997   -2.3292   11.9670 C   0  0  0  0  0  0  0  0  0  0  0  0
  -10.5083   -1.7568   13.1310 O   0  0  0  0  0  0  0  0  0  0  0  0
   -9.7783   -2.7151   13.8858 C   0  0  0  0  0  0  0  0  0  0  0  0
   -8.5885   -3.2320   13.0635 C   0  0  0  0  0  0  0  0  0  0  0  0
   -7.8960   -4.2525   13.7971 O   0  0  0  0  0  0  0  0  0  0  0  0
   -9.0741   -3.7508   11.6924 C   0  0  0  0  0  0  0  0  0  0  0  0
   -7.9632   -4.1245   10.8704 O   0  0  0  0  0  0  0  0  0  0  0  0
   -9.9906   -2.7291   10.9745 C   0  0  0  0  0  0  0  0  0  0  0  0
  -10.5338   -3.3064    9.7768 O   0  0  0  0  0  0  0  0  0  0  0  0
   -8.4022   -5.0834   13.7191 H   0  0  0  0  0  0  0  0  0  0  0  0
   -7.4415   -3.3268   10.6736 H   0  0  0  0  0  0  0  0  0  0  0  0
  -10.7315   -4.2454    9.9351 H   0  0  0  0  0  0  0  0  0  0  0  0
   -9.3359   -2.0472   15.1932 C   0  0  0  0  0  0  0  0  0  0  0  0
  -10.3590   -2.0729   16.1788 O   0  0  0  0  0  0  0  0  0  0  0  0
  -10.6454   -3.0051   16.2704 H   0  0  0  0  0  0  0  0  0  0  0  0
 14 15  1  0
 14 16  1  0
  2  3  1  0
  2  9  1  0
  2 15  1  0
  3  4  1  0
  4  5  1  0
  4  6  1  0
  5 11  1  0
  6  7  1  0
  6  1  1  0
  1 17  1  0
 17 18  1  0
 17 24  1  0
 18 19  1  0
 19 20  1  0
 19 29  1  0
 29 30  1  0
 30 31  1  0
 20 21  1  0
 20 22  1  0
 21 26  1  0
 22 23  1  0
 22 24  1  0
 23 27  1  0
 24 25  1  0
 25 28  1  0
  7  8  1  0
  7  9  1  0
  8 12  1  0
  9 10  1  0
 10 13  1  0
M  END
> <minimizedAffinity>
-4.80374

> <CNNscore>
0.8351086378

> <CNNaffinity>
3.3640544415

> <CNN_VS>
2.8093509674

> <CNNaffinity_variance>
0.1127633676

$$$$



 31 32  0  0  0  0  0  0  0  0999 V2000
  -10.8115   -2.8932   12.1780 O   0  0  0  0  0  0  0  0  0  0  0  0
   -7.1608   -3.1799   14.2551 C   0  0  0  0  0  0  0  0  0  0  0  0
   -7.2891   -3.7501   12.9514 O   0  0  0  0  0  0  0  0  0  0  0  0
   -8.4044   -3.2708   12.2208 C   0  0  0  0  0  0  0  0  0  0  0  0
   -8.3586   -3.9382   10.9661 O   0  0  0  0  0  0  0  0  0  0  0  0
   -9.7501   -3.5351   12.9353 C   0  0  0  0  0  0  0  0  0  0  0  0
   -9.6636   -3.0215   14.3928 C   0  0  0  0  0  0  0  0  0  0  0  0
  -10.7923   -3.4507   15.1849 O   0  0  0  0  0  0  0  0  0  0  0  0
   -8.3920   -3.4858   15.1052 C   0  0  0  0  0  0  0  0  0  0  0  0
   -8.2884   -2.8577   16.3897 O   0  0  0  0  0  0  0  0  0  0  0  0
   -8.3244   -4.8839   11.1858 H   0  0  0  0  0  0  0  0  0  0  0  0
  -10.6813   -4.4013   15.3746 H   0  0  0  0  0  0  0  0  0  0  0  0
   -8.6837   -1.9701   16.3397 H   0  0  0  0  0  0  0  0  0  0  0  0
   -5.4603   -4.9342   14.2300 O   0  0  0  0  0  0  0  0  0  0  0  0
   -5.8903   -3.7529   14.9094 C   0  0  0  0  0  0  0  0  0  0  0  0
   -4.5622   -5.1294   14.5486 H   0  0  0  0  0  0  0  0  0  0  0  0
  -10.7489   -1.4672   12.2213 C   0  0  0  0  0  0  0  0  0  0  0  0
  -11.6859   -0.9952   13.1863 O   0  0  0  0  0  0  0  0  0  0  0  0
  -11.4911    0.3793   13.4927 C   0  0  0  0  0  0  0  0  0  0  0  0
  -11.7577    1.2357   12.2459 C   0  0  0  0  0  0  0  0  0  0  0  0
  -11.4891    2.6152   12.5359 O   0  0  0  0  0  0  0  0  0  0  0  0
  -10.9065    0.7301   11.0607 C   0  0  0  0  0  0  0  0  0  0  0  0
  -11.2333    1.4425    9.8627 O   0  0  0  0  0  0  0  0  0  0  0  0
  -11.0362   -0.8006   10.8618 C   0  0  0  0  0  0  0  0  0  0  0  0
  -10.1221   -1.2480    9.8482 O   0  0  0  0  0  0  0  0  0  0  0  0
  -10.5230    2.7515   12.5102 H   0  0  0  0  0  0  0  0  0  0  0  0
  -12.1544    1.2393    9.6231 H   0  0  0  0  0  0  0  0  0  0  0  0
   -9.2929   -0.7450    9.9202 H   0  0  0  0  0  0  0  0  0  0  0  0
  -12.4228    0.7394   14.6561 C   0  0  0  0  0  0  0  0  0  0  0  0
  -13.6333    1.3325   14.2071 O   0  0  0  0  0  0  0  0  0  0  0  0
  -14.0210    0.7253   13.5434 H   0  0  0  0  0  0  0  0  0  0  0  0
 14 15  1  0
 14 16  1  0
  2  3  1  0
  2  9  1  0
  2 15  1  0
  3  4  1  0
  4  5  1  0
  4  6  1  0
  5 11  1  0
  6  7  1  0
  6  1  1  0
  1 17  1  0
 17 18  1  0
 17 24  1  0
 18 19  1  0
 19 20  1  0
 19 29  1  0
 29 30  1  0
 30 31  1  0
 20 21  1  0
 20 22  1  0
 21 26  1  0
 22 23  1  0
 22 24  1  0
 23 27  1  0
 24 25  1  0
 25 28  1  0
  7  8  1  0
  7  9  1  0
  8 12  1  0
  9 10  1  0
 10 13  1  0
M  END
> <minimizedAffinity>
-4.91644

> <CNNscore>
0.8073546290

> <CNNaffinity>
2.8257644176

> <CNN_VS>
2.2813940048

> <CNNaffinity_variance>
0.6479610801

$$$$



 31 32  0  0  0  0  0  0  0  0999 V2000
  -10.5116   -1.6973   10.6444 O   0  0  0  0  0  0  0  0  0  0  0  0
  -10.8462   -5.8586   11.1879 C   0  0  0  0  0  0  0  0  0  0  0  0
  -11.8852   -4.9913   11.6457 O   0  0  0  0  0  0  0  0  0  0  0  0
  -11.8409   -3.6924   11.0815 C   0  0  0  0  0  0  0  0  0  0  0  0
  -12.9418   -2.9902   11.6443 O   0  0  0  0  0  0  0  0  0  0  0  0
  -10.5126   -2.9556   11.3716 C   0  0  0  0  0  0  0  0  0  0  0  0
   -9.3261   -3.8699   10.9818 C   0  0  0  0  0  0  0  0  0  0  0  0
   -8.0639   -3.3454   11.4479 O   0  0  0  0  0  0  0  0  0  0  0  0
   -9.4719   -5.2893   11.5334 C   0  0  0  0  0  0  0  0  0  0  0  0
   -8.4320   -6.1293   11.0157 O   0  0  0  0  0  0  0  0  0  0  0  0
  -12.8311   -3.0784   12.6054 H   0  0  0  0  0  0  0  0  0  0  0  0
   -8.0211   -3.4803   12.4132 H   0  0  0  0  0  0  0  0  0  0  0  0
   -8.2038   -5.8321   10.1179 H   0  0  0  0  0  0  0  0  0  0  0  0
  -11.8172   -8.0927   10.9970 O   0  0  0  0  0  0  0  0  0  0  0  0
  -11.0455   -7.2377   11.8429 C   0  0  0  0  0  0  0  0  0  0  0  0
  -11.7369   -8.9918   11.3593 H   0  0  0  0  0  0  0  0  0  0  0  0
  -10.5156   -0.5542   11.5003 C   0  0  0  0  0  0  0  0  0  0  0  0
  -10.8821   -0.9657   12.8151 O   0  0  0  0  0  0  0  0  0  0  0  0
  -10.6390    0.0494   13.7801 C   0  0  0  0  0  0  0  0  0  0  0  0
  -11.5313    1.2666   13.4946 C   0  0  0  0  0  0  0  0  0  0  0  0
  -11.2324    2.3183   14.4239 O   0  0  0  0  0  0  0  0  0  0  0  0
  -11.3458    1.7319   12.0338 C   0  0  0  0  0  0  0  0  0  0  0  0
  -12.2584    2.7892   11.7198 O   0  0  0  0  0  0  0  0  0  0  0  0
  -11.4707    0.5597   11.0290 C   0  0  0  0  0  0  0  0  0  0  0  0
  -11.1495    1.0074    9.7026 O   0  0  0  0  0  0  0  0  0  0  0  0
  -10.4130    2.7614   14.1325 H   0  0  0  0  0  0  0  0  0  0  0  0
  -13.1654    2.4391   11.7651 H   0  0  0  0  0  0  0  0  0  0  0  0
  -10.4216    1.6506    9.7493 H   0  0  0  0  0  0  0  0  0  0  0  0
  -10.8970   -0.5485   15.1683 C   0  0  0  0  0  0  0  0  0  0  0  0
  -10.9066   -1.9691   15.1445 O   0  0  0  0  0  0  0  0  0  0  0  0
  -10.0693   -2.2544   14.7236 H   0  0  0  0  0  0  0  0  0  0  0  0
 14 15  1  0
 14 16  1  0
  2  3  1  0
  2  9  1  0
  2 15  1  0
  3  4  1  0
  4  5  1  0
  4  6  1  0
  5 11  1  0
  6  7  1  0
  6  1  1  0
  1 17  1  0
 17 18  1  0
 17 24  1  0
 18 19  1  0
 19 20  1  0
 19 29  1  0
 29 30  1  0
 30 31  1  0
 20 21  1  0
 20 22  1  0
 21 26  1  0
 22 23  1  0
 22 24  1  0
 23 27  1  0
 24 25  1  0
 25 28  1  0
  7  8  1  0
  7  9  1  0
  8 12  1  0
  9 10  1  0
 10 13  1  0
M  END
> <minimizedAffinity>
-4.95675

> <CNNscore>
0.8055114150

> <CNNaffinity>
2.7838141918

> <CNN_VS>
2.2423942089

> <CNNaffinity_variance>
0.6539566517

$$$$



 31 32  0  0  0  0  0  0  0  0999 V2000
   -9.3617   -3.0215   13.1523 O   0  0  0  0  0  0  0  0  0  0  0  0
   -9.6538   -7.1536   12.4012 C   0  0  0  0  0  0  0  0  0  0  0  0
   -8.9985   -6.2999   11.4614 O   0  0  0  0  0  0  0  0  0  0  0  0
   -8.6363   -5.0353   11.9877 C   0  0  0  0  0  0  0  0  0  0  0  0
   -7.9994   -4.3426   10.9218 O   0  0  0  0  0  0  0  0  0  0  0  0
   -9.8486   -4.2345   12.5170 C   0  0  0  0  0  0  0  0  0  0  0  0
  -10.6668   -5.1256   13.4825 C   0  0  0  0  0  0  0  0  0  0  0  0
  -11.9368   -4.5286   13.8236 O   0  0  0  0  0  0  0  0  0  0  0  0
  -10.9458   -6.5149   12.9061 C   0  0  0  0  0  0  0  0  0  0  0  0
  -11.5666   -7.3447   13.8966 O   0  0  0  0  0  0  0  0  0  0  0  0
   -8.6357   -4.3706   10.1883 H   0  0  0  0  0  0  0  0  0  0  0  0
  -12.5224   -4.6054   13.0471 H   0  0  0  0  0  0  0  0  0  0  0  0
  -11.2321   -7.0920   14.7746 H   0  0  0  0  0  0  0  0  0  0  0  0
   -8.9827   -8.7591   10.6859 O   0  0  0  0  0  0  0  0  0  0  0  0
   -9.9443   -8.4986   11.7103 C   0  0  0  0  0  0  0  0  0  0  0  0
   -9.0899   -9.6918   10.4316 H   0  0  0  0  0  0  0  0  0  0  0  0
  -10.0105   -1.8405   12.6793 C   0  0  0  0  0  0  0  0  0  0  0  0
  -11.3983   -1.9207   12.9953 O   0  0  0  0  0  0  0  0  0  0  0  0
  -12.0605   -0.6759   12.8140 C   0  0  0  0  0  0  0  0  0  0  0  0
  -12.0254   -0.2761   11.3314 C   0  0  0  0  0  0  0  0  0  0  0  0
  -12.6284    1.0147   11.1606 O   0  0  0  0  0  0  0  0  0  0  0  0
  -10.5723   -0.2960   10.8089 C   0  0  0  0  0  0  0  0  0  0  0  0
  -10.5376   -0.0421    9.4004 O   0  0  0  0  0  0  0  0  0  0  0  0
   -9.8439   -1.6162   11.1638 C   0  0  0  0  0  0  0  0  0  0  0  0
   -8.4598   -1.5349   10.7889 O   0  0  0  0  0  0  0  0  0  0  0  0
  -11.9819    1.6936   11.4322 H   0  0  0  0  0  0  0  0  0  0  0  0
  -10.9857   -0.7747    8.9425 H   0  0  0  0  0  0  0  0  0  0  0  0
   -8.1344   -0.6342   10.9585 H   0  0  0  0  0  0  0  0  0  0  0  0
  -13.4921   -0.8222   13.3436 C   0  0  0  0  0  0  0  0  0  0  0  0
  -14.1163    0.4374   13.5502 O   0  0  0  0  0  0  0  0  0  0  0  0
  -14.0379    0.9371   12.7113 H   0  0  0  0  0  0  0  0  0  0  0  0
 14 15  1  0
 14 16  1  0
  2  3  1  0
  2  9  1  0
  2 15  1  0
  3  4  1  0
  4  5  1  0
  4  6  1  0
  5 11  1  0
  6  7  1  0
  6  1  1  0
  1 17  1  0
 17 18  1  0
 17 24  1  0
 18 19  1  0
 19 20  1  0
 19 29  1  0
 29 30  1  0
 30 31  1  0
 20 21  1  0
 20 22  1  0
 21 26  1  0
 22 23  1  0
 22 24  1  0
 23 27  1  0
 24 25  1  0
 25 28  1  0
  7  8  1  0
  7  9  1  0
  8 12  1  0
  9 10  1  0
 10 13  1  0
M  END
> <minimizedAffinity>
-5.12419

> <CNNscore>
0.7474427223

> <CNNaffinity>
3.2829933167

> <CNN_VS>
2.4538495541

> <CNNaffinity_variance>
0.2257217765

$$$$



 31 32  0  0  0  0  0  0  0  0999 V2000
  -11.7117   -0.4028   12.3521 O   0  0  0  0  0  0  0  0  0  0  0  0
  -12.2794    3.7550   12.0142 C   0  0  0  0  0  0  0  0  0  0  0  0
  -11.7271    3.0171   10.9225 O   0  0  0  0  0  0  0  0  0  0  0  0
  -11.9356    1.6184   11.0093 C   0  0  0  0  0  0  0  0  0  0  0  0
  -11.3306    1.0659    9.8472 O   0  0  0  0  0  0  0  0  0  0  0  0
  -11.3317    0.9987   12.2910 C   0  0  0  0  0  0  0  0  0  0  0  0
  -11.8152    1.8014   13.5228 C   0  0  0  0  0  0  0  0  0  0  0  0
  -11.1028    1.4306   14.7230 O   0  0  0  0  0  0  0  0  0  0  0  0
  -11.6599    3.3120   13.3379 C   0  0  0  0  0  0  0  0  0  0  0  0
  -12.2628    4.0083   14.4364 O   0  0  0  0  0  0  0  0  0  0  0  0
  -10.4172    1.3966    9.8583 H   0  0  0  0  0  0  0  0  0  0  0  0
  -10.2042    1.8064   14.6666 H   0  0  0  0  0  0  0  0  0  0  0  0
  -13.0271    3.4965   14.7532 H   0  0  0  0  0  0  0  0  0  0  0  0
  -10.7889    5.6591   12.3656 O   0  0  0  0  0  0  0  0  0  0  0  0
  -12.0200    5.2521   11.7648 C   0  0  0  0  0  0  0  0  0  0  0  0
  -10.5807    6.5397   12.0087 H   0  0  0  0  0  0  0  0  0  0  0  0
  -10.6300   -1.2908   12.0682 C   0  0  0  0  0  0  0  0  0  0  0  0
  -11.1125   -2.3574   11.2546 O   0  0  0  0  0  0  0  0  0  0  0  0
  -10.0540   -3.1258   10.6977 C   0  0  0  0  0  0  0  0  0  0  0  0
   -9.2673   -3.8215   11.8185 C   0  0  0  0  0  0  0  0  0  0  0  0
   -8.1550   -4.5367   11.2613 O   0  0  0  0  0  0  0  0  0  0  0  0
   -8.8066   -2.7862   12.8676 C   0  0  0  0  0  0  0  0  0  0  0  0
   -8.1764   -3.4357   13.9768 O   0  0  0  0  0  0  0  0  0  0  0  0
   -9.9676   -1.8721   13.3324 C   0  0  0  0  0  0  0  0  0  0  0  0
   -9.4688   -0.8364   14.1936 O   0  0  0  0  0  0  0  0  0  0  0  0
   -7.4457   -3.8956   11.0645 H   0  0  0  0  0  0  0  0  0  0  0  0
   -8.8390   -3.9851   14.4311 H   0  0  0  0  0  0  0  0  0  0  0  0
   -8.5990   -0.5437   13.8718 H   0  0  0  0  0  0  0  0  0  0  0  0
  -10.6667   -4.1255    9.7096 C   0  0  0  0  0  0  0  0  0  0  0  0
   -9.6735   -4.8728    9.0212 O   0  0  0  0  0  0  0  0  0  0  0  0
   -9.0921   -5.2715    9.7013 H   0  0  0  0  0  0  0  0  0  0  0  0
 14 15  1  0
 14 16  1  0
  2  3  1  0
  2  9  1  0
  2 15  1  0
  3  4  1  0
  4  5  1  0
  4  6  1  0
  5 11  1  0
  6  7  1  0
  6  1  1  0
  1 17  1  0
 17 18  1  0
 17 24  1  0
 18 19  1  0
 19 20  1  0
 19 29  1  0
 29 30  1  0
 30 31  1  0
 20 21  1  0
 20 22  1  0
 21 26  1  0
 22 23  1  0
 22 24  1  0
 23 27  1  0
 24 25  1  0
 25 28  1  0
  7  8  1  0
  7  9  1  0
  8 12  1  0
  9 10  1  0
 10 13  1  0
M  END
> <minimizedAffinity>
-5.43426

> <CNNscore>
0.7038949728

> <CNNaffinity>
3.3292140961

> <CNN_VS>
2.3434171677

> <CNNaffinity_variance>
0.3072160184

$$$$



 31 32  0  0  0  0  0  0  0  0999 V2000
  -10.0129   -2.7249   10.3607 O   0  0  0  0  0  0  0  0  0  0  0  0
   -9.2460   -6.8446   10.7661 C   0  0  0  0  0  0  0  0  0  0  0  0
  -10.5922   -6.3676   10.7278 O   0  0  0  0  0  0  0  0  0  0  0  0
  -10.7224   -5.0519   10.2186 C   0  0  0  0  0  0  0  0  0  0  0  0
  -12.1140   -4.7621   10.2514 O   0  0  0  0  0  0  0  0  0  0  0  0
   -9.9243   -4.0091   11.0353 C   0  0  0  0  0  0  0  0  0  0  0  0
   -8.4646   -4.4971   11.1984 C   0  0  0  0  0  0  0  0  0  0  0  0
   -7.7300   -3.6959   12.1492 O   0  0  0  0  0  0  0  0  0  0  0  0
   -8.3796   -5.9548   11.6547 C   0  0  0  0  0  0  0  0  0  0  0  0
   -7.0165   -6.3983   11.6388 O   0  0  0  0  0  0  0  0  0  0  0  0
  -12.3838   -4.9289   11.1696 H   0  0  0  0  0  0  0  0  0  0  0  0
   -8.0455   -3.9268   13.0431 H   0  0  0  0  0  0  0  0  0  0  0  0
   -6.5452   -5.9442   10.9189 H   0  0  0  0  0  0  0  0  0  0  0  0
   -8.1233   -9.0141   10.8195 O   0  0  0  0  0  0  0  0  0  0  0  0
   -9.2615   -8.2913   11.2928 C   0  0  0  0  0  0  0  0  0  0  0  0
   -8.0781   -9.8360   11.3378 H   0  0  0  0  0  0  0  0  0  0  0  0
  -10.0169   -1.6166   11.2613 C   0  0  0  0  0  0  0  0  0  0  0  0
  -10.4396   -2.0693   12.5453 O   0  0  0  0  0  0  0  0  0  0  0  0
  -10.2039   -1.0999   13.5580 C   0  0  0  0  0  0  0  0  0  0  0  0
  -11.0535    0.1516   13.2917 C   0  0  0  0  0  0  0  0  0  0  0  0
  -10.7599    1.1574   14.2721 O   0  0  0  0  0  0  0  0  0  0  0  0
  -10.8050    0.6687   11.8579 C   0  0  0  0  0  0  0  0  0  0  0  0
  -11.6781    1.7623   11.5559 O   0  0  0  0  0  0  0  0  0  0  0  0
  -10.9254   -0.4592   10.8031 C   0  0  0  0  0  0  0  0  0  0  0  0
  -10.5464    0.0312    9.5074 O   0  0  0  0  0  0  0  0  0  0  0  0
   -9.9194    1.5889   14.0267 H   0  0  0  0  0  0  0  0  0  0  0  0
  -12.5949    1.4358   11.5564 H   0  0  0  0  0  0  0  0  0  0  0  0
   -9.8040    0.6518    9.6045 H   0  0  0  0  0  0  0  0  0  0  0  0
  -10.5258   -1.7447   14.9115 C   0  0  0  0  0  0  0  0  0  0  0  0
  -11.7950   -1.3414   15.4068 O   0  0  0  0  0  0  0  0  0  0  0  0
  -12.4489   -1.5218   14.7001 H   0  0  0  0  0  0  0  0  0  0  0  0
 14 15  1  0
 14 16  1  0
  2  3  1  0
  2  9  1  0
  2 15  1  0
  3  4  1  0
  4  5  1  0
  4  6  1  0
  5 11  1  0
  6  7  1  0
  6  1  1  0
  1 17  1  0
 17 18  1  0
 17 24  1  0
 18 19  1  0
 19 20  1  0
 19 29  1  0
 29 30  1  0
 30 31  1  0
 20 21  1  0
 20 22  1  0
 21 26  1  0
 22 23  1  0
 22 24  1  0
 23 27  1  0
 24 25  1  0
 25 28  1  0
  7  8  1  0
  7  9  1  0
  8 12  1  0
  9 10  1  0
 10 13  1  0
M  END
> <minimizedAffinity>
-5.70171

> <CNNscore>
0.6811149716

> <CNNaffinity>
3.0284843445

> <CNN_VS>
2.0627460480

> <CNNaffinity_variance>
0.3793614209

$$$$



 31 32  0  0  0  0  0  0  0  0999 V2000
   -9.7743   -4.0360   12.6340 O   0  0  0  0  0  0  0  0  0  0  0  0
  -11.2612   -0.2084   11.7049 C   0  0  0  0  0  0  0  0  0  0  0  0
  -10.8208   -1.0781   10.6603 O   0  0  0  0  0  0  0  0  0  0  0  0
  -10.7071   -2.4352   11.0509 C   0  0  0  0  0  0  0  0  0  0  0  0
  -10.2709   -3.1343    9.8922 O   0  0  0  0  0  0  0  0  0  0  0  0
   -9.7196   -2.6431   12.2227 C   0  0  0  0  0  0  0  0  0  0  0  0
  -10.0772   -1.6684   13.3706 C   0  0  0  0  0  0  0  0  0  0  0  0
   -9.0564   -1.6385   14.3918 O   0  0  0  0  0  0  0  0  0  0  0  0
  -10.2867   -0.2345   12.8804 C   0  0  0  0  0  0  0  0  0  0  0  0
  -10.7650    0.5886   13.9521 O   0  0  0  0  0  0  0  0  0  0  0  0
   -9.4676   -2.6691    9.6057 H   0  0  0  0  0  0  0  0  0  0  0  0
   -8.2916   -1.1475   14.0370 H   0  0  0  0  0  0  0  0  0  0  0  0
  -11.3161    0.0476   14.5438 H   0  0  0  0  0  0  0  0  0  0  0  0
  -11.1885    1.2052    9.7133 O   0  0  0  0  0  0  0  0  0  0  0  0
  -11.3828    1.2143   11.1290 C   0  0  0  0  0  0  0  0  0  0  0  0
  -11.4746    2.0753    9.3857 H   0  0  0  0  0  0  0  0  0  0  0  0
   -8.6212   -4.7825   12.2436 C   0  0  0  0  0  0  0  0  0  0  0  0
   -8.9701   -6.1628   12.1718 O   0  0  0  0  0  0  0  0  0  0  0  0
   -7.9671   -6.9345   11.5242 C   0  0  0  0  0  0  0  0  0  0  0  0
   -6.6720   -6.9068   12.3494 C   0  0  0  0  0  0  0  0  0  0  0  0
   -5.6388   -7.6242   11.6587 O   0  0  0  0  0  0  0  0  0  0  0  0
   -6.2542   -5.4480   12.6359 C   0  0  0  0  0  0  0  0  0  0  0  0
   -5.1165   -5.4086   13.5040 O   0  0  0  0  0  0  0  0  0  0  0  0
   -7.4259   -4.6068   13.2004 C   0  0  0  0  0  0  0  0  0  0  0  0
   -7.0368   -3.2291   13.3154 O   0  0  0  0  0  0  0  0  0  0  0  0
   -5.2854   -7.0495   10.9533 H   0  0  0  0  0  0  0  0  0  0  0  0
   -5.3730   -5.7770   14.3675 H   0  0  0  0  0  0  0  0  0  0  0  0
   -6.4691   -2.9927   12.5620 H   0  0  0  0  0  0  0  0  0  0  0  0
   -8.5109   -8.3566   11.3421 C   0  0  0  0  0  0  0  0  0  0  0  0
   -9.7267   -8.3734   10.6071 O   0  0  0  0  0  0  0  0  0  0  0  0
   -9.5642   -7.8860    9.7731 H   0  0  0  0  0  0  0  0  0  0  0  0
 14 15  1  0
 14 16  1  0
  2  3  1  0
  2  9  1  0
  2 15  1  0
  3  4  1  0
  4  5  1  0
  4  6  1  0
  5 11  1  0
  6  7  1  0
  6  1  1  0
  1 17  1  0
 17 18  1  0
 17 24  1  0
 18 19  1  0
 19 20  1  0
 19 29  1  0
 29 30  1  0
 30 31  1  0
 20 21  1  0
 20 22  1  0
 21 26  1  0
 22 23  1  0
 22 24  1  0
 23 27  1  0
 24 25  1  0
 25 28  1  0
  7  8  1  0
  7  9  1  0
  8 12  1  0
  9 10  1  0
 10 13  1  0
M  END
> <minimizedAffinity>
-6.15825

> <CNNscore>
0.6180169582

> <CNNaffinity>
3.1128165722

> <CNN_VS>
1.9237734079

> <CNNaffinity_variance>
0.2069291919

$$$$



 31 32  0  0  0  0  0  0  0  0999 V2000
  -10.4335   -2.4440   11.4805 O   0  0  0  0  0  0  0  0  0  0  0  0
  -12.6813    1.0284   12.2640 C   0  0  0  0  0  0  0  0  0  0  0  0
  -13.2208   -0.2581   12.5726 O   0  0  0  0  0  0  0  0  0  0  0  0
  -12.2528   -1.2916   12.6209 C   0  0  0  0  0  0  0  0  0  0  0  0
  -12.9698   -2.4760   12.9444 O   0  0  0  0  0  0  0  0  0  0  0  0
  -11.4857   -1.4599   11.2888 C   0  0  0  0  0  0  0  0  0  0  0  0
  -10.9395   -0.0840   10.8369 C   0  0  0  0  0  0  0  0  0  0  0  0
  -10.4243   -0.1235    9.4884 O   0  0  0  0  0  0  0  0  0  0  0  0
  -11.9989    1.0178   10.8979 C   0  0  0  0  0  0  0  0  0  0  0  0
  -11.4028    2.2917   10.6205 O   0  0  0  0  0  0  0  0  0  0  0  0
  -13.6726   -2.5347   12.2763 H   0  0  0  0  0  0  0  0  0  0  0  0
  -11.1842   -0.1691    8.8783 H   0  0  0  0  0  0  0  0  0  0  0  0
  -10.4878    2.2907   10.9512 H   0  0  0  0  0  0  0  0  0  0  0  0
  -15.0163    1.4979   11.7186 O   0  0  0  0  0  0  0  0  0  0  0  0
  -13.8305    2.0527   12.2916 C   0  0  0  0  0  0  0  0  0  0  0  0
  -15.7454    2.1005   11.9456 H   0  0  0  0  0  0  0  0  0  0  0  0
  -10.6255   -3.6292   10.7074 C   0  0  0  0  0  0  0  0  0  0  0  0
  -11.9483   -4.1127   10.9283 O   0  0  0  0  0  0  0  0  0  0  0  0
  -12.3135   -5.1176    9.9914 C   0  0  0  0  0  0  0  0  0  0  0  0
  -11.4170   -6.3515   10.1722 C   0  0  0  0  0  0  0  0  0  0  0  0
  -11.7368   -7.3359    9.1782 O   0  0  0  0  0  0  0  0  0  0  0  0
   -9.9291   -5.9430   10.1065 C   0  0  0  0  0  0  0  0  0  0  0  0
   -9.0839   -7.0625   10.3923 O   0  0  0  0  0  0  0  0  0  0  0  0
   -9.6130   -4.7439   11.0347 C   0  0  0  0  0  0  0  0  0  0  0  0
   -8.2596   -4.3061   10.8354 O   0  0  0  0  0  0  0  0  0  0  0  0
  -11.3204   -7.0686    8.3368 H   0  0  0  0  0  0  0  0  0  0  0  0
   -9.2348   -7.3372   11.3137 H   0  0  0  0  0  0  0  0  0  0  0  0
   -8.0353   -4.3786    9.8919 H   0  0  0  0  0  0  0  0  0  0  0  0
  -13.7976   -5.4406   10.2013 C   0  0  0  0  0  0  0  0  0  0  0  0
  -14.4190   -5.8963    9.0076 O   0  0  0  0  0  0  0  0  0  0  0  0
  -13.8802   -6.6417    8.6705 H   0  0  0  0  0  0  0  0  0  0  0  0
 14 15  1  0
 14 16  1  0
  2  3  1  0
  2  9  1  0
  2 15  1  0
  3  4  1  0
  4  5  1  0
  4  6  1  0
  5 11  1  0
  6  7  1  0
  6  1  1  0
  1 17  1  0
 17 18  1  0
 17 24  1  0
 18 19  1  0
 19 20  1  0
 19 29  1  0
 29 30  1  0
 30 31  1  0
 20 21  1  0
 20 22  1  0
 21 26  1  0
 22 23  1  0
 22 24  1  0
 23 27  1  0
 24 25  1  0
 25 28  1  0
  7  8  1  0
  7  9  1  0
  8 12  1  0
  9 10  1  0
 10 13  1  0
M  END
> <minimizedAffinity>
-5.64456

> <CNNscore>
0.4991013706

> <CNNaffinity>
3.0919029713

> <CNN_VS>
1.5431729555

> <CNNaffinity_variance>
0.5176854730

$$$$



 31 32  0  0  0  0  0  0  0  0999 V2000
   -9.3528   -1.6724   14.7129 O   0  0  0  0  0  0  0  0  0  0  0  0
  -10.1515   -4.8539   12.0740 C   0  0  0  0  0  0  0  0  0  0  0  0
  -10.5959   -4.9203   13.4302 O   0  0  0  0  0  0  0  0  0  0  0  0
  -10.6057   -3.6689   14.0946 C   0  0  0  0  0  0  0  0  0  0  0  0
  -11.0776   -3.9344   15.4093 O   0  0  0  0  0  0  0  0  0  0  0  0
   -9.2127   -2.9986   14.1353 C   0  0  0  0  0  0  0  0  0  0  0  0
   -8.6197   -2.9665   12.7060 C   0  0  0  0  0  0  0  0  0  0  0  0
   -7.2291   -2.5768   12.7066 O   0  0  0  0  0  0  0  0  0  0  0  0
   -8.7238   -4.3175   11.9959 C   0  0  0  0  0  0  0  0  0  0  0  0
   -8.3050   -4.1911   10.6308 O   0  0  0  0  0  0  0  0  0  0  0  0
  -10.4930   -4.6316   15.7499 H   0  0  0  0  0  0  0  0  0  0  0  0
   -6.7075   -3.3274   13.0475 H   0  0  0  0  0  0  0  0  0  0  0  0
   -8.5358   -3.3017   10.3109 H   0  0  0  0  0  0  0  0  0  0  0  0
   -9.9954   -6.2296   10.0607 O   0  0  0  0  0  0  0  0  0  0  0  0
  -10.2368   -6.2670   11.4687 C   0  0  0  0  0  0  0  0  0  0  0  0
   -9.8601   -7.1495    9.7751 H   0  0  0  0  0  0  0  0  0  0  0  0
  -10.3349   -0.8731   14.0527 C   0  0  0  0  0  0  0  0  0  0  0  0
   -9.9379   -0.6844   12.6966 O   0  0  0  0  0  0  0  0  0  0  0  0
  -10.9864   -0.1442   11.9030 C   0  0  0  0  0  0  0  0  0  0  0  0
  -11.3451    1.2644   12.3991 C   0  0  0  0  0  0  0  0  0  0  0  0
  -12.4526    1.7789   11.6455 O   0  0  0  0  0  0  0  0  0  0  0  0
  -11.6550    1.2333   13.9117 C   0  0  0  0  0  0  0  0  0  0  0  0
  -11.8739    2.5572   14.4107 O   0  0  0  0  0  0  0  0  0  0  0  0
  -10.5534    0.5002   14.7169 C   0  0  0  0  0  0  0  0  0  0  0  0
  -10.9491    0.3676   16.0912 O   0  0  0  0  0  0  0  0  0  0  0  0
  -13.2715    1.3728   11.9876 H   0  0  0  0  0  0  0  0  0  0  0  0
  -11.0448    3.0602   14.3281 H   0  0  0  0  0  0  0  0  0  0  0  0
  -11.9051    0.1943   16.1338 H   0  0  0  0  0  0  0  0  0  0  0  0
  -10.5203   -0.1457   10.4422 C   0  0  0  0  0  0  0  0  0  0  0  0
  -11.0240    0.9695    9.7199 O   0  0  0  0  0  0  0  0  0  0  0  0
  -10.7828    1.7721   10.2270 H   0  0  0  0  0  0  0  0  0  0  0  0
 14 15  1  0
 14 16  1  0
  2  3  1  0
  2  9  1  0
  2 15  1  0
  3  4  1  0
  4  5  1  0
  4  6  1  0
  5 11  1  0
  6  7  1  0
  6  1  1  0
  1 17  1  0
 17 18  1  0
 17 24  1  0
 18 19  1  0
 19 20  1  0
 19 29  1  0
 29 30  1  0
 30 31  1  0
 20 21  1  0
 20 22  1  0
 21 26  1  0
 22 23  1  0
 22 24  1  0
 23 27  1  0
 24 25  1  0
 25 28  1  0
  7  8  1  0
  7  9  1  0
  8 12  1  0
  9 10  1  0
 10 13  1  0
M  END
> <minimizedAffinity>
-4.94521

> <CNNscore>
0.4777164161

> <CNNaffinity>
2.4656574726

> <CNN_VS>
1.1778850555

> <CNNaffinity_variance>
1.1040431261

$$$$



 31 32  0  0  0  0  0  0  0  0999 V2000
  -11.6111   -5.4328   11.5309 O   0  0  0  0  0  0  0  0  0  0  0  0
  -11.0084   -1.2663   11.5102 C   0  0  0  0  0  0  0  0  0  0  0  0
  -12.3289   -1.7989   11.3928 O   0  0  0  0  0  0  0  0  0  0  0  0
  -12.4395   -3.1554   11.7868 C   0  0  0  0  0  0  0  0  0  0  0  0
  -13.8080   -3.4978   11.6092 O   0  0  0  0  0  0  0  0  0  0  0  0
  -11.5264   -4.0962   10.9667 C   0  0  0  0  0  0  0  0  0  0  0  0
  -10.0829   -3.5380   10.9709 C   0  0  0  0  0  0  0  0  0  0  0  0
   -9.2331   -4.2301   10.0304 O   0  0  0  0  0  0  0  0  0  0  0  0
  -10.0285   -2.0462   10.6363 C   0  0  0  0  0  0  0  0  0  0  0  0
   -8.6942   -1.5505   10.8064 O   0  0  0  0  0  0  0  0  0  0  0  0
  -14.0063   -3.2691   10.6861 H   0  0  0  0  0  0  0  0  0  0  0  0
   -9.4821   -3.9413    9.1324 H   0  0  0  0  0  0  0  0  0  0  0  0
   -8.2648   -2.0413   11.5284 H   0  0  0  0  0  0  0  0  0  0  0  0
  -10.7262    0.3631    9.7113 O   0  0  0  0  0  0  0  0  0  0  0  0
  -11.0476    0.2161   11.0959 C   0  0  0  0  0  0  0  0  0  0  0  0
  -10.9632    1.2734    9.4638 H   0  0  0  0  0  0  0  0  0  0  0  0
  -10.7630   -5.6185   12.6647 C   0  0  0  0  0  0  0  0  0  0  0  0
   -9.4939   -6.0890   12.2172 O   0  0  0  0  0  0  0  0  0  0  0  0
   -8.5106   -6.0313   13.2423 C   0  0  0  0  0  0  0  0  0  0  0  0
   -8.8922   -6.9817   14.3869 C   0  0  0  0  0  0  0  0  0  0  0  0
   -7.9386   -6.8677   15.4531 O   0  0  0  0  0  0  0  0  0  0  0  0
  -10.3259   -6.6792   14.8746 C   0  0  0  0  0  0  0  0  0  0  0  0
  -10.7377   -7.6341   15.8585 O   0  0  0  0  0  0  0  0  0  0  0  0
  -11.3358   -6.6032   13.7026 C   0  0  0  0  0  0  0  0  0  0  0  0
  -12.6214   -6.1791   14.1827 O   0  0  0  0  0  0  0  0  0  0  0  0
   -8.1420   -6.0597   15.9614 H   0  0  0  0  0  0  0  0  0  0  0  0
  -10.7886   -8.5101   15.4376 H   0  0  0  0  0  0  0  0  0  0  0  0
  -12.4987   -5.5135   14.8811 H   0  0  0  0  0  0  0  0  0  0  0  0
   -7.1566   -6.3873   12.6171 C   0  0  0  0  0  0  0  0  0  0  0  0
   -6.8339   -5.5396   11.5234 O   0  0  0  0  0  0  0  0  0  0  0  0
   -6.9081   -4.6171   11.8443 H   0  0  0  0  0  0  0  0  0  0  0  0
 14 15  1  0
 14 16  1  0
  2  3  1  0
  2  9  1  0
  2 15  1  0
  3  4  1  0
  4  5  1  0
  4  6  1  0
  5 11  1  0
  6  7  1  0
  6  1  1  0
  1 17  1  0
 17 18  1  0
 17 24  1  0
 18 19  1  0
 19 20  1  0
 19 29  1  0
 29 30  1  0
 30 31  1  0
 20 21  1  0
 20 22  1  0
 21 26  1  0
 22 23  1  0
 22 24  1  0
 23 27  1  0
 24 25  1  0
 25 28  1  0
  7  8  1  0
  7  9  1  0
  8 12  1  0
  9 10  1  0
 10 13  1  0
M  END
> <minimizedAffinity>
-4.77037

> <CNNscore>
0.4081574976

> <CNNaffinity>
3.1075022221

> <CNN_VS>
1.2683503628

> <CNNaffinity_variance>
0.5052536726

$$$$



 31 32  0  0  0  0  0  0  0  0999 V2000
   -9.3707   -3.6262   13.6789 O   0  0  0  0  0  0  0  0  0  0  0  0
  -11.5869   -5.3870   10.5624 C   0  0  0  0  0  0  0  0  0  0  0  0
  -11.6052   -5.9651   11.8688 O   0  0  0  0  0  0  0  0  0  0  0  0
  -11.1472   -5.0956   12.8895 C   0  0  0  0  0  0  0  0  0  0  0  0
  -11.2460   -5.8360   14.0993 O   0  0  0  0  0  0  0  0  0  0  0  0
   -9.6975   -4.6091   12.6594 C   0  0  0  0  0  0  0  0  0  0  0  0
   -9.5704   -4.0439   11.2242 C   0  0  0  0  0  0  0  0  0  0  0  0
   -8.1948   -3.7962   10.8608 O   0  0  0  0  0  0  0  0  0  0  0  0
  -10.1692   -4.9767   10.1699 C   0  0  0  0  0  0  0  0  0  0  0  0
  -10.1646   -4.3383    8.8864 O   0  0  0  0  0  0  0  0  0  0  0  0
  -10.7488   -6.6541   13.9344 H   0  0  0  0  0  0  0  0  0  0  0  0
   -7.7673   -4.6583   10.7000 H   0  0  0  0  0  0  0  0  0  0  0  0
  -10.2859   -3.3809    9.0096 H   0  0  0  0  0  0  0  0  0  0  0  0
  -11.0956   -7.1908    8.9891 O   0  0  0  0  0  0  0  0  0  0  0  0
  -12.1500   -6.4204    9.5696 C   0  0  0  0  0  0  0  0  0  0  0  0
  -11.5145   -7.9451    8.5399 H   0  0  0  0  0  0  0  0  0  0  0  0
   -8.2234   -3.9794   14.4523 C   0  0  0  0  0  0  0  0  0  0  0  0
   -8.6211   -4.1570   15.8097 O   0  0  0  0  0  0  0  0  0  0  0  0
   -7.6059   -4.7783   16.5871 C   0  0  0  0  0  0  0  0  0  0  0  0
   -6.3731   -3.8653   16.6630 C   0  0  0  0  0  0  0  0  0  0  0  0
   -5.3227   -4.5242   17.3851 O   0  0  0  0  0  0  0  0  0  0  0  0
   -5.9190   -3.4646   15.2424 C   0  0  0  0  0  0  0  0  0  0  0  0
   -4.8457   -2.5191   15.3021 O   0  0  0  0  0  0  0  0  0  0  0  0
   -7.0936   -2.9336   14.3836 C   0  0  0  0  0  0  0  0  0  0  0  0
   -6.6589   -2.7105   13.0330 O   0  0  0  0  0  0  0  0  0  0  0  0
   -4.8971   -5.1682   16.7878 H   0  0  0  0  0  0  0  0  0  0  0  0
   -5.1779   -1.6988   15.7070 H   0  0  0  0  0  0  0  0  0  0  0  0
   -6.0298   -3.4075   12.7798 H   0  0  0  0  0  0  0  0  0  0  0  0
   -8.1917   -5.0815   17.9713 C   0  0  0  0  0  0  0  0  0  0  0  0
   -7.7534   -4.1515   18.9521 O   0  0  0  0  0  0  0  0  0  0  0  0
   -7.9542   -3.2565   18.6083 H   0  0  0  0  0  0  0  0  0  0  0  0
 14 15  1  0
 14 16  1  0
  2  3  1  0
  2  9  1  0
  2 15  1  0
  3  4  1  0
  4  5  1  0
  4  6  1  0
  5 11  1  0
  6  7  1  0
  6  1  1  0
  1 17  1  0
 17 18  1  0
 17 24  1  0
 18 19  1  0
 19 20  1  0
 19 29  1  0
 29 30  1  0
 30 31  1  0
 20 21  1  0
 20 22  1  0
 21 26  1  0
 22 23  1  0
 22 24  1  0
 23 27  1  0
 24 25  1  0
 25 28  1  0
  7  8  1  0
  7  9  1  0
  8 12  1  0
  9 10  1  0
 10 13  1  0
M  END
> <minimizedAffinity>
-4.93399

> <CNNscore>
0.3521888554

> <CNNaffinity>
2.7839944363

> <CNN_VS>
0.9804918170

> <CNNaffinity_variance>
0.3845817149

$$$$



 31 32  0  0  0  0  0  0  0  0999 V2000
  -10.6623   -1.6711   10.9191 O   0  0  0  0  0  0  0  0  0  0  0  0
   -9.5225   -5.7214   11.0599 C   0  0  0  0  0  0  0  0  0  0  0  0
  -10.8874   -5.3543   11.2691 O   0  0  0  0  0  0  0  0  0  0  0  0
  -11.2050   -4.0451   10.8305 C   0  0  0  0  0  0  0  0  0  0  0  0
  -12.5876   -3.8694   11.1118 O   0  0  0  0  0  0  0  0  0  0  0  0
  -10.3591   -2.9550   11.5287 C   0  0  0  0  0  0  0  0  0  0  0  0
   -8.8602   -3.3260   11.4224 C   0  0  0  0  0  0  0  0  0  0  0  0
   -8.0347   -2.4840   12.2562 O   0  0  0  0  0  0  0  0  0  0  0  0
   -8.5853   -4.7794   11.8124 C   0  0  0  0  0  0  0  0  0  0  0  0
   -7.2159   -5.1109   11.5479 O   0  0  0  0  0  0  0  0  0  0  0  0
  -12.6794   -4.0729   12.0573 H   0  0  0  0  0  0  0  0  0  0  0  0
   -8.1707   -2.7546   13.1836 H   0  0  0  0  0  0  0  0  0  0  0  0
   -6.9137   -4.6081   10.7717 H   0  0  0  0  0  0  0  0  0  0  0  0
   -9.3817   -8.0786   10.4323 O   0  0  0  0  0  0  0  0  0  0  0  0
   -9.3348   -7.1732   11.5369 C   0  0  0  0  0  0  0  0  0  0  0  0
   -9.0589   -8.9361   10.7591 H   0  0  0  0  0  0  0  0  0  0  0  0
  -11.5130   -0.8541   11.7241 C   0  0  0  0  0  0  0  0  0  0  0  0
  -12.3991   -0.1331   10.8713 O   0  0  0  0  0  0  0  0  0  0  0  0
  -13.4557    0.4825   11.5963 C   0  0  0  0  0  0  0  0  0  0  0  0
  -12.8869    1.5454   12.5479 C   0  0  0  0  0  0  0  0  0  0  0  0
  -13.9457    2.1140   13.3321 O   0  0  0  0  0  0  0  0  0  0  0  0
  -11.7894    0.9275   13.4415 C   0  0  0  0  0  0  0  0  0  0  0  0
  -11.1684    1.9333   14.2490 O   0  0  0  0  0  0  0  0  0  0  0  0
  -10.7425    0.1384   12.6165 C   0  0  0  0  0  0  0  0  0  0  0  0
   -9.8272   -0.5372   13.4932 O   0  0  0  0  0  0  0  0  0  0  0  0
  -14.1666    1.4888   14.0483 H   0  0  0  0  0  0  0  0  0  0  0  0
  -10.7031    2.5565   13.6639 H   0  0  0  0  0  0  0  0  0  0  0  0
  -10.3107   -0.8626   14.2718 H   0  0  0  0  0  0  0  0  0  0  0  0
  -14.4397    1.0768   10.5815 C   0  0  0  0  0  0  0  0  0  0  0  0
  -13.8196    1.3487    9.3324 O   0  0  0  0  0  0  0  0  0  0  0  0
  -13.3816    0.5213    9.0438 H   0  0  0  0  0  0  0  0  0  0  0  0
 14 15  1  0
 14 16  1  0
  2  3  1  0
  2  9  1  0
  2 15  1  0
  3  4  1  0
  4  5  1  0
  4  6  1  0
  5 11  1  0
  6  7  1  0
  6  1  1  0
  1 17  1  0
 17 18  1  0
 17 24  1  0
 18 19  1  0
 19 20  1  0
 19 29  1  0
 29 30  1  0
 30 31  1  0
 20 21  1  0
 20 22  1  0
 21 26  1  0
 22 23  1  0
 22 24  1  0
 23 27  1  0
 24 25  1  0
 25 28  1  0
  7  8  1  0
  7  9  1  0
  8 12  1  0
  9 10  1  0
 10 13  1  0
M  END
> <minimizedAffinity>
-5.00216

> <CNNscore>
0.3433654606

> <CNNaffinity>
2.7657439709

> <CNN_VS>
0.9496609569

> <CNNaffinity_variance>
0.4622547626

$$$$



 31 32  0  0  0  0  0  0  0  0999 V2000
   -8.3401   -2.9956   11.2804 O   0  0  0  0  0  0  0  0  0  0  0  0
   -9.8566   -6.8507   12.0302 C   0  0  0  0  0  0  0  0  0  0  0  0
   -8.4610   -6.6656   11.7866 O   0  0  0  0  0  0  0  0  0  0  0  0
   -8.0255   -5.3245   11.9252 C   0  0  0  0  0  0  0  0  0  0  0  0
   -6.6296   -5.3430   11.6557 O   0  0  0  0  0  0  0  0  0  0  0  0
   -8.7571   -4.3528   10.9702 C   0  0  0  0  0  0  0  0  0  0  0  0
  -10.2854   -4.5534   11.1102 C   0  0  0  0  0  0  0  0  0  0  0  0
  -11.0186   -3.8551   10.0804 O   0  0  0  0  0  0  0  0  0  0  0  0
  -10.6925   -6.0269   11.0531 C   0  0  0  0  0  0  0  0  0  0  0  0
  -12.0898   -6.1644   11.3422 O   0  0  0  0  0  0  0  0  0  0  0  0
   -6.5475   -5.7658   10.7849 H   0  0  0  0  0  0  0  0  0  0  0  0
  -10.8990   -4.3429    9.2440 H   0  0  0  0  0  0  0  0  0  0  0  0
  -12.3512   -5.4717   11.9733 H   0  0  0  0  0  0  0  0  0  0  0  0
  -10.4602   -8.6829   10.5304 O   0  0  0  0  0  0  0  0  0  0  0  0
  -10.1759   -8.3505   11.8909 C   0  0  0  0  0  0  0  0  0  0  0  0
  -10.4509   -9.6538   10.4714 H   0  0  0  0  0  0  0  0  0  0  0  0
   -9.3918   -2.1948   11.8209 C   0  0  0  0  0  0  0  0  0  0  0  0
   -9.5909   -1.0654   10.9741 O   0  0  0  0  0  0  0  0  0  0  0  0
  -10.7940   -0.3730   11.2808 C   0  0  0  0  0  0  0  0  0  0  0  0
  -10.7115    0.2167   12.6966 C   0  0  0  0  0  0  0  0  0  0  0  0
  -11.9536    0.8515   13.0330 O   0  0  0  0  0  0  0  0  0  0  0  0
  -10.3462   -0.8873   13.7127 C   0  0  0  0  0  0  0  0  0  0  0  0
  -10.1489   -0.3298   15.0165 O   0  0  0  0  0  0  0  0  0  0  0  0
   -9.1168   -1.7130   13.2587 C   0  0  0  0  0  0  0  0  0  0  0  0
   -8.9011   -2.8146   14.1548 O   0  0  0  0  0  0  0  0  0  0  0  0
  -12.5945    0.1588   13.2822 H   0  0  0  0  0  0  0  0  0  0  0  0
   -9.3749    0.2595   14.9874 H   0  0  0  0  0  0  0  0  0  0  0  0
   -9.7609   -3.1702   14.4378 H   0  0  0  0  0  0  0  0  0  0  0  0
  -11.0020    0.7066   10.2119 C   0  0  0  0  0  0  0  0  0  0  0  0
  -12.3537    1.1393   10.1458 O   0  0  0  0  0  0  0  0  0  0  0  0
  -12.6147    1.4033   11.0523 H   0  0  0  0  0  0  0  0  0  0  0  0
 14 15  1  0
 14 16  1  0
  2  3  1  0
  2  9  1  0
  2 15  1  0
  3  4  1  0
  4  5  1  0
  4  6  1  0
  5 11  1  0
  6  7  1  0
  6  1  1  0
  1 17  1  0
 17 18  1  0
 17 24  1  0
 18 19  1  0
 19 20  1  0
 19 29  1  0
 29 30  1  0
 30 31  1  0
 20 21  1  0
 20 22  1  0
 21 26  1  0
 22 23  1  0
 22 24  1  0
 23 27  1  0
 24 25  1  0
 25 28  1  0
  7  8  1  0
  7  9  1  0
  8 12  1  0
  9 10  1  0
 10 13  1  0
M  END
> <minimizedAffinity>
-5.16727

> <CNNscore>
0.3176555932

> <CNNaffinity>
2.4864895344

> <CNN_VS>
0.7898473144

> <CNNaffinity_variance>
0.9272057414

$$$$



 31 32  0  0  0  0  0  0  0  0999 V2000
  -11.1784   -3.6626   12.0470 O   0  0  0  0  0  0  0  0  0  0  0  0
   -7.1472   -4.6206   12.7925 C   0  0  0  0  0  0  0  0  0  0  0  0
   -7.7390   -4.9458   11.5334 O   0  0  0  0  0  0  0  0  0  0  0  0
   -8.9458   -4.2523   11.2684 C   0  0  0  0  0  0  0  0  0  0  0  0
   -9.3719   -4.6967    9.9868 O   0  0  0  0  0  0  0  0  0  0  0  0
  -10.0367   -4.5155   12.3323 C   0  0  0  0  0  0  0  0  0  0  0  0
   -9.4458   -4.2684   13.7414 C   0  0  0  0  0  0  0  0  0  0  0  0
  -10.3313   -4.7258   14.7865 O   0  0  0  0  0  0  0  0  0  0  0  0
   -8.0950   -4.9579   13.9414 C   0  0  0  0  0  0  0  0  0  0  0  0
   -7.5243   -4.5703   15.1981 O   0  0  0  0  0  0  0  0  0  0  0  0
   -9.4032   -5.6653   10.0544 H   0  0  0  0  0  0  0  0  0  0  0  0
  -10.2997   -5.7008   14.8008 H   0  0  0  0  0  0  0  0  0  0  0  0
   -7.7906   -3.6560   15.3971 H   0  0  0  0  0  0  0  0  0  0  0  0
   -5.0426   -5.2760   11.7383 O   0  0  0  0  0  0  0  0  0  0  0  0
   -5.8298   -5.4067   12.9238 C   0  0  0  0  0  0  0  0  0  0  0  0
   -4.1554   -5.6125   11.9527 H   0  0  0  0  0  0  0  0  0  0  0  0
  -10.8823   -2.2705   12.1633 C   0  0  0  0  0  0  0  0  0  0  0  0
  -11.6734   -1.7185   13.2129 O   0  0  0  0  0  0  0  0  0  0  0  0
  -11.2405   -0.4151   13.5797 C   0  0  0  0  0  0  0  0  0  0  0  0
  -11.4349    0.5512   12.4017 C   0  0  0  0  0  0  0  0  0  0  0  0
  -10.9294    1.8489   12.7476 O   0  0  0  0  0  0  0  0  0  0  0  0
  -10.7464   -0.0061   11.1367 C   0  0  0  0  0  0  0  0  0  0  0  0
  -11.0209    0.8247   10.0036 O   0  0  0  0  0  0  0  0  0  0  0  0
  -11.1345   -1.4807   10.8642 C   0  0  0  0  0  0  0  0  0  0  0  0
  -10.3648   -2.0016    9.7691 O   0  0  0  0  0  0  0  0  0  0  0  0
   -9.9570    1.8313   12.6649 H   0  0  0  0  0  0  0  0  0  0  0  0
  -11.9749    0.7863    9.8154 H   0  0  0  0  0  0  0  0  0  0  0  0
   -9.4621   -1.6425    9.8128 H   0  0  0  0  0  0  0  0  0  0  0  0
  -12.0331    0.0130   14.8205 C   0  0  0  0  0  0  0  0  0  0  0  0
  -11.3087   -0.2141   16.0216 O   0  0  0  0  0  0  0  0  0  0  0  0
  -10.4387    0.2242   15.9187 H   0  0  0  0  0  0  0  0  0  0  0  0
 14 15  1  0
 14 16  1  0
  2  3  1  0
  2  9  1  0
  2 15  1  0
  3  4  1  0
  4  5  1  0
  4  6  1  0
  5 11  1  0
  6  7  1  0
  6  1  1  0
  1 17  1  0
 17 18  1  0
 17 24  1  0
 18 19  1  0
 19 20  1  0
 19 29  1  0
 29 30  1  0
 30 31  1  0
 20 21  1  0
 20 22  1  0
 21 26  1  0
 22 23  1  0
 22 24  1  0
 23 27  1  0
 24 25  1  0
 25 28  1  0
  7  8  1  0
  7  9  1  0
  8 12  1  0
  9 10  1  0
 10 13  1  0
M  END
> <minimizedAffinity>
-5.56285

> <CNNscore>
0.3114887774

> <CNNaffinity>
2.8581800461

> <CNN_VS>
0.8902910352

> <CNNaffinity_variance>
0.4876070023

$$$$



 31 32  0  0  0  0  0  0  0  0999 V2000
   -9.2621   -2.7037   10.8267 O   0  0  0  0  0  0  0  0  0  0  0  0
  -11.8946   -0.0579   12.7744 C   0  0  0  0  0  0  0  0  0  0  0  0
  -12.0366   -1.4685   12.9518 O   0  0  0  0  0  0  0  0  0  0  0  0
  -10.8948   -2.2146   12.5684 C   0  0  0  0  0  0  0  0  0  0  0  0
  -11.2206   -3.5751   12.8221 O   0  0  0  0  0  0  0  0  0  0  0  0
  -10.5121   -2.0084   11.0843 C   0  0  0  0  0  0  0  0  0  0  0  0
  -10.4231   -0.4923   10.7860 C   0  0  0  0  0  0  0  0  0  0  0  0
  -10.3085   -0.2258    9.3712 O   0  0  0  0  0  0  0  0  0  0  0  0
  -11.6348    0.2817   11.3083 C   0  0  0  0  0  0  0  0  0  0  0  0
  -11.4284    1.6908   11.1446 O   0  0  0  0  0  0  0  0  0  0  0  0
  -12.0520   -3.7278   12.3434 H   0  0  0  0  0  0  0  0  0  0  0  0
  -11.1800   -0.3881    8.9640 H   0  0  0  0  0  0  0  0  0  0  0  0
  -10.4796    1.8840   11.2398 H   0  0  0  0  0  0  0  0  0  0  0  0
  -14.1866   -0.3498   13.5693 O   0  0  0  0  0  0  0  0  0  0  0  0
  -13.1830    0.6229   13.2717 C   0  0  0  0  0  0  0  0  0  0  0  0
  -14.8867    0.1118   14.0623 H   0  0  0  0  0  0  0  0  0  0  0  0
   -9.3282   -4.1017   11.1106 C   0  0  0  0  0  0  0  0  0  0  0  0
   -8.0094   -4.5834   11.3571 O   0  0  0  0  0  0  0  0  0  0  0  0
   -8.0136   -5.8894   11.9186 C   0  0  0  0  0  0  0  0  0  0  0  0
   -8.6074   -6.8884   10.9143 C   0  0  0  0  0  0  0  0  0  0  0  0
   -8.6797   -8.1923   11.5091 O   0  0  0  0  0  0  0  0  0  0  0  0
   -9.9950   -6.4048   10.4394 C   0  0  0  0  0  0  0  0  0  0  0  0
  -10.5067   -7.2637    9.4147 O   0  0  0  0  0  0  0  0  0  0  0  0
   -9.9699   -4.9264    9.9779 C   0  0  0  0  0  0  0  0  0  0  0  0
  -11.3017   -4.4763    9.6834 O   0  0  0  0  0  0  0  0  0  0  0  0
   -9.4557   -8.2170   12.1006 H   0  0  0  0  0  0  0  0  0  0  0  0
   -9.9289   -7.1935    8.6347 H   0  0  0  0  0  0  0  0  0  0  0  0
  -11.9211   -4.8699   10.3215 H   0  0  0  0  0  0  0  0  0  0  0  0
   -6.5722   -6.2406   12.3058 C   0  0  0  0  0  0  0  0  0  0  0  0
   -5.6328   -5.7732   11.3477 O   0  0  0  0  0  0  0  0  0  0  0  0
   -5.8030   -4.8166   11.2226 H   0  0  0  0  0  0  0  0  0  0  0  0
 14 15  1  0
 14 16  1  0
  2  3  1  0
  2  9  1  0
  2 15  1  0
  3  4  1  0
  4  5  1  0
  4  6  1  0
  5 11  1  0
  6  7  1  0
  6  1  1  0
  1 17  1  0
 17 18  1  0
 17 24  1  0
 18 19  1  0
 19 20  1  0
 19 29  1  0
 29 30  1  0
 30 31  1  0
 20 21  1  0
 20 22  1  0
 21 26  1  0
 22 23  1  0
 22 24  1  0
 23 27  1  0
 24 25  1  0
 25 28  1  0
  7  8  1  0
  7  9  1  0
  8 12  1  0
  9 10  1  0
 10 13  1  0
M  END
> <minimizedAffinity>
-6.51667

> <CNNscore>
0.2997390032

> <CNNaffinity>
2.5581636429

> <CNN_VS>
0.7667814493

> <CNNaffinity_variance>
0.8640646935

$$$$



 31 32  0  0  0  0  0  0  0  0999 V2000
  -11.1628   -3.5567   11.3996 O   0  0  0  0  0  0  0  0  0  0  0  0
   -8.7981   -6.5697   13.1472 C   0  0  0  0  0  0  0  0  0  0  0  0
   -9.8253   -5.9337   13.9098 O   0  0  0  0  0  0  0  0  0  0  0  0
  -10.7745   -5.2331   13.1252 C   0  0  0  0  0  0  0  0  0  0  0  0
  -11.7063   -4.6832   14.0477 O   0  0  0  0  0  0  0  0  0  0  0  0
  -10.1365   -4.1216   12.2598 C   0  0  0  0  0  0  0  0  0  0  0  0
   -8.9498   -4.7137   11.4619 C   0  0  0  0  0  0  0  0  0  0  0  0
   -8.1623   -3.6860   10.8222 O   0  0  0  0  0  0  0  0  0  0  0  0
   -8.0088   -5.5436   12.3370 C   0  0  0  0  0  0  0  0  0  0  0  0
   -7.0221   -6.1920   11.5240 O   0  0  0  0  0  0  0  0  0  0  0  0
  -11.1671   -4.1774   14.6780 H   0  0  0  0  0  0  0  0  0  0  0  0
   -7.6425   -3.2333   11.5126 H   0  0  0  0  0  0  0  0  0  0  0  0
   -7.4151   -6.4040   10.6596 H   0  0  0  0  0  0  0  0  0  0  0  0
   -6.7000   -6.5590   14.3994 O   0  0  0  0  0  0  0  0  0  0  0  0
   -7.8732   -7.3251   14.1192 C   0  0  0  0  0  0  0  0  0  0  0  0
   -6.2637   -6.9823   15.1588 H   0  0  0  0  0  0  0  0  0  0  0  0
  -11.4286   -2.1803   11.6718 C   0  0  0  0  0  0  0  0  0  0  0  0
  -12.8186   -2.0266   11.9483 O   0  0  0  0  0  0  0  0  0  0  0  0
  -13.1159   -0.7507   12.5002 C   0  0  0  0  0  0  0  0  0  0  0  0
  -12.8033    0.3485   11.4741 C   0  0  0  0  0  0  0  0  0  0  0  0
  -13.0334    1.6392   12.0574 O   0  0  0  0  0  0  0  0  0  0  0  0
  -11.3514    0.2067   10.9674 C   0  0  0  0  0  0  0  0  0  0  0  0
  -11.0851    1.1500    9.9239 O   0  0  0  0  0  0  0  0  0  0  0  0
  -11.0305   -1.2403   10.5173 C   0  0  0  0  0  0  0  0  0  0  0  0
   -9.6367   -1.3607   10.1922 O   0  0  0  0  0  0  0  0  0  0  0  0
  -12.2727    1.8575   12.6288 H   0  0  0  0  0  0  0  0  0  0  0  0
  -11.6468    0.9327    9.1594 H   0  0  0  0  0  0  0  0  0  0  0  0
   -9.1157   -0.8215   10.8115 H   0  0  0  0  0  0  0  0  0  0  0  0
  -14.5903   -0.7514   12.9215 C   0  0  0  0  0  0  0  0  0  0  0  0
  -15.0236   -2.0361   13.3465 O   0  0  0  0  0  0  0  0  0  0  0  0
  -14.3986   -2.3348   14.0390 H   0  0  0  0  0  0  0  0  0  0  0  0
 14 15  1  0
 14 16  1  0
  2  3  1  0
  2  9  1  0
  2 15  1  0
  3  4  1  0
  4  5  1  0
  4  6  1  0
  5 11  1  0
  6  7  1  0
  6  1  1  0
  1 17  1  0
 17 18  1  0
 17 24  1  0
 18 19  1  0
 19 20  1  0
 19 29  1  0
 29 30  1  0
 30 31  1  0
 20 21  1  0
 20 22  1  0
 21 26  1  0
 22 23  1  0
 22 24  1  0
 23 27  1  0
 24 25  1  0
 25 28  1  0
  7  8  1  0
  7  9  1  0
  8 12  1  0
  9 10  1  0
 10 13  1  0
M  END
> <minimizedAffinity>
-4.85889

> <CNNscore>
0.2817627192

> <CNNaffinity>
3.2272274494

> <CNN_VS>
0.9093123674

> <CNNaffinity_variance>
0.3606972992

$$$$



 31 32  0  0  0  0  0  0  0  0999 V2000
   -9.6551   -3.3240   13.5520 O   0  0  0  0  0  0  0  0  0  0  0  0
  -11.7075   -5.3059   10.4563 C   0  0  0  0  0  0  0  0  0  0  0  0
  -11.7936   -5.7913   11.7973 O   0  0  0  0  0  0  0  0  0  0  0  0
  -11.3888   -4.8510   12.7768 C   0  0  0  0  0  0  0  0  0  0  0  0
  -11.5501   -5.5054   14.0288 O   0  0  0  0  0  0  0  0  0  0  0  0
   -9.9289   -4.3769   12.5884 C   0  0  0  0  0  0  0  0  0  0  0  0
   -9.7277   -3.9130   11.1256 C   0  0  0  0  0  0  0  0  0  0  0  0
   -8.3351   -3.6867   10.8172 O   0  0  0  0  0  0  0  0  0  0  0  0
  -10.2714   -4.9192   10.1097 C   0  0  0  0  0  0  0  0  0  0  0  0
  -10.2003   -4.3722    8.7866 O   0  0  0  0  0  0  0  0  0  0  0  0
  -11.0452   -6.3313   13.9475 H   0  0  0  0  0  0  0  0  0  0  0  0
   -7.9000   -4.5565   10.7394 H   0  0  0  0  0  0  0  0  0  0  0  0
  -10.3275   -3.4089    8.8360 H   0  0  0  0  0  0  0  0  0  0  0  0
  -11.1308   -7.1813    9.0001 O   0  0  0  0  0  0  0  0  0  0  0  0
  -12.2188   -6.4081    9.5106 C   0  0  0  0  0  0  0  0  0  0  0  0
  -11.5188   -7.9706    8.5845 H   0  0  0  0  0  0  0  0  0  0  0  0
   -8.3344   -3.3864   14.0918 C   0  0  0  0  0  0  0  0  0  0  0  0
   -7.7367   -4.6206   13.7024 O   0  0  0  0  0  0  0  0  0  0  0  0
   -6.3381   -4.6408   13.9567 C   0  0  0  0  0  0  0  0  0  0  0  0
   -6.0802   -4.5475   15.4679 C   0  0  0  0  0  0  0  0  0  0  0  0
   -4.6683   -4.4933   15.7187 O   0  0  0  0  0  0  0  0  0  0  0  0
   -6.8076   -3.3195   16.0575 C   0  0  0  0  0  0  0  0  0  0  0  0
   -6.6741   -3.2882   17.4825 O   0  0  0  0  0  0  0  0  0  0  0  0
   -8.2945   -3.2615   15.6273 C   0  0  0  0  0  0  0  0  0  0  0  0
   -8.8927   -2.0349   16.0752 O   0  0  0  0  0  0  0  0  0  0  0  0
   -4.3594   -3.5852   15.5380 H   0  0  0  0  0  0  0  0  0  0  0  0
   -7.1332   -4.0619   17.8536 H   0  0  0  0  0  0  0  0  0  0  0  0
   -8.2429   -1.3154   15.9993 H   0  0  0  0  0  0  0  0  0  0  0  0
   -5.7668   -5.9265   13.3470 C   0  0  0  0  0  0  0  0  0  0  0  0
   -4.8135   -5.6568   12.3285 O   0  0  0  0  0  0  0  0  0  0  0  0
   -4.1454   -5.0530   12.7140 H   0  0  0  0  0  0  0  0  0  0  0  0
 14 15  1  0
 14 16  1  0
  2  3  1  0
  2  9  1  0
  2 15  1  0
  3  4  1  0
  4  5  1  0
  4  6  1  0
  5 11  1  0
  6  7  1  0
  6  1  1  0
  1 17  1  0
 17 18  1  0
 17 24  1  0
 18 19  1  0
 19 20  1  0
 19 29  1  0
 29 30  1  0
 30 31  1  0
 20 21  1  0
 20 22  1  0
 21 26  1  0
 22 23  1  0
 22 24  1  0
 23 27  1  0
 24 25  1  0
 25 28  1  0
  7  8  1  0
  7  9  1  0
  8 12  1  0
  9 10  1  0
 10 13  1  0
M  END
> <minimizedAffinity>
-5.32500

> <CNNscore>
0.2607807815

> <CNNaffinity>
2.8897526264

> <CNN_VS>
0.7535919547

> <CNNaffinity_variance>
0.6490839124

$$$$
