


 31 32  0  0  0  0  0  0  0  0999 V2000
   14.4055   12.3648    6.9622 O   0  0  0  0  0  0  0  0  0  0  0  0
   17.1699   10.6037    9.6044 C   0  0  0  0  0  0  0  0  0  0  0  0
   17.3908   10.5453    8.1940 O   0  0  0  0  0  0  0  0  0  0  0  0
   16.6204   11.4743    7.4518 C   0  0  0  0  0  0  0  0  0  0  0  0
   16.9792   11.2721    6.0909 O   0  0  0  0  0  0  0  0  0  0  0  0
   15.0983   11.2896    7.6524 C   0  0  0  0  0  0  0  0  0  0  0  0
   14.7836   11.2540    9.1674 C   0  0  0  0  0  0  0  0  0  0  0  0
   13.4234   10.8443    9.4273 O   0  0  0  0  0  0  0  0  0  0  0  0
   15.7088   10.3102    9.9378 C   0  0  0  0  0  0  0  0  0  0  0  0
   15.4771   10.4336   11.3471 O   0  0  0  0  0  0  0  0  0  0  0  0
   16.8362   10.3245    5.9316 H   0  0  0  0  0  0  0  0  0  0  0  0
   13.3615    9.8854    9.2585 H   0  0  0  0  0  0  0  0  0  0  0  0
   15.2201   11.3507   11.5457 H   0  0  0  0  0  0  0  0  0  0  0  0
   17.3894    8.3798   10.5926 O   0  0  0  0  0  0  0  0  0  0  0  0
   18.0998    9.5800   10.2811 C   0  0  0  0  0  0  0  0  0  0  0  0
   18.0570    7.7108   10.8226 H   0  0  0  0  0  0  0  0  0  0  0  0
   13.7138   11.9270    5.7921 C   0  0  0  0  0  0  0  0  0  0  0  0
   14.3341   12.5077    4.6474 O   0  0  0  0  0  0  0  0  0  0  0  0
   13.8904   11.9080    3.4372 C   0  0  0  0  0  0  0  0  0  0  0  0
   12.3908   12.1756    3.2403 C   0  0  0  0  0  0  0  0  0  0  0  0
   11.9281   11.5080    2.0574 O   0  0  0  0  0  0  0  0  0  0  0  0
   11.6013   11.7270    4.4894 C   0  0  0  0  0  0  0  0  0  0  0  0
   10.2192   12.0797    4.3681 O   0  0  0  0  0  0  0  0  0  0  0  0
   12.2149   12.2851    5.7976 C   0  0  0  0  0  0  0  0  0  0  0  0
   11.5412   11.7291    6.9377 O   0  0  0  0  0  0  0  0  0  0  0  0
   11.8043   10.5628    2.2672 H   0  0  0  0  0  0  0  0  0  0  0  0
   10.1475   13.0502    4.3532 H   0  0  0  0  0  0  0  0  0  0  0  0
   11.3191   10.7997    6.7567 H   0  0  0  0  0  0  0  0  0  0  0  0
   14.7380   12.4747    2.2920 C   0  0  0  0  0  0  0  0  0  0  0  0
   14.3996   11.8952    1.0397 O   0  0  0  0  0  0  0  0  0  0  0  0
   13.4325   12.0020    0.9265 H   0  0  0  0  0  0  0  0  0  0  0  0
 14 15  1  0
 14 16  1  0
  2  3  1  0
  2  9  1  0
  2 15  1  0
  3  4  1  0
  4  5  1  0
  4  6  1  0
  5 11  1  0
  6  7  1  0
  6  1  1  0
  1 17  1  0
 17 18  1  0
 17 24  1  0
 18 19  1  0
 19 20  1  0
 19 29  1  0
 29 30  1  0
 30 31  1  0
 20 21  1  0
 20 22  1  0
 21 26  1  0
 22 23  1  0
 22 24  1  0
 23 27  1  0
 24 25  1  0
 25 28  1  0
  7  8  1  0
  7  9  1  0
  8 12  1  0
  9 10  1  0
 10 13  1  0
M  END
> <minimizedAffinity>
-4.19046

> <CNNscore>
0.9494128823

> <CNNaffinity>
3.1268806458

> <CNN_VS>
2.9687008858

> <CNNaffinity_variance>
0.4271036685

$$$$



 31 32  0  0  0  0  0  0  0  0999 V2000
   15.7317   12.2782    4.0287 O   0  0  0  0  0  0  0  0  0  0  0  0
   11.7500   12.2424    5.3957 C   0  0  0  0  0  0  0  0  0  0  0  0
   12.8084   11.8337    6.2641 O   0  0  0  0  0  0  0  0  0  0  0  0
   14.0954   12.2415    5.8342 C   0  0  0  0  0  0  0  0  0  0  0  0
   15.0015   11.7556    6.8163 O   0  0  0  0  0  0  0  0  0  0  0  0
   14.4611   11.6997    4.4327 C   0  0  0  0  0  0  0  0  0  0  0  0
   13.3161   12.0270    3.4441 C   0  0  0  0  0  0  0  0  0  0  0  0
   13.4798   11.3438    2.1824 O   0  0  0  0  0  0  0  0  0  0  0  0
   11.9384   11.6582    3.9974 C   0  0  0  0  0  0  0  0  0  0  0  0
   10.9107   12.1228    3.1126 O   0  0  0  0  0  0  0  0  0  0  0  0
   14.8174   10.8038    6.8788 H   0  0  0  0  0  0  0  0  0  0  0  0
   13.2669   10.4019    2.3216 H   0  0  0  0  0  0  0  0  0  0  0  0
   11.2092   12.9447    2.6860 H   0  0  0  0  0  0  0  0  0  0  0  0
    9.3174   12.4713    5.4170 O   0  0  0  0  0  0  0  0  0  0  0  0
   10.4166   11.7743    6.0070 C   0  0  0  0  0  0  0  0  0  0  0  0
    8.5101   11.9998    5.6857 H   0  0  0  0  0  0  0  0  0  0  0  0
   16.7799   11.3141    3.9247 C   0  0  0  0  0  0  0  0  0  0  0  0
   17.9024   11.7729    4.6742 O   0  0  0  0  0  0  0  0  0  0  0  0
   18.8772   10.7540    4.8546 C   0  0  0  0  0  0  0  0  0  0  0  0
   19.4630   10.3443    3.4952 C   0  0  0  0  0  0  0  0  0  0  0  0
   20.3924    9.2651    3.6706 O   0  0  0  0  0  0  0  0  0  0  0  0
   18.3284    9.9618    2.5199 C   0  0  0  0  0  0  0  0  0  0  0  0
   18.8520    9.6932    1.2149 O   0  0  0  0  0  0  0  0  0  0  0  0
   17.2143   11.0369    2.4723 C   0  0  0  0  0  0  0  0  0  0  0  0
   16.1160   10.5774    1.6689 O   0  0  0  0  0  0  0  0  0  0  0  0
   19.8852    8.4385    3.7811 H   0  0  0  0  0  0  0  0  0  0  0  0
   19.2315   10.5155    0.8583 H   0  0  0  0  0  0  0  0  0  0  0  0
   15.9902    9.6240    1.8138 H   0  0  0  0  0  0  0  0  0  0  0  0
   19.9481   11.2906    5.8120 C   0  0  0  0  0  0  0  0  0  0  0  0
   21.1209   11.7032    5.1241 O   0  0  0  0  0  0  0  0  0  0  0  0
   20.8389   12.3330    4.4289 H   0  0  0  0  0  0  0  0  0  0  0  0
 14 15  1  0
 14 16  1  0
  2  3  1  0
  2  9  1  0
  2 15  1  0
  3  4  1  0
  4  5  1  0
  4  6  1  0
  5 11  1  0
  6  7  1  0
  6  1  1  0
  1 17  1  0
 17 18  1  0
 17 24  1  0
 18 19  1  0
 19 20  1  0
 19 29  1  0
 29 30  1  0
 30 31  1  0
 20 21  1  0
 20 22  1  0
 21 26  1  0
 22 23  1  0
 22 24  1  0
 23 27  1  0
 24 25  1  0
 25 28  1  0
  7  8  1  0
  7  9  1  0
  8 12  1  0
  9 10  1  0
 10 13  1  0
M  END
> <minimizedAffinity>
-4.26645

> <CNNscore>
0.9493551850

> <CNNaffinity>
3.2285549641

> <CNN_VS>
3.0650453568

> <CNNaffinity_variance>
0.4313917160

$$$$



 31 32  0  0  0  0  0  0  0  0999 V2000
   15.8481   12.3786    3.8774 O   0  0  0  0  0  0  0  0  0  0  0  0
   11.8900   12.1642    5.2958 C   0  0  0  0  0  0  0  0  0  0  0  0
   12.9747   11.7727    6.1394 O   0  0  0  0  0  0  0  0  0  0  0  0
   14.2400   12.2376    5.7029 C   0  0  0  0  0  0  0  0  0  0  0  0
   15.1767   11.7606    6.6603 O   0  0  0  0  0  0  0  0  0  0  0  0
   14.6050   11.7445    4.2835 C   0  0  0  0  0  0  0  0  0  0  0  0
   13.4351   12.0545    3.3188 C   0  0  0  0  0  0  0  0  0  0  0  0
   13.6053   11.4094    2.0380 O   0  0  0  0  0  0  0  0  0  0  0  0
   12.0795   11.6223    3.8807 C   0  0  0  0  0  0  0  0  0  0  0  0
   11.0233   12.0711    3.0217 O   0  0  0  0  0  0  0  0  0  0  0  0
   15.0279   10.8014    6.7010 H   0  0  0  0  0  0  0  0  0  0  0  0
   13.4284   10.4572    2.1560 H   0  0  0  0  0  0  0  0  0  0  0  0
   11.2859   12.9137    2.6122 H   0  0  0  0  0  0  0  0  0  0  0  0
    9.4546   12.3373    5.3908 O   0  0  0  0  0  0  0  0  0  0  0  0
   10.5831   11.6329    5.9126 C   0  0  0  0  0  0  0  0  0  0  0  0
    8.6646   11.8337    5.6524 H   0  0  0  0  0  0  0  0  0  0  0  0
   16.9241   11.4536    3.7170 C   0  0  0  0  0  0  0  0  0  0  0  0
   17.4467   11.1290    5.0030 O   0  0  0  0  0  0  0  0  0  0  0  0
   18.3244   10.0117    4.9567 C   0  0  0  0  0  0  0  0  0  0  0  0
   19.5616   10.3534    4.1131 C   0  0  0  0  0  0  0  0  0  0  0  0
   20.4110    9.2018    4.0055 O   0  0  0  0  0  0  0  0  0  0  0  0
   19.1319   10.8719    2.7234 C   0  0  0  0  0  0  0  0  0  0  0  0
   20.2699   11.3062    1.9712 O   0  0  0  0  0  0  0  0  0  0  0  0
   18.0610   11.9866    2.8234 C   0  0  0  0  0  0  0  0  0  0  0  0
   17.5862   12.3368    1.5139 O   0  0  0  0  0  0  0  0  0  0  0  0
   20.0317    8.6024    3.3351 H   0  0  0  0  0  0  0  0  0  0  0  0
   20.6642   12.0736    2.4215 H   0  0  0  0  0  0  0  0  0  0  0  0
   17.5323   11.5340    0.9675 H   0  0  0  0  0  0  0  0  0  0  0  0
   18.6883    9.6382    6.3987 C   0  0  0  0  0  0  0  0  0  0  0  0
   17.6987   10.0620    7.3260 O   0  0  0  0  0  0  0  0  0  0  0  0
   16.8415    9.7055    7.0133 H   0  0  0  0  0  0  0  0  0  0  0  0
 14 15  1  0
 14 16  1  0
  2  3  1  0
  2  9  1  0
  2 15  1  0
  3  4  1  0
  4  5  1  0
  4  6  1  0
  5 11  1  0
  6  7  1  0
  6  1  1  0
  1 17  1  0
 17 18  1  0
 17 24  1  0
 18 19  1  0
 19 20  1  0
 19 29  1  0
 29 30  1  0
 30 31  1  0
 20 21  1  0
 20 22  1  0
 21 26  1  0
 22 23  1  0
 22 24  1  0
 23 27  1  0
 24 25  1  0
 25 28  1  0
  7  8  1  0
  7  9  1  0
  8 12  1  0
  9 10  1  0
 10 13  1  0
M  END
> <minimizedAffinity>
-4.08352

> <CNNscore>
0.9403904676

> <CNNaffinity>
3.0775012970

> <CNN_VS>
2.8940529823

> <CNNaffinity_variance>
0.3932205737

$$$$



 31 32  0  0  0  0  0  0  0  0999 V2000
   15.6325   12.9361    5.3783 O   0  0  0  0  0  0  0  0  0  0  0  0
   18.3938   10.2079    7.0082 C   0  0  0  0  0  0  0  0  0  0  0  0
   18.0164   10.1092    5.6337 O   0  0  0  0  0  0  0  0  0  0  0  0
   17.3984   11.2766    5.1212 C   0  0  0  0  0  0  0  0  0  0  0  0
   17.1073   10.9920    3.7589 O   0  0  0  0  0  0  0  0  0  0  0  0
   16.1129   11.6631    5.8890 C   0  0  0  0  0  0  0  0  0  0  0  0
   16.4178   11.7064    7.4058 C   0  0  0  0  0  0  0  0  0  0  0  0
   15.2144   11.8225    8.1957 O   0  0  0  0  0  0  0  0  0  0  0  0
   17.1736   10.4673    7.8891 C   0  0  0  0  0  0  0  0  0  0  0  0
   17.5642   10.6304    9.2587 O   0  0  0  0  0  0  0  0  0  0  0  0
   16.5912   10.1692    3.7790 H   0  0  0  0  0  0  0  0  0  0  0  0
   14.7600   10.9594    8.1785 H   0  0  0  0  0  0  0  0  0  0  0  0
   17.7435   11.5719    9.4258 H   0  0  0  0  0  0  0  0  0  0  0  0
   18.4726    7.7773    6.7713 O   0  0  0  0  0  0  0  0  0  0  0  0
   19.0894    8.8953    7.4129 C   0  0  0  0  0  0  0  0  0  0  0  0
   19.0678    7.0184    6.8977 H   0  0  0  0  0  0  0  0  0  0  0  0
   14.2772   12.8863    4.9312 C   0  0  0  0  0  0  0  0  0  0  0  0
   13.5019   12.1748    5.8929 O   0  0  0  0  0  0  0  0  0  0  0  0
   12.1058   12.3210    5.6678 C   0  0  0  0  0  0  0  0  0  0  0  0
   11.7243   11.6886    4.3211 C   0  0  0  0  0  0  0  0  0  0  0  0
   10.3294   11.9016    4.0607 O   0  0  0  0  0  0  0  0  0  0  0  0
   12.6059   12.2666    3.1926 C   0  0  0  0  0  0  0  0  0  0  0  0
   12.3430   11.6000    1.9533 O   0  0  0  0  0  0  0  0  0  0  0  0
   14.1125   12.2226    3.5501 C   0  0  0  0  0  0  0  0  0  0  0  0
   14.8811   12.8981    2.5422 O   0  0  0  0  0  0  0  0  0  0  0  0
   10.2129   12.8176    3.7442 H   0  0  0  0  0  0  0  0  0  0  0  0
   12.6128   10.6688    2.0392 H   0  0  0  0  0  0  0  0  0  0  0  0
   14.3862   13.6744    2.2287 H   0  0  0  0  0  0  0  0  0  0  0  0
   11.3682   11.6722    6.8452 C   0  0  0  0  0  0  0  0  0  0  0  0
   10.0635   12.2076    7.0183 O   0  0  0  0  0  0  0  0  0  0  0  0
    9.6060   12.1323    6.1554 H   0  0  0  0  0  0  0  0  0  0  0  0
 14 15  1  0
 14 16  1  0
  2  3  1  0
  2  9  1  0
  2 15  1  0
  3  4  1  0
  4  5  1  0
  4  6  1  0
  5 11  1  0
  6  7  1  0
  6  1  1  0
  1 17  1  0
 17 18  1  0
 17 24  1  0
 18 19  1  0
 19 20  1  0
 19 29  1  0
 29 30  1  0
 30 31  1  0
 20 21  1  0
 20 22  1  0
 21 26  1  0
 22 23  1  0
 22 24  1  0
 23 27  1  0
 24 25  1  0
 25 28  1  0
  7  8  1  0
  7  9  1  0
  8 12  1  0
  9 10  1  0
 10 13  1  0
M  END
> <minimizedAffinity>
-4.75238

> <CNNscore>
0.9396016002

> <CNNaffinity>
2.9239511490

> <CNN_VS>
2.7473492622

> <CNNaffinity_variance>
0.5498488545

$$$$



 31 32  0  0  0  0  0  0  0  0999 V2000
   16.1844   12.5012    4.7098 O   0  0  0  0  0  0  0  0  0  0  0  0
   12.0724   12.1738    5.5515 C   0  0  0  0  0  0  0  0  0  0  0  0
   13.0366   11.7814    6.5300 O   0  0  0  0  0  0  0  0  0  0  0  0
   14.3397   12.2817    6.2870 C   0  0  0  0  0  0  0  0  0  0  0  0
   15.1436   11.7980    7.3554 O   0  0  0  0  0  0  0  0  0  0  0  0
   14.9114   11.8329    4.9220 C   0  0  0  0  0  0  0  0  0  0  0  0
   13.8816   12.1455    3.8096 C   0  0  0  0  0  0  0  0  0  0  0  0
   14.2444   11.5373    2.5510 O   0  0  0  0  0  0  0  0  0  0  0  0
   12.4708   11.6727    4.1650 C   0  0  0  0  0  0  0  0  0  0  0  0
   11.5356   12.1234    3.1764 O   0  0  0  0  0  0  0  0  0  0  0  0
   15.0123   10.8354    7.3526 H   0  0  0  0  0  0  0  0  0  0  0  0
   14.0744   10.5792    2.6209 H   0  0  0  0  0  0  0  0  0  0  0  0
   11.8339   12.9813    2.8276 H   0  0  0  0  0  0  0  0  0  0  0  0
    9.6456   12.2813    5.2880 O   0  0  0  0  0  0  0  0  0  0  0  0
   10.7043   11.6016    5.9657 C   0  0  0  0  0  0  0  0  0  0  0  0
    8.8400   11.7541    5.4271 H   0  0  0  0  0  0  0  0  0  0  0  0
   17.2273   11.6100    4.3132 C   0  0  0  0  0  0  0  0  0  0  0  0
   16.8322   10.9439    3.1163 O   0  0  0  0  0  0  0  0  0  0  0  0
   17.9157   10.2563    2.5047 C   0  0  0  0  0  0  0  0  0  0  0  0
   18.4083    9.1313    3.4271 C   0  0  0  0  0  0  0  0  0  0  0  0
   19.5487    8.4860    2.8421 O   0  0  0  0  0  0  0  0  0  0  0  0
   18.7331    9.6949    4.8277 C   0  0  0  0  0  0  0  0  0  0  0  0
   19.0787    8.6389    5.7304 O   0  0  0  0  0  0  0  0  0  0  0  0
   17.5791   10.5631    5.3880 C   0  0  0  0  0  0  0  0  0  0  0  0
   17.9783   11.1824    6.6208 O   0  0  0  0  0  0  0  0  0  0  0  0
   20.3312    9.0494    2.9936 H   0  0  0  0  0  0  0  0  0  0  0  0
   18.2982    8.0712    5.8561 H   0  0  0  0  0  0  0  0  0  0  0  0
   18.9148   11.4379    6.5623 H   0  0  0  0  0  0  0  0  0  0  0  0
   17.4331    9.7278    1.1486 C   0  0  0  0  0  0  0  0  0  0  0  0
   17.1022    8.3470    1.2007 O   0  0  0  0  0  0  0  0  0  0  0  0
   16.4655    8.2324    1.9363 H   0  0  0  0  0  0  0  0  0  0  0  0
 14 15  1  0
 14 16  1  0
  2  3  1  0
  2  9  1  0
  2 15  1  0
  3  4  1  0
  4  5  1  0
  4  6  1  0
  5 11  1  0
  6  7  1  0
  6  1  1  0
  1 17  1  0
 17 18  1  0
 17 24  1  0
 18 19  1  0
 19 20  1  0
 19 29  1  0
 29 30  1  0
 30 31  1  0
 20 21  1  0
 20 22  1  0
 21 26  1  0
 22 23  1  0
 22 24  1  0
 23 27  1  0
 24 25  1  0
 25 28  1  0
  7  8  1  0
  7  9  1  0
  8 12  1  0
  9 10  1  0
 10 13  1  0
M  END
> <minimizedAffinity>
-4.63893

> <CNNscore>
0.9158827662

> <CNNaffinity>
2.9123754501

> <CNN_VS>
2.6673943996

> <CNNaffinity_variance>
0.5916157365

$$$$



 31 32  0  0  0  0  0  0  0  0999 V2000
   11.2692   11.3066    6.8396 O   0  0  0  0  0  0  0  0  0  0  0  0
   13.9471   11.8052    3.6297 C   0  0  0  0  0  0  0  0  0  0  0  0
   14.3046   12.2579    4.9368 O   0  0  0  0  0  0  0  0  0  0  0  0
   13.5115   11.7070    5.9736 C   0  0  0  0  0  0  0  0  0  0  0  0
   14.0163   12.2624    7.1812 O   0  0  0  0  0  0  0  0  0  0  0  0
   12.0061   12.0214    5.8110 C   0  0  0  0  0  0  0  0  0  0  0  0
   11.5562   11.6381    4.3805 C   0  0  0  0  0  0  0  0  0  0  0  0
   10.2299   12.1254    4.0824 O   0  0  0  0  0  0  0  0  0  0  0  0
   12.5015   12.1739    3.3036 C   0  0  0  0  0  0  0  0  0  0  0  0
   12.1265   11.6615    2.0184 O   0  0  0  0  0  0  0  0  0  0  0  0
   13.9921   13.2239    7.0448 H   0  0  0  0  0  0  0  0  0  0  0  0
   10.2882   13.0899    3.9469 H   0  0  0  0  0  0  0  0  0  0  0  0
   11.7543   10.7697    2.1305 H   0  0  0  0  0  0  0  0  0  0  0  0
   15.0669   11.6092    1.4668 O   0  0  0  0  0  0  0  0  0  0  0  0
   14.9145   12.4441    2.6165 C   0  0  0  0  0  0  0  0  0  0  0  0
   15.5136   12.1449    0.7888 H   0  0  0  0  0  0  0  0  0  0  0  0
   10.8827   12.1384    7.9341 C   0  0  0  0  0  0  0  0  0  0  0  0
   10.6572   11.3178    9.0778 O   0  0  0  0  0  0  0  0  0  0  0  0
   10.5449   12.0828   10.2708 C   0  0  0  0  0  0  0  0  0  0  0  0
    9.3067   12.9886   10.1963 C   0  0  0  0  0  0  0  0  0  0  0  0
    9.2356   13.8136   11.3683 O   0  0  0  0  0  0  0  0  0  0  0  0
    9.3452   13.8382    8.9072 C   0  0  0  0  0  0  0  0  0  0  0  0
    8.1404   14.5984    8.7661 O   0  0  0  0  0  0  0  0  0  0  0  0
    9.6209   12.9764    7.6500 C   0  0  0  0  0  0  0  0  0  0  0  0
    9.7920   13.8189    6.4993 O   0  0  0  0  0  0  0  0  0  0  0  0
    9.8681   14.5497   11.2641 H   0  0  0  0  0  0  0  0  0  0  0  0
    7.3974   13.9815    8.6456 H   0  0  0  0  0  0  0  0  0  0  0  0
   10.2691   14.6250    6.7608 H   0  0  0  0  0  0  0  0  0  0  0  0
   10.4820   11.1072   11.4520 C   0  0  0  0  0  0  0  0  0  0  0  0
   10.8827    9.7949   11.0827 O   0  0  0  0  0  0  0  0  0  0  0  0
   11.7631    9.8723   10.6604 H   0  0  0  0  0  0  0  0  0  0  0  0
 14 15  1  0
 14 16  1  0
  2  3  1  0
  2  9  1  0
  2 15  1  0
  3  4  1  0
  4  5  1  0
  4  6  1  0
  5 11  1  0
  6  7  1  0
  6  1  1  0
  1 17  1  0
 17 18  1  0
 17 24  1  0
 18 19  1  0
 19 20  1  0
 19 29  1  0
 29 30  1  0
 30 31  1  0
 20 21  1  0
 20 22  1  0
 21 26  1  0
 22 23  1  0
 22 24  1  0
 23 27  1  0
 24 25  1  0
 25 28  1  0
  7  8  1  0
  7  9  1  0
  8 12  1  0
  9 10  1  0
 10 13  1  0
M  END
> <minimizedAffinity>
-5.60215

> <CNNscore>
0.9117829204

> <CNNaffinity>
2.8622951508

> <CNN_VS>
2.6097917557

> <CNNaffinity_variance>
0.6662128568

$$$$



 31 32  0  0  0  0  0  0  0  0999 V2000
   14.8497   12.3775    2.3787 O   0  0  0  0  0  0  0  0  0  0  0  0
   12.2485   12.1745    5.6827 C   0  0  0  0  0  0  0  0  0  0  0  0
   13.5960   11.7153    5.8035 O   0  0  0  0  0  0  0  0  0  0  0  0
   14.4551   12.1750    4.7749 C   0  0  0  0  0  0  0  0  0  0  0  0
   15.7342   11.6277    5.0680 O   0  0  0  0  0  0  0  0  0  0  0  0
   13.9853   11.7499    3.3642 C   0  0  0  0  0  0  0  0  0  0  0  0
   12.4974   12.1360    3.1838 C   0  0  0  0  0  0  0  0  0  0  0  0
   11.9297   11.5561    1.9892 O   0  0  0  0  0  0  0  0  0  0  0  0
   11.6303   11.7043    4.3678 C   0  0  0  0  0  0  0  0  0  0  0  0
   10.3013   12.2208    4.2206 O   0  0  0  0  0  0  0  0  0  0  0  0
   15.5853   10.6712    5.1500 H   0  0  0  0  0  0  0  0  0  0  0  0
   11.7985   10.6030    2.1518 H   0  0  0  0  0  0  0  0  0  0  0  0
   10.3447   13.0780    3.7623 H   0  0  0  0  0  0  0  0  0  0  0  0
   10.4553   10.7050    6.4544 O   0  0  0  0  0  0  0  0  0  0  0  0
   11.4471   11.6398    6.8838 C   0  0  0  0  0  0  0  0  0  0  0  0
   10.1282   10.2568    7.2533 H   0  0  0  0  0  0  0  0  0  0  0  0
   14.9374   11.6409    1.1584 C   0  0  0  0  0  0  0  0  0  0  0  0
   16.1631   10.9130    1.1481 O   0  0  0  0  0  0  0  0  0  0  0  0
   16.2004    9.9439    0.1087 C   0  0  0  0  0  0  0  0  0  0  0  0
   16.1552   10.6418   -1.2587 C   0  0  0  0  0  0  0  0  0  0  0  0
   16.1181    9.6608   -2.3053 O   0  0  0  0  0  0  0  0  0  0  0  0
   14.9410   11.5933   -1.3310 C   0  0  0  0  0  0  0  0  0  0  0  0
   14.9542   12.3386   -2.5532 O   0  0  0  0  0  0  0  0  0  0  0  0
   14.8599   12.5286   -0.0990 C   0  0  0  0  0  0  0  0  0  0  0  0
   13.6436   13.2917   -0.1351 O   0  0  0  0  0  0  0  0  0  0  0  0
   15.2070    9.3170   -2.3713 H   0  0  0  0  0  0  0  0  0  0  0  0
   15.7359   12.9185   -2.5538 H   0  0  0  0  0  0  0  0  0  0  0  0
   12.9264   12.7348   -0.4833 H   0  0  0  0  0  0  0  0  0  0  0  0
   17.4706    9.1048    0.2922 C   0  0  0  0  0  0  0  0  0  0  0  0
   17.4540    8.3696    1.5079 O   0  0  0  0  0  0  0  0  0  0  0  0
   16.6186    7.8584    1.5223 H   0  0  0  0  0  0  0  0  0  0  0  0
 14 15  1  0
 14 16  1  0
  2  3  1  0
  2  9  1  0
  2 15  1  0
  3  4  1  0
  4  5  1  0
  4  6  1  0
  5 11  1  0
  6  7  1  0
  6  1  1  0
  1 17  1  0
 17 18  1  0
 17 24  1  0
 18 19  1  0
 19 20  1  0
 19 29  1  0
 29 30  1  0
 30 31  1  0
 20 21  1  0
 20 22  1  0
 21 26  1  0
 22 23  1  0
 22 24  1  0
 23 27  1  0
 24 25  1  0
 25 28  1  0
  7  8  1  0
  7  9  1  0
  8 12  1  0
  9 10  1  0
 10 13  1  0
M  END
> <minimizedAffinity>
-5.94411

> <CNNscore>
0.9101287723

> <CNNaffinity>
2.9335176945

> <CNN_VS>
2.6698789597

> <CNNaffinity_variance>
0.6881974339

$$$$



 31 32  0  0  0  0  0  0  0  0999 V2000
   13.6307   13.2225    3.8592 O   0  0  0  0  0  0  0  0  0  0  0  0
   16.5147   11.0842    1.6605 C   0  0  0  0  0  0  0  0  0  0  0  0
   15.1342   11.0003    1.3017 O   0  0  0  0  0  0  0  0  0  0  0  0
   14.3326   12.0302    1.8532 C   0  0  0  0  0  0  0  0  0  0  0  0
   13.0132   11.7845    1.3838 O   0  0  0  0  0  0  0  0  0  0  0  0
   14.3698   12.0589    3.3989 C   0  0  0  0  0  0  0  0  0  0  0  0
   15.8428   12.0624    3.8740 C   0  0  0  0  0  0  0  0  0  0  0  0
   15.9519   11.8456    5.2976 O   0  0  0  0  0  0  0  0  0  0  0  0
   16.6885   10.9963    3.1751 C   0  0  0  0  0  0  0  0  0  0  0  0
   18.0679   11.1460    3.5353 O   0  0  0  0  0  0  0  0  0  0  0  0
   12.8227   10.8666    1.6388 H   0  0  0  0  0  0  0  0  0  0  0  0
   15.7603   10.9053    5.4733 H   0  0  0  0  0  0  0  0  0  0  0  0
   18.2550   12.0894    3.6826 H   0  0  0  0  0  0  0  0  0  0  0  0
   17.2778    8.7658    1.7744 O   0  0  0  0  0  0  0  0  0  0  0  0
   17.2662    9.9386    0.9580 C   0  0  0  0  0  0  0  0  0  0  0  0
   17.5768    8.0335    1.2084 H   0  0  0  0  0  0  0  0  0  0  0  0
   12.7355   12.9305    4.9328 C   0  0  0  0  0  0  0  0  0  0  0  0
   13.4988   12.6220    6.0966 O   0  0  0  0  0  0  0  0  0  0  0  0
   12.6969   12.5957    7.2702 C   0  0  0  0  0  0  0  0  0  0  0  0
   11.6660   11.4613    7.1737 C   0  0  0  0  0  0  0  0  0  0  0  0
   10.8094   11.4822    8.3248 O   0  0  0  0  0  0  0  0  0  0  0  0
   10.8576   11.5864    5.8639 C   0  0  0  0  0  0  0  0  0  0  0  0
    9.9765   10.4694    5.7043 O   0  0  0  0  0  0  0  0  0  0  0  0
   11.7746   11.7646    4.6283 C   0  0  0  0  0  0  0  0  0  0  0  0
   10.9840   12.0213    3.4570 O   0  0  0  0  0  0  0  0  0  0  0  0
   10.1480   12.1895    8.2021 H   0  0  0  0  0  0  0  0  0  0  0  0
   10.5132    9.6643    5.5995 H   0  0  0  0  0  0  0  0  0  0  0  0
   10.2273   12.5827    3.6981 H   0  0  0  0  0  0  0  0  0  0  0  0
   13.6308   12.4325    8.4754 C   0  0  0  0  0  0  0  0  0  0  0  0
   14.6014   11.4164    8.2652 O   0  0  0  0  0  0  0  0  0  0  0  0
   15.0531   11.6219    7.4206 H   0  0  0  0  0  0  0  0  0  0  0  0
 14 15  1  0
 14 16  1  0
  2  3  1  0
  2  9  1  0
  2 15  1  0
  3  4  1  0
  4  5  1  0
  4  6  1  0
  5 11  1  0
  6  7  1  0
  6  1  1  0
  1 17  1  0
 17 18  1  0
 17 24  1  0
 18 19  1  0
 19 20  1  0
 19 29  1  0
 29 30  1  0
 30 31  1  0
 20 21  1  0
 20 22  1  0
 21 26  1  0
 22 23  1  0
 22 24  1  0
 23 27  1  0
 24 25  1  0
 25 28  1  0
  7  8  1  0
  7  9  1  0
  8 12  1  0
  9 10  1  0
 10 13  1  0
M  END
> <minimizedAffinity>
-5.22713

> <CNNscore>
0.9030088186

> <CNNaffinity>
2.8996322155

> <CNN_VS>
2.6183934212

> <CNNaffinity_variance>
0.7106633186

$$$$



 31 32  0  0  0  0  0  0  0  0999 V2000
   12.3091   11.6038    7.1574 O   0  0  0  0  0  0  0  0  0  0  0  0
   13.4547   11.7365    3.1085 C   0  0  0  0  0  0  0  0  0  0  0  0
   14.2991   12.3065    4.1102 O   0  0  0  0  0  0  0  0  0  0  0  0
   14.0030   11.8743    5.4266 C   0  0  0  0  0  0  0  0  0  0  0  0
   14.9399   12.5339    6.2684 O   0  0  0  0  0  0  0  0  0  0  0  0
   12.5536   12.2010    5.8552 C   0  0  0  0  0  0  0  0  0  0  0  0
   11.5734   11.6900    4.7718 C   0  0  0  0  0  0  0  0  0  0  0  0
   10.2295   12.1722    4.9883 O   0  0  0  0  0  0  0  0  0  0  0  0
   11.9928   12.1003    3.3590 C   0  0  0  0  0  0  0  0  0  0  0  0
   11.1425   11.4734    2.3900 O   0  0  0  0  0  0  0  0  0  0  0  0
   14.8425   13.4780    6.0613 H   0  0  0  0  0  0  0  0  0  0  0  0
   10.2078   13.1176    4.7484 H   0  0  0  0  0  0  0  0  0  0  0  0
   10.8660   10.6040    2.7282 H   0  0  0  0  0  0  0  0  0  0  0  0
   13.0845   13.3283    1.2921 O   0  0  0  0  0  0  0  0  0  0  0  0
   13.9179   12.2552    1.7347 C   0  0  0  0  0  0  0  0  0  0  0  0
   13.5377   13.7419    0.5372 H   0  0  0  0  0  0  0  0  0  0  0  0
   11.1209   12.0890    7.7836 C   0  0  0  0  0  0  0  0  0  0  0  0
   11.0084   13.4881    7.5340 O   0  0  0  0  0  0  0  0  0  0  0  0
    9.7238   13.9907    7.8778 C   0  0  0  0  0  0  0  0  0  0  0  0
    9.4947   13.8493    9.3900 C   0  0  0  0  0  0  0  0  0  0  0  0
    8.1702   14.2882    9.7250 O   0  0  0  0  0  0  0  0  0  0  0  0
    9.7359   12.3891    9.8309 C   0  0  0  0  0  0  0  0  0  0  0  0
    9.6426   12.2683   11.2543 O   0  0  0  0  0  0  0  0  0  0  0  0
   11.0834   11.8366    9.3034 C   0  0  0  0  0  0  0  0  0  0  0  0
   11.2009   10.4387    9.6117 O   0  0  0  0  0  0  0  0  0  0  0  0
    7.5433   13.5774    9.4917 H   0  0  0  0  0  0  0  0  0  0  0  0
   10.3652   12.7813   11.6566 H   0  0  0  0  0  0  0  0  0  0  0  0
   10.3298   10.0162    9.5196 H   0  0  0  0  0  0  0  0  0  0  0  0
    9.6484   15.4495    7.4116 C   0  0  0  0  0  0  0  0  0  0  0  0
    9.7008   16.3614    8.5000 O   0  0  0  0  0  0  0  0  0  0  0  0
   10.4986   16.1381    9.0227 H   0  0  0  0  0  0  0  0  0  0  0  0
 14 15  1  0
 14 16  1  0
  2  3  1  0
  2  9  1  0
  2 15  1  0
  3  4  1  0
  4  5  1  0
  4  6  1  0
  5 11  1  0
  6  7  1  0
  6  1  1  0
  1 17  1  0
 17 18  1  0
 17 24  1  0
 18 19  1  0
 19 20  1  0
 19 29  1  0
 29 30  1  0
 30 31  1  0
 20 21  1  0
 20 22  1  0
 21 26  1  0
 22 23  1  0
 22 24  1  0
 23 27  1  0
 24 25  1  0
 25 28  1  0
  7  8  1  0
  7  9  1  0
  8 12  1  0
  9 10  1  0
 10 13  1  0
M  END
> <minimizedAffinity>
-5.23791

> <CNNscore>
0.8910028338

> <CNNaffinity>
2.9674937725

> <CNN_VS>
2.6440453529

> <CNNaffinity_variance>
0.6922222972

$$$$



 31 32  0  0  0  0  0  0  0  0999 V2000
   14.1521   12.5754    3.9174 O   0  0  0  0  0  0  0  0  0  0  0  0
   11.7308   12.0254    7.3173 C   0  0  0  0  0  0  0  0  0  0  0  0
   13.1161   11.6784    7.3615 O   0  0  0  0  0  0  0  0  0  0  0  0
   13.8859   12.2485    6.3176 C   0  0  0  0  0  0  0  0  0  0  0  0
   15.2182   11.8013    6.5329 O   0  0  0  0  0  0  0  0  0  0  0  0
   13.3891   11.8393    4.9115 C   0  0  0  0  0  0  0  0  0  0  0  0
   11.8674   12.1039    4.8107 C   0  0  0  0  0  0  0  0  0  0  0  0
   11.2959   11.5238    3.6180 O   0  0  0  0  0  0  0  0  0  0  0  0
   11.0945   11.5549    6.0112 C   0  0  0  0  0  0  0  0  0  0  0  0
    9.7216   11.9617    5.9423 O   0  0  0  0  0  0  0  0  0  0  0  0
   15.1535   10.8332    6.5810 H   0  0  0  0  0  0  0  0  0  0  0  0
   11.2522   10.5576    3.7458 H   0  0  0  0  0  0  0  0  0  0  0  0
    9.6725   12.8363    5.5190 H   0  0  0  0  0  0  0  0  0  0  0  0
   11.6951   10.1712    8.9082 O   0  0  0  0  0  0  0  0  0  0  0  0
   11.0327   11.3789    8.5278 C   0  0  0  0  0  0  0  0  0  0  0  0
   11.3458    9.9232    9.7815 H   0  0  0  0  0  0  0  0  0  0  0  0
   14.8036   11.7289    2.9697 C   0  0  0  0  0  0  0  0  0  0  0  0
   16.2127   11.9136    3.0810 O   0  0  0  0  0  0  0  0  0  0  0  0
   16.9399   10.9141    2.3786 C   0  0  0  0  0  0  0  0  0  0  0  0
   16.6550   11.0212    0.8732 C   0  0  0  0  0  0  0  0  0  0  0  0
   17.3307    9.9663    0.1733 O   0  0  0  0  0  0  0  0  0  0  0  0
   15.1327   10.9875    0.6156 C   0  0  0  0  0  0  0  0  0  0  0  0
   14.8491   11.2063   -0.7705 O   0  0  0  0  0  0  0  0  0  0  0  0
   14.3676   11.9901    1.5148 C   0  0  0  0  0  0  0  0  0  0  0  0
   12.9507   11.8243    1.3480 O   0  0  0  0  0  0  0  0  0  0  0  0
   16.8151    9.1450    0.2846 H   0  0  0  0  0  0  0  0  0  0  0  0
   15.1298   12.1081   -1.0053 H   0  0  0  0  0  0  0  0  0  0  0  0
   12.7496   10.8791    1.2391 H   0  0  0  0  0  0  0  0  0  0  0  0
   18.4271   11.0972    2.7040 C   0  0  0  0  0  0  0  0  0  0  0  0
   18.6299   11.5674    4.0294 O   0  0  0  0  0  0  0  0  0  0  0  0
   18.1511   10.9562    4.6267 H   0  0  0  0  0  0  0  0  0  0  0  0
 14 15  1  0
 14 16  1  0
  2  3  1  0
  2  9  1  0
  2 15  1  0
  3  4  1  0
  4  5  1  0
  4  6  1  0
  5 11  1  0
  6  7  1  0
  6  1  1  0
  1 17  1  0
 17 18  1  0
 17 24  1  0
 18 19  1  0
 19 20  1  0
 19 29  1  0
 29 30  1  0
 30 31  1  0
 20 21  1  0
 20 22  1  0
 21 26  1  0
 22 23  1  0
 22 24  1  0
 23 27  1  0
 24 25  1  0
 25 28  1  0
  7  8  1  0
  7  9  1  0
  8 12  1  0
  9 10  1  0
 10 13  1  0
M  END
> <minimizedAffinity>
-4.77284

> <CNNscore>
0.8851892352

> <CNNaffinity>
2.9533598423

> <CNN_VS>
2.6142823696

> <CNNaffinity_variance>
0.6468842030

$$$$



 31 32  0  0  0  0  0  0  0  0999 V2000
   13.1793   12.4136    6.8085 O   0  0  0  0  0  0  0  0  0  0  0  0
    9.7170   14.0555    8.5521 C   0  0  0  0  0  0  0  0  0  0  0  0
    9.7577   12.6686    8.2112 O   0  0  0  0  0  0  0  0  0  0  0  0
   11.0652   12.1673    7.9952 C   0  0  0  0  0  0  0  0  0  0  0  0
   10.9025   10.7905    7.6795 O   0  0  0  0  0  0  0  0  0  0  0  0
   11.8132   12.9066    6.8615 C   0  0  0  0  0  0  0  0  0  0  0  0
   11.7396   14.4323    7.1116 C   0  0  0  0  0  0  0  0  0  0  0  0
   12.2047   15.1895    5.9732 O   0  0  0  0  0  0  0  0  0  0  0  0
   10.3224   14.9067    7.4380 C   0  0  0  0  0  0  0  0  0  0  0  0
   10.3389   16.2907    7.8113 O   0  0  0  0  0  0  0  0  0  0  0  0
   10.2755   10.7753    6.9377 H   0  0  0  0  0  0  0  0  0  0  0  0
   11.5211   15.1378    5.2791 H   0  0  0  0  0  0  0  0  0  0  0  0
   11.1787   16.4860    8.2620 H   0  0  0  0  0  0  0  0  0  0  0  0
    7.7151   15.1499    7.6774 O   0  0  0  0  0  0  0  0  0  0  0  0
    8.2492   14.4480    8.8017 C   0  0  0  0  0  0  0  0  0  0  0  0
    6.7514   15.1890    7.8036 H   0  0  0  0  0  0  0  0  0  0  0  0
   13.5472   11.9161    5.5215 C   0  0  0  0  0  0  0  0  0  0  0  0
   14.7570   12.5496    5.1125 O   0  0  0  0  0  0  0  0  0  0  0  0
   15.3381   11.9129    3.9821 C   0  0  0  0  0  0  0  0  0  0  0  0
   14.4046   12.0461    2.7698 C   0  0  0  0  0  0  0  0  0  0  0  0
   14.9572   11.3399    1.6495 O   0  0  0  0  0  0  0  0  0  0  0  0
   12.9934   11.5290    3.1250 C   0  0  0  0  0  0  0  0  0  0  0  0
   12.0837   11.7574    2.0435 O   0  0  0  0  0  0  0  0  0  0  0  0
   12.4652   12.1394    4.4470 C   0  0  0  0  0  0  0  0  0  0  0  0
   11.2195   11.5257    4.8135 O   0  0  0  0  0  0  0  0  0  0  0  0
   14.7810   10.3875    1.7701 H   0  0  0  0  0  0  0  0  0  0  0  0
   11.9827   12.7177    1.9214 H   0  0  0  0  0  0  0  0  0  0  0  0
   11.2495   10.5803    4.5875 H   0  0  0  0  0  0  0  0  0  0  0  0
   16.7093   12.5527    3.7339 C   0  0  0  0  0  0  0  0  0  0  0  0
   17.5036   11.7840    2.8412 O   0  0  0  0  0  0  0  0  0  0  0  0
   16.9673   11.6364    2.0349 H   0  0  0  0  0  0  0  0  0  0  0  0
 14 15  1  0
 14 16  1  0
  2  3  1  0
  2  9  1  0
  2 15  1  0
  3  4  1  0
  4  5  1  0
  4  6  1  0
  5 11  1  0
  6  7  1  0
  6  1  1  0
  1 17  1  0
 17 18  1  0
 17 24  1  0
 18 19  1  0
 19 20  1  0
 19 29  1  0
 29 30  1  0
 30 31  1  0
 20 21  1  0
 20 22  1  0
 21 26  1  0
 22 23  1  0
 22 24  1  0
 23 27  1  0
 24 25  1  0
 25 28  1  0
  7  8  1  0
  7  9  1  0
  8 12  1  0
  9 10  1  0
 10 13  1  0
M  END
> <minimizedAffinity>
-4.74732

> <CNNscore>
0.8341238499

> <CNNaffinity>
2.7978096008

> <CNN_VS>
2.3337197304

> <CNNaffinity_variance>
0.5859100819

$$$$



 31 32  0  0  0  0  0  0  0  0999 V2000
   14.0013   12.6376    4.1451 O   0  0  0  0  0  0  0  0  0  0  0  0
   15.3828   11.3554    0.3806 C   0  0  0  0  0  0  0  0  0  0  0  0
   14.0086   11.1877    0.7337 O   0  0  0  0  0  0  0  0  0  0  0  0
   13.5963   11.9795    1.8340 C   0  0  0  0  0  0  0  0  0  0  0  0
   12.2186   11.6847    2.0259 O   0  0  0  0  0  0  0  0  0  0  0  0
   14.4048   11.6897    3.1199 C   0  0  0  0  0  0  0  0  0  0  0  0
   15.9172   11.7660    2.8001 C   0  0  0  0  0  0  0  0  0  0  0  0
   16.7256   11.2716    3.8899 O   0  0  0  0  0  0  0  0  0  0  0  0
   16.2934   10.9748    1.5460 C   0  0  0  0  0  0  0  0  0  0  0  0
   17.6677   11.2061    1.2102 O   0  0  0  0  0  0  0  0  0  0  0  0
   12.1785   10.7181    2.1139 H   0  0  0  0  0  0  0  0  0  0  0  0
   16.6445   10.2995    3.9065 H   0  0  0  0  0  0  0  0  0  0  0  0
   17.9071   12.1133    1.4676 H   0  0  0  0  0  0  0  0  0  0  0  0
   14.6396    9.5110   -1.0393 O   0  0  0  0  0  0  0  0  0  0  0  0
   15.6755   10.4769   -0.8495 C   0  0  0  0  0  0  0  0  0  0  0  0
   14.7691    9.1319   -1.9256 H   0  0  0  0  0  0  0  0  0  0  0  0
   13.3348   12.0221    5.2479 C   0  0  0  0  0  0  0  0  0  0  0  0
   12.0243   12.5722    5.3580 O   0  0  0  0  0  0  0  0  0  0  0  0
   11.2026   11.8227    6.2434 C   0  0  0  0  0  0  0  0  0  0  0  0
   11.7706   11.8921    7.6687 C   0  0  0  0  0  0  0  0  0  0  0  0
   10.9831   11.0753    8.5473 O   0  0  0  0  0  0  0  0  0  0  0  0
   13.2536   11.4613    7.6725 C   0  0  0  0  0  0  0  0  0  0  0  0
   13.8279   11.6353    8.9723 O   0  0  0  0  0  0  0  0  0  0  0  0
   14.0769   12.1983    6.5870 C   0  0  0  0  0  0  0  0  0  0  0  0
   15.4095   11.6658    6.5287 O   0  0  0  0  0  0  0  0  0  0  0  0
   11.2414   10.1436    8.4135 H   0  0  0  0  0  0  0  0  0  0  0  0
   13.8354   12.5855    9.1827 H   0  0  0  0  0  0  0  0  0  0  0  0
   15.3768   10.7046    6.6728 H   0  0  0  0  0  0  0  0  0  0  0  0
    9.7792   12.3861    6.1561 C   0  0  0  0  0  0  0  0  0  0  0  0
    9.3251   12.4842    4.8134 O   0  0  0  0  0  0  0  0  0  0  0  0
    9.4430   11.6013    4.4058 H   0  0  0  0  0  0  0  0  0  0  0  0
 14 15  1  0
 14 16  1  0
  2  3  1  0
  2  9  1  0
  2 15  1  0
  3  4  1  0
  4  5  1  0
  4  6  1  0
  5 11  1  0
  6  7  1  0
  6  1  1  0
  1 17  1  0
 17 18  1  0
 17 24  1  0
 18 19  1  0
 19 20  1  0
 19 29  1  0
 29 30  1  0
 30 31  1  0
 20 21  1  0
 20 22  1  0
 21 26  1  0
 22 23  1  0
 22 24  1  0
 23 27  1  0
 24 25  1  0
 25 28  1  0
  7  8  1  0
  7  9  1  0
  8 12  1  0
  9 10  1  0
 10 13  1  0
M  END
> <minimizedAffinity>
-5.26232

> <CNNscore>
0.8158835173

> <CNNaffinity>
3.1014823914

> <CNN_VS>
2.5304484367

> <CNNaffinity_variance>
0.3891998231

$$$$



 31 32  0  0  0  0  0  0  0  0999 V2000
   13.5947   11.4269    4.5000 O   0  0  0  0  0  0  0  0  0  0  0  0
   16.3400   12.6695    1.5601 C   0  0  0  0  0  0  0  0  0  0  0  0
   16.3758   13.2517    2.8644 O   0  0  0  0  0  0  0  0  0  0  0  0
   15.6805   12.5048    3.8473 C   0  0  0  0  0  0  0  0  0  0  0  0
   15.8342   13.2287    5.0613 O   0  0  0  0  0  0  0  0  0  0  0  0
   14.1842   12.3109    3.5085 C   0  0  0  0  0  0  0  0  0  0  0  0
   14.0542   11.7610    2.0675 C   0  0  0  0  0  0  0  0  0  0  0  0
   12.6875   11.7846    1.6014 O   0  0  0  0  0  0  0  0  0  0  0  0
   14.9022   12.5416    1.0617 C   0  0  0  0  0  0  0  0  0  0  0  0
   14.8662   11.8980   -0.2188 O   0  0  0  0  0  0  0  0  0  0  0  0
   15.5224   14.1264    4.8597 H   0  0  0  0  0  0  0  0  0  0  0  0
   12.4523   12.7117    1.4090 H   0  0  0  0  0  0  0  0  0  0  0  0
   14.7860   10.9374   -0.0871 H   0  0  0  0  0  0  0  0  0  0  0  0
   16.3200   14.4368   -0.1271 O   0  0  0  0  0  0  0  0  0  0  0  0
   17.1685   13.5567    0.6129 C   0  0  0  0  0  0  0  0  0  0  0  0
   16.8983   15.0981   -0.5446 H   0  0  0  0  0  0  0  0  0  0  0  0
   12.6335   12.0776    5.3318 C   0  0  0  0  0  0  0  0  0  0  0  0
   12.9147   11.7615    6.6931 O   0  0  0  0  0  0  0  0  0  0  0  0
   12.1870   12.5854    7.5945 C   0  0  0  0  0  0  0  0  0  0  0  0
   10.6811   12.3247    7.4416 C   0  0  0  0  0  0  0  0  0  0  0  0
    9.9441   13.2090    8.2983 O   0  0  0  0  0  0  0  0  0  0  0  0
   10.2601   12.4858    5.9645 C   0  0  0  0  0  0  0  0  0  0  0  0
    8.8848   12.1293    5.7885 O   0  0  0  0  0  0  0  0  0  0  0  0
   11.1786   11.6868    5.0067 C   0  0  0  0  0  0  0  0  0  0  0  0
   10.8439   11.9784    3.6408 O   0  0  0  0  0  0  0  0  0  0  0  0
    9.9073   14.0872    7.8738 H   0  0  0  0  0  0  0  0  0  0  0  0
    8.7834   11.1811    5.9830 H   0  0  0  0  0  0  0  0  0  0  0  0
   10.6093   12.9190    3.5623 H   0  0  0  0  0  0  0  0  0  0  0  0
   12.6878   12.2889    9.0131 C   0  0  0  0  0  0  0  0  0  0  0  0
   11.8747   11.3316    9.6773 O   0  0  0  0  0  0  0  0  0  0  0  0
   11.8159   10.5492    9.0908 H   0  0  0  0  0  0  0  0  0  0  0  0
 14 15  1  0
 14 16  1  0
  2  3  1  0
  2  9  1  0
  2 15  1  0
  3  4  1  0
  4  5  1  0
  4  6  1  0
  5 11  1  0
  6  7  1  0
  6  1  1  0
  1 17  1  0
 17 18  1  0
 17 24  1  0
 18 19  1  0
 19 20  1  0
 19 29  1  0
 29 30  1  0
 30 31  1  0
 20 21  1  0
 20 22  1  0
 21 26  1  0
 22 23  1  0
 22 24  1  0
 23 27  1  0
 24 25  1  0
 25 28  1  0
  7  8  1  0
  7  9  1  0
  8 12  1  0
  9 10  1  0
 10 13  1  0
M  END
> <minimizedAffinity>
-4.42025

> <CNNscore>
0.8139283657

> <CNNaffinity>
2.8266170025

> <CNN_VS>
2.3006637096

> <CNNaffinity_variance>
0.5372424126

$$$$



 31 32  0  0  0  0  0  0  0  0999 V2000
   14.8408   11.5084    2.9418 O   0  0  0  0  0  0  0  0  0  0  0  0
   11.4508   11.6605    5.4335 C   0  0  0  0  0  0  0  0  0  0  0  0
   11.3417   12.0167    4.0541 O   0  0  0  0  0  0  0  0  0  0  0  0
   12.4253   11.5714    3.2573 C   0  0  0  0  0  0  0  0  0  0  0  0
   12.1364   12.0082    1.9354 O   0  0  0  0  0  0  0  0  0  0  0  0
   13.7889   12.1241    3.7332 C   0  0  0  0  0  0  0  0  0  0  0  0
   13.9481   11.8543    5.2490 C   0  0  0  0  0  0  0  0  0  0  0  0
   15.0826   12.5530    5.8059 O   0  0  0  0  0  0  0  0  0  0  0  0
   12.7112   12.2617    6.0516 C   0  0  0  0  0  0  0  0  0  0  0  0
   12.8510   11.8489    7.4173 O   0  0  0  0  0  0  0  0  0  0  0  0
   11.9857   12.9647    2.0142 H   0  0  0  0  0  0  0  0  0  0  0  0
   14.8525   13.4992    5.8652 H   0  0  0  0  0  0  0  0  0  0  0  0
   13.3668   11.0245    7.4466 H   0  0  0  0  0  0  0  0  0  0  0  0
    9.1805   12.5397    5.2257 O   0  0  0  0  0  0  0  0  0  0  0  0
   10.1920   12.1645    6.1629 C   0  0  0  0  0  0  0  0  0  0  0  0
    8.3572   12.6505    5.7317 H   0  0  0  0  0  0  0  0  0  0  0  0
   15.7136   12.4593    2.3308 C   0  0  0  0  0  0  0  0  0  0  0  0
   15.7695   13.6245    3.1501 O   0  0  0  0  0  0  0  0  0  0  0  0
   16.8223   14.4987    2.7649 C   0  0  0  0  0  0  0  0  0  0  0  0
   16.5647   15.0353    1.3490 C   0  0  0  0  0  0  0  0  0  0  0  0
   17.6639   15.8584    0.9326 O   0  0  0  0  0  0  0  0  0  0  0  0
   16.3315   13.8640    0.3700 C   0  0  0  0  0  0  0  0  0  0  0  0
   15.9725   14.3524   -0.9270 O   0  0  0  0  0  0  0  0  0  0  0  0
   15.2832   12.8573    0.9055 C   0  0  0  0  0  0  0  0  0  0  0  0
   15.2035   11.7157    0.0375 O   0  0  0  0  0  0  0  0  0  0  0  0
   18.3958   15.2753    0.6552 H   0  0  0  0  0  0  0  0  0  0  0  0
   15.1144   14.8066   -0.8601 H   0  0  0  0  0  0  0  0  0  0  0  0
   16.0933   11.5003   -0.2907 H   0  0  0  0  0  0  0  0  0  0  0  0
   16.9076   15.6211    3.8061 C   0  0  0  0  0  0  0  0  0  0  0  0
   16.4501   15.2003    5.0838 O   0  0  0  0  0  0  0  0  0  0  0  0
   16.9480   14.3885    5.3134 H   0  0  0  0  0  0  0  0  0  0  0  0
 14 15  1  0
 14 16  1  0
  2  3  1  0
  2  9  1  0
  2 15  1  0
  3  4  1  0
  4  5  1  0
  4  6  1  0
  5 11  1  0
  6  7  1  0
  6  1  1  0
  1 17  1  0
 17 18  1  0
 17 24  1  0
 18 19  1  0
 19 20  1  0
 19 29  1  0
 29 30  1  0
 30 31  1  0
 20 21  1  0
 20 22  1  0
 21 26  1  0
 22 23  1  0
 22 24  1  0
 23 27  1  0
 24 25  1  0
 25 28  1  0
  7  8  1  0
  7  9  1  0
  8 12  1  0
  9 10  1  0
 10 13  1  0
M  END
> <minimizedAffinity>
-4.06835

> <CNNscore>
0.8137639165

> <CNNaffinity>
2.9088947773

> <CNN_VS>
2.3671536446

> <CNNaffinity_variance>
0.4317890704

$$$$



 31 32  0  0  0  0  0  0  0  0999 V2000
   16.7040   12.3249    3.0047 O   0  0  0  0  0  0  0  0  0  0  0  0
   12.7056   12.1953    4.3162 C   0  0  0  0  0  0  0  0  0  0  0  0
   13.7669   11.8976    5.2252 O   0  0  0  0  0  0  0  0  0  0  0  0
   15.0408   12.3351    4.7857 C   0  0  0  0  0  0  0  0  0  0  0  0
   15.9515   11.9610    5.8115 O   0  0  0  0  0  0  0  0  0  0  0  0
   15.4548   11.7162    3.4304 C   0  0  0  0  0  0  0  0  0  0  0  0
   14.3128   11.9205    2.4059 C   0  0  0  0  0  0  0  0  0  0  0  0
   14.5291   11.1608    1.1969 O   0  0  0  0  0  0  0  0  0  0  0  0
   12.9444   11.5260    2.9644 C   0  0  0  0  0  0  0  0  0  0  0  0
   11.9114   11.8798    2.0355 O   0  0  0  0  0  0  0  0  0  0  0  0
   15.8105   11.0081    5.9374 H   0  0  0  0  0  0  0  0  0  0  0  0
   14.3575   10.2217    1.3982 H   0  0  0  0  0  0  0  0  0  0  0  0
   12.1789   12.6836    1.5571 H   0  0  0  0  0  0  0  0  0  0  0  0
   10.2672   12.1481    4.1662 O   0  0  0  0  0  0  0  0  0  0  0  0
   11.3850   11.7080    4.9401 C   0  0  0  0  0  0  0  0  0  0  0  0
    9.4939   11.6501    4.4827 H   0  0  0  0  0  0  0  0  0  0  0  0
   17.7180   11.3682    2.6953 C   0  0  0  0  0  0  0  0  0  0  0  0
   17.1947   10.4308    1.7574 O   0  0  0  0  0  0  0  0  0  0  0  0
   18.2135    9.6198    1.1871 C   0  0  0  0  0  0  0  0  0  0  0  0
   18.8629    8.7533    2.2763 C   0  0  0  0  0  0  0  0  0  0  0  0
   19.9400    7.9900    1.7138 O   0  0  0  0  0  0  0  0  0  0  0  0
   19.3469    9.6402    3.4442 C   0  0  0  0  0  0  0  0  0  0  0  0
   19.8456    8.8354    4.5180 O   0  0  0  0  0  0  0  0  0  0  0  0
   18.2450   10.6138    3.9315 C   0  0  0  0  0  0  0  0  0  0  0  0
   18.7787   11.5146    4.9147 O   0  0  0  0  0  0  0  0  0  0  0  0
   20.7145    8.5764    1.6188 H   0  0  0  0  0  0  0  0  0  0  0  0
   19.1094    8.3119    4.8803 H   0  0  0  0  0  0  0  0  0  0  0  0
   19.6897   11.7518    4.6705 H   0  0  0  0  0  0  0  0  0  0  0  0
   17.5777    8.7770    0.0750 C   0  0  0  0  0  0  0  0  0  0  0  0
   16.1623    8.8990    0.0555 O   0  0  0  0  0  0  0  0  0  0  0  0
   15.9577    9.8561    0.0133 H   0  0  0  0  0  0  0  0  0  0  0  0
 14 15  1  0
 14 16  1  0
  2  3  1  0
  2  9  1  0
  2 15  1  0
  3  4  1  0
  4  5  1  0
  4  6  1  0
  5 11  1  0
  6  7  1  0
  6  1  1  0
  1 17  1  0
 17 18  1  0
 17 24  1  0
 18 19  1  0
 19 20  1  0
 19 29  1  0
 29 30  1  0
 30 31  1  0
 20 21  1  0
 20 22  1  0
 21 26  1  0
 22 23  1  0
 22 24  1  0
 23 27  1  0
 24 25  1  0
 25 28  1  0
  7  8  1  0
  7  9  1  0
  8 12  1  0
  9 10  1  0
 10 13  1  0
M  END
> <minimizedAffinity>
-4.47862

> <CNNscore>
0.7679325342

> <CNNaffinity>
2.6299278736

> <CNN_VS>
2.0196070671

> <CNNaffinity_variance>
0.7837507129

$$$$



 31 32  0  0  0  0  0  0  0  0999 V2000
   13.6826   11.5417    3.6390 O   0  0  0  0  0  0  0  0  0  0  0  0
   13.2911   14.5428    0.7125 C   0  0  0  0  0  0  0  0  0  0  0  0
   13.8047   13.2580    0.3559 O   0  0  0  0  0  0  0  0  0  0  0  0
   13.5371   12.2460    1.3107 C   0  0  0  0  0  0  0  0  0  0  0  0
   14.1108   11.0570    0.7827 O   0  0  0  0  0  0  0  0  0  0  0  0
   14.1218   12.5659    2.7061 C   0  0  0  0  0  0  0  0  0  0  0  0
   13.6806   13.9874    3.1308 C   0  0  0  0  0  0  0  0  0  0  0  0
   14.3839   14.4425    4.3072 O   0  0  0  0  0  0  0  0  0  0  0  0
   13.8992   15.0247    2.0279 C   0  0  0  0  0  0  0  0  0  0  0  0
   13.3334   16.2836    2.4152 O   0  0  0  0  0  0  0  0  0  0  0  0
   15.0376   11.2845    0.6008 H   0  0  0  0  0  0  0  0  0  0  0  0
   15.2973   14.6624    4.0442 H   0  0  0  0  0  0  0  0  0  0  0  0
   12.5498   16.1207    2.9684 H   0  0  0  0  0  0  0  0  0  0  0  0
   12.8211   16.7090   -0.3155 O   0  0  0  0  0  0  0  0  0  0  0  0
   13.6128   15.5247   -0.4290 C   0  0  0  0  0  0  0  0  0  0  0  0
   13.2048   17.3619   -0.9259 H   0  0  0  0  0  0  0  0  0  0  0  0
   12.8721   12.0556    4.6965 C   0  0  0  0  0  0  0  0  0  0  0  0
   13.4753   11.7183    5.9433 O   0  0  0  0  0  0  0  0  0  0  0  0
   12.8906   12.4261    7.0288 C   0  0  0  0  0  0  0  0  0  0  0  0
   11.4194   12.0152    7.1889 C   0  0  0  0  0  0  0  0  0  0  0  0
   10.8102   12.7838    8.2364 O   0  0  0  0  0  0  0  0  0  0  0  0
   10.6695   12.1883    5.8500 C   0  0  0  0  0  0  0  0  0  0  0  0
    9.3289   11.6968    5.9537 O   0  0  0  0  0  0  0  0  0  0  0  0
   11.4246   11.5275    4.6700 C   0  0  0  0  0  0  0  0  0  0  0  0
   10.7707   11.8349    3.4287 O   0  0  0  0  0  0  0  0  0  0  0  0
   10.5985   13.6690    7.8839 H   0  0  0  0  0  0  0  0  0  0  0  0
    9.3622   10.7364    6.1076 H   0  0  0  0  0  0  0  0  0  0  0  0
   10.4375   12.7481    3.4599 H   0  0  0  0  0  0  0  0  0  0  0  0
   13.7179   12.1291    8.2852 C   0  0  0  0  0  0  0  0  0  0  0  0
   13.1521   11.0827    9.0622 O   0  0  0  0  0  0  0  0  0  0  0  0
   13.0254   10.3177    8.4636 H   0  0  0  0  0  0  0  0  0  0  0  0
 14 15  1  0
 14 16  1  0
  2  3  1  0
  2  9  1  0
  2 15  1  0
  3  4  1  0
  4  5  1  0
  4  6  1  0
  5 11  1  0
  6  7  1  0
  6  1  1  0
  1 17  1  0
 17 18  1  0
 17 24  1  0
 18 19  1  0
 19 20  1  0
 19 29  1  0
 29 30  1  0
 30 31  1  0
 20 21  1  0
 20 22  1  0
 21 26  1  0
 22 23  1  0
 22 24  1  0
 23 27  1  0
 24 25  1  0
 25 28  1  0
  7  8  1  0
  7  9  1  0
  8 12  1  0
  9 10  1  0
 10 13  1  0
M  END
> <minimizedAffinity>
-4.56078

> <CNNscore>
0.7563123703

> <CNNaffinity>
2.9757030010

> <CNN_VS>
2.2505609989

> <CNNaffinity_variance>
0.5381239653

$$$$



 31 32  0  0  0  0  0  0  0  0999 V2000
   11.1820   11.6907    6.8129 O   0  0  0  0  0  0  0  0  0  0  0  0
   13.9740   11.7079    3.6620 C   0  0  0  0  0  0  0  0  0  0  0  0
   14.3070   12.3054    4.9164 O   0  0  0  0  0  0  0  0  0  0  0  0
   13.4630   11.9108    5.9838 C   0  0  0  0  0  0  0  0  0  0  0  0
   13.9498   12.5932    7.1323 O   0  0  0  0  0  0  0  0  0  0  0  0
   11.9756   12.2506    5.7317 C   0  0  0  0  0  0  0  0  0  0  0  0
   11.5567   11.7100    4.3433 C   0  0  0  0  0  0  0  0  0  0  0  0
   10.2585   12.1992    3.9421 O   0  0  0  0  0  0  0  0  0  0  0  0
   12.5533   12.0799    3.2433 C   0  0  0  0  0  0  0  0  0  0  0  0
   12.2001   11.4266    2.0171 O   0  0  0  0  0  0  0  0  0  0  0  0
   13.9643   13.5311    6.8798 H   0  0  0  0  0  0  0  0  0  0  0  0
   10.3555   13.1375    3.6930 H   0  0  0  0  0  0  0  0  0  0  0  0
   11.7929   10.5673    2.2233 H   0  0  0  0  0  0  0  0  0  0  0  0
   15.6652   11.0760    2.0155 O   0  0  0  0  0  0  0  0  0  0  0  0
   14.9946   12.1872    2.6134 C   0  0  0  0  0  0  0  0  0  0  0  0
   16.1351   11.4189    1.2359 H   0  0  0  0  0  0  0  0  0  0  0  0
   10.2629   12.6264    7.3777 C   0  0  0  0  0  0  0  0  0  0  0  0
    9.3861   13.0857    6.3518 O   0  0  0  0  0  0  0  0  0  0  0  0
    8.2734   13.7968    6.8785 C   0  0  0  0  0  0  0  0  0  0  0  0
    8.7544   15.0777    7.5764 C   0  0  0  0  0  0  0  0  0  0  0  0
    7.6389   15.7564    8.1714 O   0  0  0  0  0  0  0  0  0  0  0  0
    9.8361   14.7386    8.6251 C   0  0  0  0  0  0  0  0  0  0  0  0
   10.3779   15.9336    9.1977 O   0  0  0  0  0  0  0  0  0  0  0  0
   10.9508   13.8355    8.0409 C   0  0  0  0  0  0  0  0  0  0  0  0
   11.8538   13.4273    9.0806 O   0  0  0  0  0  0  0  0  0  0  0  0
    7.4128   15.3023    9.0053 H   0  0  0  0  0  0  0  0  0  0  0  0
   10.8421   16.4284    8.5000 H   0  0  0  0  0  0  0  0  0  0  0  0
   11.3503   13.2654    9.8967 H   0  0  0  0  0  0  0  0  0  0  0  0
    7.3113   14.0906    5.7213 C   0  0  0  0  0  0  0  0  0  0  0  0
    7.6494   13.3639    4.5481 O   0  0  0  0  0  0  0  0  0  0  0  0
    7.7090   12.4199    4.8029 H   0  0  0  0  0  0  0  0  0  0  0  0
 14 15  1  0
 14 16  1  0
  2  3  1  0
  2  9  1  0
  2 15  1  0
  3  4  1  0
  4  5  1  0
  4  6  1  0
  5 11  1  0
  6  7  1  0
  6  1  1  0
  1 17  1  0
 17 18  1  0
 17 24  1  0
 18 19  1  0
 19 20  1  0
 19 29  1  0
 29 30  1  0
 30 31  1  0
 20 21  1  0
 20 22  1  0
 21 26  1  0
 22 23  1  0
 22 24  1  0
 23 27  1  0
 24 25  1  0
 25 28  1  0
  7  8  1  0
  7  9  1  0
  8 12  1  0
  9 10  1  0
 10 13  1  0
M  END
> <minimizedAffinity>
-6.16562

> <CNNscore>
0.7337157726

> <CNNaffinity>
3.0117197037

> <CNN_VS>
2.2097463608

> <CNNaffinity_variance>
0.5915984511

$$$$



 31 32  0  0  0  0  0  0  0  0999 V2000
   16.4461   12.2726    3.4237 O   0  0  0  0  0  0  0  0  0  0  0  0
   19.0944    9.0438    3.9578 C   0  0  0  0  0  0  0  0  0  0  0  0
   18.0736    8.9747    2.9606 O   0  0  0  0  0  0  0  0  0  0  0  0
   17.5103   10.2308    2.6256 C   0  0  0  0  0  0  0  0  0  0  0  0
   16.5343    9.9614    1.6273 O   0  0  0  0  0  0  0  0  0  0  0  0
   16.8725   10.9467    3.8388 C   0  0  0  0  0  0  0  0  0  0  0  0
   17.8923   10.9859    5.0025 C   0  0  0  0  0  0  0  0  0  0  0  0
   17.2853   11.4210    6.2385 O   0  0  0  0  0  0  0  0  0  0  0  0
   18.5448    9.6261    5.2582 C   0  0  0  0  0  0  0  0  0  0  0  0
   19.5864    9.7543    6.2348 O   0  0  0  0  0  0  0  0  0  0  0  0
   15.9548    9.2867    2.0181 H   0  0  0  0  0  0  0  0  0  0  0  0
   16.7321   10.6908    6.5742 H   0  0  0  0  0  0  0  0  0  0  0  0
   19.9950   10.6328    6.1469 H   0  0  0  0  0  0  0  0  0  0  0  0
   19.9810    7.4260    5.5600 O   0  0  0  0  0  0  0  0  0  0  0  0
   19.6434    7.6235    4.1855 C   0  0  0  0  0  0  0  0  0  0  0  0
   20.1228    6.4711    5.6792 H   0  0  0  0  0  0  0  0  0  0  0  0
   15.0636   12.5234    3.6785 C   0  0  0  0  0  0  0  0  0  0  0  0
   14.7613   12.1191    5.0117 O   0  0  0  0  0  0  0  0  0  0  0  0
   13.4889   12.5891    5.4372 C   0  0  0  0  0  0  0  0  0  0  0  0
   12.3836   11.9526    4.5816 C   0  0  0  0  0  0  0  0  0  0  0  0
   11.1060   12.4836    4.9625 O   0  0  0  0  0  0  0  0  0  0  0  0
   12.6697   12.1863    3.0821 C   0  0  0  0  0  0  0  0  0  0  0  0
   11.7127   11.4969    2.2708 O   0  0  0  0  0  0  0  0  0  0  0  0
   14.1197   11.7993    2.6988 C   0  0  0  0  0  0  0  0  0  0  0  0
   14.3870   12.1662    1.3361 O   0  0  0  0  0  0  0  0  0  0  0  0
   11.0082   13.3668    4.5587 H   0  0  0  0  0  0  0  0  0  0  0  0
   11.8231   10.5397    2.4077 H   0  0  0  0  0  0  0  0  0  0  0  0
   13.9451   13.0098    1.1391 H   0  0  0  0  0  0  0  0  0  0  0  0
   13.3371   12.2556    6.9261 C   0  0  0  0  0  0  0  0  0  0  0  0
   12.2322   11.3966    7.1710 O   0  0  0  0  0  0  0  0  0  0  0  0
   12.3383   10.6190    6.5848 H   0  0  0  0  0  0  0  0  0  0  0  0
 14 15  1  0
 14 16  1  0
  2  3  1  0
  2  9  1  0
  2 15  1  0
  3  4  1  0
  4  5  1  0
  4  6  1  0
  5 11  1  0
  6  7  1  0
  6  1  1  0
  1 17  1  0
 17 18  1  0
 17 24  1  0
 18 19  1  0
 19 20  1  0
 19 29  1  0
 29 30  1  0
 30 31  1  0
 20 21  1  0
 20 22  1  0
 21 26  1  0
 22 23  1  0
 22 24  1  0
 23 27  1  0
 24 25  1  0
 25 28  1  0
  7  8  1  0
  7  9  1  0
  8 12  1  0
  9 10  1  0
 10 13  1  0
M  END
> <minimizedAffinity>
-4.23228

> <CNNscore>
0.7190713882

> <CNNaffinity>
2.6863005161

> <CNN_VS>
1.9316418171

> <CNNaffinity_variance>
0.6926522255

$$$$



 31 32  0  0  0  0  0  0  0  0999 V2000
   14.8386   13.5959    7.0266 O   0  0  0  0  0  0  0  0  0  0  0  0
   17.6806   10.9099    5.4669 C   0  0  0  0  0  0  0  0  0  0  0  0
   17.5102   11.0306    6.8803 O   0  0  0  0  0  0  0  0  0  0  0  0
   16.2997   11.6600    7.2624 C   0  0  0  0  0  0  0  0  0  0  0  0
   16.3082   11.6803    8.6841 O   0  0  0  0  0  0  0  0  0  0  0  0
   16.1599   13.0909    6.6930 C   0  0  0  0  0  0  0  0  0  0  0  0
   16.4186   13.0606    5.1673 C   0  0  0  0  0  0  0  0  0  0  0  0
   16.5424   14.3888    4.6138 O   0  0  0  0  0  0  0  0  0  0  0  0
   17.6847   12.2842    4.8010 C   0  0  0  0  0  0  0  0  0  0  0  0
   17.7905   12.1559    3.3772 O   0  0  0  0  0  0  0  0  0  0  0  0
   17.1458   12.1098    8.9242 H   0  0  0  0  0  0  0  0  0  0  0  0
   17.4079   14.7475    4.8859 H   0  0  0  0  0  0  0  0  0  0  0  0
   16.8963   12.1005    2.9980 H   0  0  0  0  0  0  0  0  0  0  0  0
   18.9079    8.8009    5.5938 O   0  0  0  0  0  0  0  0  0  0  0  0
   19.0055   10.1717    5.2020 C   0  0  0  0  0  0  0  0  0  0  0  0
   19.6836    8.3473    5.2215 H   0  0  0  0  0  0  0  0  0  0  0  0
   13.8086   12.6188    6.8727 C   0  0  0  0  0  0  0  0  0  0  0  0
   13.1925   12.7971    5.5995 O   0  0  0  0  0  0  0  0  0  0  0  0
   12.3566   11.7010    5.2521 C   0  0  0  0  0  0  0  0  0  0  0  0
   11.1829   11.6055    6.2381 C   0  0  0  0  0  0  0  0  0  0  0  0
   10.3813   10.4555    5.9313 O   0  0  0  0  0  0  0  0  0  0  0  0
   11.7090   11.5583    7.6892 C   0  0  0  0  0  0  0  0  0  0  0  0
   10.6237   11.5897    8.6223 O   0  0  0  0  0  0  0  0  0  0  0  0
   12.7330   12.6850    7.9744 C   0  0  0  0  0  0  0  0  0  0  0  0
   13.3026   12.5179    9.2822 O   0  0  0  0  0  0  0  0  0  0  0  0
   10.8329    9.6644    6.2820 H   0  0  0  0  0  0  0  0  0  0  0  0
   10.1701   12.4469    8.5408 H   0  0  0  0  0  0  0  0  0  0  0  0
   13.4260   11.5696    9.4589 H   0  0  0  0  0  0  0  0  0  0  0  0
   11.8874   11.9059    3.8067 C   0  0  0  0  0  0  0  0  0  0  0  0
   10.4813   12.0927    3.7232 O   0  0  0  0  0  0  0  0  0  0  0  0
   10.2521   12.8213    4.3365 H   0  0  0  0  0  0  0  0  0  0  0  0
 14 15  1  0
 14 16  1  0
  2  3  1  0
  2  9  1  0
  2 15  1  0
  3  4  1  0
  4  5  1  0
  4  6  1  0
  5 11  1  0
  6  7  1  0
  6  1  1  0
  1 17  1  0
 17 18  1  0
 17 24  1  0
 18 19  1  0
 19 20  1  0
 19 29  1  0
 29 30  1  0
 30 31  1  0
 20 21  1  0
 20 22  1  0
 21 26  1  0
 22 23  1  0
 22 24  1  0
 23 27  1  0
 24 25  1  0
 25 28  1  0
  7  8  1  0
  7  9  1  0
  8 12  1  0
  9 10  1  0
 10 13  1  0
M  END
> <minimizedAffinity>
-3.65448

> <CNNscore>
0.7144326568

> <CNNaffinity>
2.6972248554

> <CNN_VS>
1.9269855022

> <CNNaffinity_variance>
0.7046751976

$$$$



 31 32  0  0  0  0  0  0  0  0999 V2000
   12.9630   11.5795    3.1349 O   0  0  0  0  0  0  0  0  0  0  0  0
   11.5546   11.4762    7.1010 C   0  0  0  0  0  0  0  0  0  0  0  0
   10.7110   11.9603    6.0544 O   0  0  0  0  0  0  0  0  0  0  0  0
   11.1419   11.5985    4.7540 C   0  0  0  0  0  0  0  0  0  0  0  0
   10.1854   12.1564    3.8622 O   0  0  0  0  0  0  0  0  0  0  0  0
   12.5635   12.1117    4.4269 C   0  0  0  0  0  0  0  0  0  0  0  0
   13.5289   11.7010    5.5648 C   0  0  0  0  0  0  0  0  0  0  0  0
   14.8131   12.3505    5.4447 O   0  0  0  0  0  0  0  0  0  0  0  0
   12.9725   12.0236    6.9528 C   0  0  0  0  0  0  0  0  0  0  0  0
   13.8311   11.4846    7.9663 O   0  0  0  0  0  0  0  0  0  0  0  0
   10.1507   13.1003    4.0894 H   0  0  0  0  0  0  0  0  0  0  0  0
   14.7012   13.2856    5.6996 H   0  0  0  0  0  0  0  0  0  0  0  0
   14.2349   10.6641    7.6342 H   0  0  0  0  0  0  0  0  0  0  0  0
   11.1602   10.8973    9.4418 O   0  0  0  0  0  0  0  0  0  0  0  0
   10.9438   11.9018    8.4487 C   0  0  0  0  0  0  0  0  0  0  0  0
   10.9416   11.3001   10.2999 H   0  0  0  0  0  0  0  0  0  0  0  0
   13.8430   12.4463    2.4183 C   0  0  0  0  0  0  0  0  0  0  0  0
   13.1215   13.0505    1.3475 O   0  0  0  0  0  0  0  0  0  0  0  0
   13.8379   14.1301    0.7624 C   0  0  0  0  0  0  0  0  0  0  0  0
   15.1285   13.6097    0.1122 C   0  0  0  0  0  0  0  0  0  0  0  0
   15.8868   14.7089   -0.4129 O   0  0  0  0  0  0  0  0  0  0  0  0
   15.9484   12.7934    1.1351 C   0  0  0  0  0  0  0  0  0  0  0  0
   17.0933   12.2031    0.5103 O   0  0  0  0  0  0  0  0  0  0  0  0
   15.0853   11.7282    1.8560 C   0  0  0  0  0  0  0  0  0  0  0  0
   15.8467   11.0938    2.8956 O   0  0  0  0  0  0  0  0  0  0  0  0
   16.3510   15.1430    0.3279 H   0  0  0  0  0  0  0  0  0  0  0  0
   16.7870   11.5561   -0.1490 H   0  0  0  0  0  0  0  0  0  0  0  0
   16.4202   11.7542    3.3208 H   0  0  0  0  0  0  0  0  0  0  0  0
   12.9124   14.8166   -0.2492 C   0  0  0  0  0  0  0  0  0  0  0  0
   12.9730   14.2041   -1.5298 O   0  0  0  0  0  0  0  0  0  0  0  0
   12.8014   13.2486   -1.3988 H   0  0  0  0  0  0  0  0  0  0  0  0
 14 15  1  0
 14 16  1  0
  2  3  1  0
  2  9  1  0
  2 15  1  0
  3  4  1  0
  4  5  1  0
  4  6  1  0
  5 11  1  0
  6  7  1  0
  6  1  1  0
  1 17  1  0
 17 18  1  0
 17 24  1  0
 18 19  1  0
 19 20  1  0
 19 29  1  0
 29 30  1  0
 30 31  1  0
 20 21  1  0
 20 22  1  0
 21 26  1  0
 22 23  1  0
 22 24  1  0
 23 27  1  0
 24 25  1  0
 25 28  1  0
  7  8  1  0
  7  9  1  0
  8 12  1  0
  9 10  1  0
 10 13  1  0
M  END
> <minimizedAffinity>
-5.09496

> <CNNscore>
0.6839183569

> <CNNaffinity>
2.9599206448

> <CNN_VS>
2.0243439674

> <CNNaffinity_variance>
0.4056788981

$$$$
