


 31 32  0  0  0  0  0  0  0  0999 V2000
    9.5736  -15.9473   -1.3915 O   0  0  0  0  0  0  0  0  0  0  0  0
    6.2213  -18.1309   -0.0809 C   0  0  0  0  0  0  0  0  0  0  0  0
    6.0486  -16.8443   -0.6778 O   0  0  0  0  0  0  0  0  0  0  0  0
    7.1774  -16.3906   -1.4040 C   0  0  0  0  0  0  0  0  0  0  0  0
    6.8157  -15.1168   -1.9218 O   0  0  0  0  0  0  0  0  0  0  0  0
    8.4514  -16.2886   -0.5334 C   0  0  0  0  0  0  0  0  0  0  0  0
    8.6625  -17.6236    0.2208 C   0  0  0  0  0  0  0  0  0  0  0  0
    9.6895  -17.5172    1.2305 O   0  0  0  0  0  0  0  0  0  0  0  0
    7.3875  -18.1202    0.9049 C   0  0  0  0  0  0  0  0  0  0  0  0
    7.5986  -19.4280    1.4526 O   0  0  0  0  0  0  0  0  0  0  0  0
    6.5293  -14.6033   -1.1484 H   0  0  0  0  0  0  0  0  0  0  0  0
    9.3258  -17.0026    1.9752 H   0  0  0  0  0  0  0  0  0  0  0  0
    8.2283  -19.9088    0.8880 H   0  0  0  0  0  0  0  0  0  0  0  0
    4.9324  -18.0892    1.9945 O   0  0  0  0  0  0  0  0  0  0  0  0
    4.9099  -18.5129    0.6299 C   0  0  0  0  0  0  0  0  0  0  0  0
    4.0221  -18.1698    2.3278 H   0  0  0  0  0  0  0  0  0  0  0  0
   10.4197  -14.9402   -0.8354 C   0  0  0  0  0  0  0  0  0  0  0  0
   11.3093  -15.5506    0.0964 O   0  0  0  0  0  0  0  0  0  0  0  0
   12.3618  -14.6762    0.4819 C   0  0  0  0  0  0  0  0  0  0  0  0
   11.7875  -13.4660    1.2333 C   0  0  0  0  0  0  0  0  0  0  0  0
   12.8421  -12.5482    1.5569 O   0  0  0  0  0  0  0  0  0  0  0  0
   10.6863  -12.7885    0.3889 C   0  0  0  0  0  0  0  0  0  0  0  0
   10.0605  -11.7330    1.1263 O   0  0  0  0  0  0  0  0  0  0  0  0
    9.6440  -13.8078   -0.1347 C   0  0  0  0  0  0  0  0  0  0  0  0
    8.7251  -13.1618   -1.0298 O   0  0  0  0  0  0  0  0  0  0  0  0
   13.0601  -12.0365    0.7548 H   0  0  0  0  0  0  0  0  0  0  0  0
    9.5976  -12.1208    1.8895 H   0  0  0  0  0  0  0  0  0  0  0  0
    9.2052  -12.5044   -1.5619 H   0  0  0  0  0  0  0  0  0  0  0  0
   13.3502  -15.4773    1.3378 C   0  0  0  0  0  0  0  0  0  0  0  0
   13.2002  -15.2036    2.7240 O   0  0  0  0  0  0  0  0  0  0  0  0
   12.2564  -15.3470    2.9439 H   0  0  0  0  0  0  0  0  0  0  0  0
 14 15  1  0
 14 16  1  0
  2  3  1  0
  2  9  1  0
  2 15  1  0
  3  4  1  0
  4  5  1  0
  4  6  1  0
  5 11  1  0
  6  7  1  0
  6  1  1  0
  1 17  1  0
 17 18  1  0
 17 24  1  0
 18 19  1  0
 19 20  1  0
 19 29  1  0
 29 30  1  0
 30 31  1  0
 20 21  1  0
 20 22  1  0
 21 26  1  0
 22 23  1  0
 22 24  1  0
 23 27  1  0
 24 25  1  0
 25 28  1  0
  7  8  1  0
  7  9  1  0
  8 12  1  0
  9 10  1  0
 10 13  1  0
M  END
> <minimizedAffinity>
-4.65643

> <CNNscore>
0.9431899786

> <CNNaffinity>
3.1272637844

> <CNN_VS>
2.9496037960

> <CNNaffinity_variance>
0.5223929286

$$$$



 31 32  0  0  0  0  0  0  0  0999 V2000
   11.7274  -14.9904    0.5471 O   0  0  0  0  0  0  0  0  0  0  0  0
   14.1909  -14.0069    3.8164 C   0  0  0  0  0  0  0  0  0  0  0  0
   13.7716  -15.3581    3.6173 O   0  0  0  0  0  0  0  0  0  0  0  0
   13.2815  -15.6226    2.3145 C   0  0  0  0  0  0  0  0  0  0  0  0
   12.9264  -16.9994    2.3087 O   0  0  0  0  0  0  0  0  0  0  0  0
   12.0686  -14.7405    1.9376 C   0  0  0  0  0  0  0  0  0  0  0  0
   12.4129  -13.2561    2.2091 C   0  0  0  0  0  0  0  0  0  0  0  0
   11.2507  -12.4048    2.1094 O   0  0  0  0  0  0  0  0  0  0  0  0
   13.0308  -13.0395    3.5917 C   0  0  0  0  0  0  0  0  0  0  0  0
   13.4707  -11.6820    3.7285 O   0  0  0  0  0  0  0  0  0  0  0  0
   12.3187  -17.1053    3.0592 H   0  0  0  0  0  0  0  0  0  0  0  0
   10.6985  -12.5574    2.8992 H   0  0  0  0  0  0  0  0  0  0  0  0
   13.7623  -11.3556    2.8596 H   0  0  0  0  0  0  0  0  0  0  0  0
   13.7739  -14.3295    6.2022 O   0  0  0  0  0  0  0  0  0  0  0  0
   14.7386  -13.8779    5.2496 C   0  0  0  0  0  0  0  0  0  0  0  0
   14.2391  -14.4171    7.0520 H   0  0  0  0  0  0  0  0  0  0  0  0
   10.3193  -15.0266    0.3122 C   0  0  0  0  0  0  0  0  0  0  0  0
    9.9287  -16.3757    0.0681 O   0  0  0  0  0  0  0  0  0  0  0  0
    8.5169  -16.5382    0.1041 C   0  0  0  0  0  0  0  0  0  0  0  0
    7.8693  -15.7374   -1.0354 C   0  0  0  0  0  0  0  0  0  0  0  0
    6.4405  -15.8421   -0.9535 O   0  0  0  0  0  0  0  0  0  0  0  0
    8.3332  -14.2654   -0.9823 C   0  0  0  0  0  0  0  0  0  0  0  0
    7.8321  -13.5360   -2.1076 O   0  0  0  0  0  0  0  0  0  0  0  0
    9.8733  -14.1439   -0.8697 C   0  0  0  0  0  0  0  0  0  0  0  0
   10.2496  -12.7712   -0.6778 O   0  0  0  0  0  0  0  0  0  0  0  0
    6.1281  -15.2363   -0.2549 H   0  0  0  0  0  0  0  0  0  0  0  0
    8.2306  -13.9023   -2.9164 H   0  0  0  0  0  0  0  0  0  0  0  0
    9.5944  -12.3366   -0.1053 H   0  0  0  0  0  0  0  0  0  0  0  0
    8.2125  -18.0379    0.0075 C   0  0  0  0  0  0  0  0  0  0  0  0
    9.0786  -18.7011   -0.9029 O   0  0  0  0  0  0  0  0  0  0  0  0
    9.9957  -18.4846   -0.6354 H   0  0  0  0  0  0  0  0  0  0  0  0
 14 15  1  0
 14 16  1  0
  2  3  1  0
  2  9  1  0
  2 15  1  0
  3  4  1  0
  4  5  1  0
  4  6  1  0
  5 11  1  0
  6  7  1  0
  6  1  1  0
  1 17  1  0
 17 18  1  0
 17 24  1  0
 18 19  1  0
 19 20  1  0
 19 29  1  0
 29 30  1  0
 30 31  1  0
 20 21  1  0
 20 22  1  0
 21 26  1  0
 22 23  1  0
 22 24  1  0
 23 27  1  0
 24 25  1  0
 25 28  1  0
  7  8  1  0
  7  9  1  0
  8 12  1  0
  9 10  1  0
 10 13  1  0
M  END
> <minimizedAffinity>
-4.46316

> <CNNscore>
0.8772757053

> <CNNaffinity>
2.9767732620

> <CNN_VS>
2.6114509106

> <CNNaffinity_variance>
0.4631538689

$$$$



 31 32  0  0  0  0  0  0  0  0999 V2000
   10.4988  -12.6337   -0.5881 O   0  0  0  0  0  0  0  0  0  0  0  0
    8.2663  -16.0870    0.3145 C   0  0  0  0  0  0  0  0  0  0  0  0
    9.6836  -16.0834    0.4957 O   0  0  0  0  0  0  0  0  0  0  0  0
   10.2567  -14.7880    0.5249 C   0  0  0  0  0  0  0  0  0  0  0  0
   11.6511  -14.9880    0.7182 O   0  0  0  0  0  0  0  0  0  0  0  0
    9.9908  -13.9833   -0.7686 C   0  0  0  0  0  0  0  0  0  0  0  0
    8.4761  -14.0124   -1.0855 C   0  0  0  0  0  0  0  0  0  0  0  0
    8.1891  -13.4896   -2.4008 O   0  0  0  0  0  0  0  0  0  0  0  0
    7.8860  -15.4216   -1.0063 C   0  0  0  0  0  0  0  0  0  0  0  0
    6.4611  -15.3690   -1.1541 O   0  0  0  0  0  0  0  0  0  0  0  0
   11.9188  -15.5937    0.0074 H   0  0  0  0  0  0  0  0  0  0  0  0
    8.4725  -14.1544   -3.0562 H   0  0  0  0  0  0  0  0  0  0  0  0
    6.1346  -14.5363   -0.7713 H   0  0  0  0  0  0  0  0  0  0  0  0
    6.3980  -17.6112    0.7100 O   0  0  0  0  0  0  0  0  0  0  0  0
    7.7793  -17.5472    0.3495 C   0  0  0  0  0  0  0  0  0  0  0  0
    6.1002  -18.5172    0.5187 H   0  0  0  0  0  0  0  0  0  0  0  0
   11.8392  -12.4713   -1.0530 C   0  0  0  0  0  0  0  0  0  0  0  0
   12.6897  -12.2413    0.0678 O   0  0  0  0  0  0  0  0  0  0  0  0
   14.0653  -12.3491   -0.2742 C   0  0  0  0  0  0  0  0  0  0  0  0
   14.4427  -11.2482   -1.2766 C   0  0  0  0  0  0  0  0  0  0  0  0
   15.8118  -11.4030   -1.6775 O   0  0  0  0  0  0  0  0  0  0  0  0
   13.4894  -11.2843   -2.4909 C   0  0  0  0  0  0  0  0  0  0  0  0
   13.7541  -10.1897   -3.3748 O   0  0  0  0  0  0  0  0  0  0  0  0
   12.0012  -11.3180   -2.0623 C   0  0  0  0  0  0  0  0  0  0  0  0
   11.1583  -11.4968   -3.2114 O   0  0  0  0  0  0  0  0  0  0  0  0
   15.8586  -12.1196   -2.3385 H   0  0  0  0  0  0  0  0  0  0  0  0
   13.5478   -9.3597   -2.9103 H   0  0  0  0  0  0  0  0  0  0  0  0
   11.5917  -12.1042   -3.8351 H   0  0  0  0  0  0  0  0  0  0  0  0
   14.8811  -12.2613    1.0212 C   0  0  0  0  0  0  0  0  0  0  0  0
   14.2517  -11.4390    1.9940 O   0  0  0  0  0  0  0  0  0  0  0  0
   13.3385  -11.7753    2.1059 H   0  0  0  0  0  0  0  0  0  0  0  0
 14 15  1  0
 14 16  1  0
  2  3  1  0
  2  9  1  0
  2 15  1  0
  3  4  1  0
  4  5  1  0
  4  6  1  0
  5 11  1  0
  6  7  1  0
  6  1  1  0
  1 17  1  0
 17 18  1  0
 17 24  1  0
 18 19  1  0
 19 20  1  0
 19 29  1  0
 29 30  1  0
 30 31  1  0
 20 21  1  0
 20 22  1  0
 21 26  1  0
 22 23  1  0
 22 24  1  0
 23 27  1  0
 24 25  1  0
 25 28  1  0
  7  8  1  0
  7  9  1  0
  8 12  1  0
  9 10  1  0
 10 13  1  0
M  END
> <minimizedAffinity>
-6.45852

> <CNNscore>
0.8013878465

> <CNNaffinity>
2.7559721470

> <CNN_VS>
2.2086026669

> <CNNaffinity_variance>
0.8175528646

$$$$



 31 32  0  0  0  0  0  0  0  0999 V2000
   10.6044  -12.3844   -0.3722 O   0  0  0  0  0  0  0  0  0  0  0  0
   14.2863  -11.8331   -2.3380 C   0  0  0  0  0  0  0  0  0  0  0  0
   13.1129  -12.1461   -3.0908 O   0  0  0  0  0  0  0  0  0  0  0  0
   11.9028  -11.9347   -2.3848 C   0  0  0  0  0  0  0  0  0  0  0  0
   10.8632  -12.2887   -3.2878 O   0  0  0  0  0  0  0  0  0  0  0  0
   11.8106  -12.7690   -1.0860 C   0  0  0  0  0  0  0  0  0  0  0  0
   13.0936  -12.5523   -0.2479 C   0  0  0  0  0  0  0  0  0  0  0  0
   13.1824  -13.4811    0.8543 O   0  0  0  0  0  0  0  0  0  0  0  0
   14.3698  -12.6940   -1.0794 C   0  0  0  0  0  0  0  0  0  0  0  0
   15.5133  -12.3321   -0.2942 O   0  0  0  0  0  0  0  0  0  0  0  0
   11.0766  -13.1919   -3.5750 H   0  0  0  0  0  0  0  0  0  0  0  0
   13.4104  -14.3572    0.4906 H   0  0  0  0  0  0  0  0  0  0  0  0
   15.2563  -11.6366    0.3357 H   0  0  0  0  0  0  0  0  0  0  0  0
   15.3912  -11.3286   -4.4581 O   0  0  0  0  0  0  0  0  0  0  0  0
   15.5133  -12.0640   -3.2390 C   0  0  0  0  0  0  0  0  0  0  0  0
   16.2648  -11.3477   -4.8854 H   0  0  0  0  0  0  0  0  0  0  0  0
    9.7995  -13.4996    0.0119 C   0  0  0  0  0  0  0  0  0  0  0  0
   10.6313  -14.4718    0.6406 O   0  0  0  0  0  0  0  0  0  0  0  0
    9.8733  -15.4782    1.2991 C   0  0  0  0  0  0  0  0  0  0  0  0
    9.0581  -16.2759    0.2704 C   0  0  0  0  0  0  0  0  0  0  0  0
    8.2374  -17.2421    0.9427 O   0  0  0  0  0  0  0  0  0  0  0  0
    8.2112  -15.3183   -0.5960 C   0  0  0  0  0  0  0  0  0  0  0  0
    7.5390  -16.0373   -1.6355 O   0  0  0  0  0  0  0  0  0  0  0  0
    9.0542  -14.1519   -1.1688 C   0  0  0  0  0  0  0  0  0  0  0  0
    8.2046  -13.2111   -1.8441 O   0  0  0  0  0  0  0  0  0  0  0  0
    7.4585  -16.7815    1.3084 H   0  0  0  0  0  0  0  0  0  0  0  0
    8.2075  -16.4067   -2.2387 H   0  0  0  0  0  0  0  0  0  0  0  0
    7.3659  -13.1310   -1.3583 H   0  0  0  0  0  0  0  0  0  0  0  0
   10.8480  -16.3649    2.0832 C   0  0  0  0  0  0  0  0  0  0  0  0
   10.1951  -17.0976    3.1107 O   0  0  0  0  0  0  0  0  0  0  0  0
    9.4502  -17.5765    2.6921 H   0  0  0  0  0  0  0  0  0  0  0  0
 14 15  1  0
 14 16  1  0
  2  3  1  0
  2  9  1  0
  2 15  1  0
  3  4  1  0
  4  5  1  0
  4  6  1  0
  5 11  1  0
  6  7  1  0
  6  1  1  0
  1 17  1  0
 17 18  1  0
 17 24  1  0
 18 19  1  0
 19 20  1  0
 19 29  1  0
 29 30  1  0
 30 31  1  0
 20 21  1  0
 20 22  1  0
 21 26  1  0
 22 23  1  0
 22 24  1  0
 23 27  1  0
 24 25  1  0
 25 28  1  0
  7  8  1  0
  7  9  1  0
  8 12  1  0
  9 10  1  0
 10 13  1  0
M  END
> <minimizedAffinity>
-5.63639

> <CNNscore>
0.7964957952

> <CNNaffinity>
2.7965176105

> <CNN_VS>
2.2274146080

> <CNNaffinity_variance>
0.4794948101

$$$$



 31 32  0  0  0  0  0  0  0  0999 V2000
   11.9871  -14.8838    0.3150 O   0  0  0  0  0  0  0  0  0  0  0  0
   11.6498  -13.5314    4.2876 C   0  0  0  0  0  0  0  0  0  0  0  0
   12.3638  -12.7536    3.3250 O   0  0  0  0  0  0  0  0  0  0  0  0
   12.0898  -13.1082    1.9809 C   0  0  0  0  0  0  0  0  0  0  0  0
   12.8755  -12.2317    1.1834 O   0  0  0  0  0  0  0  0  0  0  0  0
   12.4250  -14.5851    1.6682 C   0  0  0  0  0  0  0  0  0  0  0  0
   11.7555  -15.4955    2.7258 C   0  0  0  0  0  0  0  0  0  0  0  0
   12.2217  -16.8595    2.6377 O   0  0  0  0  0  0  0  0  0  0  0  0
   11.9994  -15.0122    4.1566 C   0  0  0  0  0  0  0  0  0  0  0  0
   11.2329  -15.7963    5.0799 O   0  0  0  0  0  0  0  0  0  0  0  0
   13.7835  -12.3395    1.5118 H   0  0  0  0  0  0  0  0  0  0  0  0
   13.1291  -16.8899    2.9948 H   0  0  0  0  0  0  0  0  0  0  0  0
   10.4045  -16.0704    4.6494 H   0  0  0  0  0  0  0  0  0  0  0  0
   10.9834  -12.1426    6.1843 O   0  0  0  0  0  0  0  0  0  0  0  0
   12.0073  -13.0089    5.6911 C   0  0  0  0  0  0  0  0  0  0  0  0
   11.1596  -12.0119    7.1319 H   0  0  0  0  0  0  0  0  0  0  0  0
   10.5661  -14.9339    0.1828 C   0  0  0  0  0  0  0  0  0  0  0  0
   10.1715  -16.2875   -0.0272 O   0  0  0  0  0  0  0  0  0  0  0  0
    8.7675  -16.4626    0.1115 C   0  0  0  0  0  0  0  0  0  0  0  0
    8.0317  -15.6728   -0.9810 C   0  0  0  0  0  0  0  0  0  0  0  0
    6.6136  -15.7901   -0.7955 O   0  0  0  0  0  0  0  0  0  0  0  0
    8.4844  -14.1965   -0.9673 C   0  0  0  0  0  0  0  0  0  0  0  0
    7.8963  -13.4766   -2.0561 O   0  0  0  0  0  0  0  0  0  0  0  0
   10.0274  -14.0605   -0.9670 C   0  0  0  0  0  0  0  0  0  0  0  0
   10.4037  -12.6836   -0.8081 O   0  0  0  0  0  0  0  0  0  0  0  0
    6.3469  -15.1841   -0.0784 H   0  0  0  0  0  0  0  0  0  0  0  0
    8.2386  -13.8430   -2.8902 H   0  0  0  0  0  0  0  0  0  0  0  0
    9.7877  -12.2524   -0.1913 H   0  0  0  0  0  0  0  0  0  0  0  0
    8.4711  -17.9655    0.0430 C   0  0  0  0  0  0  0  0  0  0  0  0
    9.2112  -18.6095   -0.9847 O   0  0  0  0  0  0  0  0  0  0  0  0
   10.1538  -18.3829   -0.8441 H   0  0  0  0  0  0  0  0  0  0  0  0
 14 15  1  0
 14 16  1  0
  2  3  1  0
  2  9  1  0
  2 15  1  0
  3  4  1  0
  4  5  1  0
  4  6  1  0
  5 11  1  0
  6  7  1  0
  6  1  1  0
  1 17  1  0
 17 18  1  0
 17 24  1  0
 18 19  1  0
 19 20  1  0
 19 29  1  0
 29 30  1  0
 30 31  1  0
 20 21  1  0
 20 22  1  0
 21 26  1  0
 22 23  1  0
 22 24  1  0
 23 27  1  0
 24 25  1  0
 25 28  1  0
  7  8  1  0
  7  9  1  0
  8 12  1  0
  9 10  1  0
 10 13  1  0
M  END
> <minimizedAffinity>
-4.96609

> <CNNscore>
0.7923826575

> <CNNaffinity>
2.6589212418

> <CNN_VS>
2.1068830490

> <CNNaffinity_variance>
0.8440110087

$$$$



 31 32  0  0  0  0  0  0  0  0999 V2000
   10.3525  -13.9268   -0.4183 O   0  0  0  0  0  0  0  0  0  0  0  0
    7.1787  -16.5991   -1.1323 C   0  0  0  0  0  0  0  0  0  0  0  0
    7.0576  -15.2267   -1.5108 O   0  0  0  0  0  0  0  0  0  0  0  0
    8.2926  -14.5348   -1.5696 C   0  0  0  0  0  0  0  0  0  0  0  0
    7.9719  -13.2072   -1.9648 O   0  0  0  0  0  0  0  0  0  0  0  0
    9.0495  -14.5394   -0.2211 C   0  0  0  0  0  0  0  0  0  0  0  0
    9.1472  -15.9919    0.3045 C   0  0  0  0  0  0  0  0  0  0  0  0
    9.6247  -16.0428    1.6664 O   0  0  0  0  0  0  0  0  0  0  0  0
    7.8065  -16.7268    0.2539 C   0  0  0  0  0  0  0  0  0  0  0  0
    7.9860  -18.1057    0.6026 O   0  0  0  0  0  0  0  0  0  0  0  0
    7.3069  -12.9078   -1.3230 H   0  0  0  0  0  0  0  0  0  0  0  0
    8.9024  -15.7416    2.2489 H   0  0  0  0  0  0  0  0  0  0  0  0
    8.8649  -18.3953    0.3024 H   0  0  0  0  0  0  0  0  0  0  0  0
    5.2779  -17.4083    0.1724 O   0  0  0  0  0  0  0  0  0  0  0  0
    5.7751  -17.2316   -1.1556 C   0  0  0  0  0  0  0  0  0  0  0  0
    4.3305  -17.6132    0.0919 H   0  0  0  0  0  0  0  0  0  0  0  0
   11.3507  -14.4321    0.4693 C   0  0  0  0  0  0  0  0  0  0  0  0
   11.4143  -13.5891    1.6171 O   0  0  0  0  0  0  0  0  0  0  0  0
   12.1742  -14.1726    2.6673 C   0  0  0  0  0  0  0  0  0  0  0  0
   13.6366  -14.3347    2.2267 C   0  0  0  0  0  0  0  0  0  0  0  0
   14.3866  -14.9911    3.2592 O   0  0  0  0  0  0  0  0  0  0  0  0
   13.7083  -15.1113    0.8938 C   0  0  0  0  0  0  0  0  0  0  0  0
   15.0551  -15.1654    0.4115 O   0  0  0  0  0  0  0  0  0  0  0  0
   12.7485  -14.5274   -0.1726 C   0  0  0  0  0  0  0  0  0  0  0  0
   12.7394  -15.3620   -1.3415 O   0  0  0  0  0  0  0  0  0  0  0  0
   14.1938  -15.9470    3.2176 H   0  0  0  0  0  0  0  0  0  0  0  0
   15.3441  -14.2610    0.1981 H   0  0  0  0  0  0  0  0  0  0  0  0
   12.8000  -16.2939   -1.0700 H   0  0  0  0  0  0  0  0  0  0  0  0
   12.0348  -13.2767    3.9039 C   0  0  0  0  0  0  0  0  0  0  0  0
   13.0631  -12.2986    3.9733 O   0  0  0  0  0  0  0  0  0  0  0  0
   13.0625  -11.8210    3.1181 H   0  0  0  0  0  0  0  0  0  0  0  0
 14 15  1  0
 14 16  1  0
  2  3  1  0
  2  9  1  0
  2 15  1  0
  3  4  1  0
  4  5  1  0
  4  6  1  0
  5 11  1  0
  6  7  1  0
  6  1  1  0
  1 17  1  0
 17 18  1  0
 17 24  1  0
 18 19  1  0
 19 20  1  0
 19 29  1  0
 29 30  1  0
 30 31  1  0
 20 21  1  0
 20 22  1  0
 21 26  1  0
 22 23  1  0
 22 24  1  0
 23 27  1  0
 24 25  1  0
 25 28  1  0
  7  8  1  0
  7  9  1  0
  8 12  1  0
  9 10  1  0
 10 13  1  0
M  END
> <minimizedAffinity>
-4.74860

> <CNNscore>
0.7893007994

> <CNNaffinity>
2.8806324005

> <CNN_VS>
2.2736854553

> <CNNaffinity_variance>
0.5662314892

$$$$



 31 32  0  0  0  0  0  0  0  0999 V2000
    9.1015  -13.5039   -1.3386 O   0  0  0  0  0  0  0  0  0  0  0  0
   13.0735  -14.0426   -0.0516 C   0  0  0  0  0  0  0  0  0  0  0  0
   12.3045  -12.9437    0.4408 O   0  0  0  0  0  0  0  0  0  0  0  0
   10.9088  -13.0826    0.2408 C   0  0  0  0  0  0  0  0  0  0  0  0
   10.3218  -11.9124    0.7955 O   0  0  0  0  0  0  0  0  0  0  0  0
   10.5270  -13.2354   -1.2499 C   0  0  0  0  0  0  0  0  0  0  0  0
   11.3851  -14.3565   -1.8843 C   0  0  0  0  0  0  0  0  0  0  0  0
   11.2544  -14.3889   -3.3222 O   0  0  0  0  0  0  0  0  0  0  0  0
   12.8725  -14.2156   -1.5556 C   0  0  0  0  0  0  0  0  0  0  0  0
   13.5941  -15.3581   -2.0341 O   0  0  0  0  0  0  0  0  0  0  0  0
   10.7776  -11.1727    0.3610 H   0  0  0  0  0  0  0  0  0  0  0  0
   11.7451  -13.6277   -3.6851 H   0  0  0  0  0  0  0  0  0  0  0  0
   13.0177  -16.1401   -1.9818 H   0  0  0  0  0  0  0  0  0  0  0  0
   14.7615  -12.4063    0.6144 O   0  0  0  0  0  0  0  0  0  0  0  0
   14.5552  -13.7786    0.2735 C   0  0  0  0  0  0  0  0  0  0  0  0
   15.6519  -12.3445    1.0010 H   0  0  0  0  0  0  0  0  0  0  0  0
    8.6738  -14.5581   -0.4753 C   0  0  0  0  0  0  0  0  0  0  0  0
    9.8187  -15.1335    0.1493 O   0  0  0  0  0  0  0  0  0  0  0  0
    9.4653  -15.9920    1.2260 C   0  0  0  0  0  0  0  0  0  0  0  0
    8.6700  -17.1945    0.6964 C   0  0  0  0  0  0  0  0  0  0  0  0
    8.2503  -18.0214    1.7915 O   0  0  0  0  0  0  0  0  0  0  0  0
    7.4664  -16.7099   -0.1410 C   0  0  0  0  0  0  0  0  0  0  0  0
    6.7866  -17.8188   -0.7389 O   0  0  0  0  0  0  0  0  0  0  0  0
    7.8805  -15.6609   -1.2029 C   0  0  0  0  0  0  0  0  0  0  0  0
    6.7166  -15.1324   -1.8578 O   0  0  0  0  0  0  0  0  0  0  0  0
    7.4749  -17.6034    2.2118 H   0  0  0  0  0  0  0  0  0  0  0  0
    7.3880  -18.2443   -1.3750 H   0  0  0  0  0  0  0  0  0  0  0  0
    5.9975  -15.0423   -1.2093 H   0  0  0  0  0  0  0  0  0  0  0  0
   10.7574  -16.4153    1.9349 C   0  0  0  0  0  0  0  0  0  0  0  0
   10.5158  -16.8686    3.2596 O   0  0  0  0  0  0  0  0  0  0  0  0
    9.8308  -17.5666    3.2032 H   0  0  0  0  0  0  0  0  0  0  0  0
 14 15  1  0
 14 16  1  0
  2  3  1  0
  2  9  1  0
  2 15  1  0
  3  4  1  0
  4  5  1  0
  4  6  1  0
  5 11  1  0
  6  7  1  0
  6  1  1  0
  1 17  1  0
 17 18  1  0
 17 24  1  0
 18 19  1  0
 19 20  1  0
 19 29  1  0
 29 30  1  0
 30 31  1  0
 20 21  1  0
 20 22  1  0
 21 26  1  0
 22 23  1  0
 22 24  1  0
 23 27  1  0
 24 25  1  0
 25 28  1  0
  7  8  1  0
  7  9  1  0
  8 12  1  0
  9 10  1  0
 10 13  1  0
M  END
> <minimizedAffinity>
-4.64510

> <CNNscore>
0.7453367710

> <CNNaffinity>
2.8550593853

> <CNN_VS>
2.1279807091

> <CNNaffinity_variance>
0.6412842274

$$$$



 31 32  0  0  0  0  0  0  0  0999 V2000
   12.3920  -14.6173   -0.4973 O   0  0  0  0  0  0  0  0  0  0  0  0
   15.1316  -11.6302    0.6412 C   0  0  0  0  0  0  0  0  0  0  0  0
   14.0760  -12.0083    1.5268 O   0  0  0  0  0  0  0  0  0  0  0  0
   13.4719  -13.2490    1.2056 C   0  0  0  0  0  0  0  0  0  0  0  0
   12.4658  -13.4536    2.1892 O   0  0  0  0  0  0  0  0  0  0  0  0
   12.8637  -13.2717   -0.2160 C   0  0  0  0  0  0  0  0  0  0  0  0
   13.9252  -12.7876   -1.2331 C   0  0  0  0  0  0  0  0  0  0  0  0
   13.3551  -12.5543   -2.5393 O   0  0  0  0  0  0  0  0  0  0  0  0
   14.6177  -11.4973   -0.7907 C   0  0  0  0  0  0  0  0  0  0  0  0
   15.6918  -11.1817   -1.6861 O   0  0  0  0  0  0  0  0  0  0  0  0
   11.9169  -12.6527    2.1574 H   0  0  0  0  0  0  0  0  0  0  0  0
   12.8316  -11.7321   -2.4955 H   0  0  0  0  0  0  0  0  0  0  0  0
   16.0768  -12.0098   -2.0216 H   0  0  0  0  0  0  0  0  0  0  0  0
   15.3380  -10.0442    2.4885 O   0  0  0  0  0  0  0  0  0  0  0  0
   15.7210  -10.2962    1.1350 C   0  0  0  0  0  0  0  0  0  0  0  0
   15.8941   -9.3117    2.8051 H   0  0  0  0  0  0  0  0  0  0  0  0
   10.9801  -14.7618   -0.3391 C   0  0  0  0  0  0  0  0  0  0  0  0
   10.6516  -16.1481   -0.3901 O   0  0  0  0  0  0  0  0  0  0  0  0
    9.3186  -16.3975    0.0366 C   0  0  0  0  0  0  0  0  0  0  0  0
    8.3273  -15.7308   -0.9287 C   0  0  0  0  0  0  0  0  0  0  0  0
    6.9855  -15.9202   -0.4566 O   0  0  0  0  0  0  0  0  0  0  0  0
    8.6653  -14.2324   -1.0882 C   0  0  0  0  0  0  0  0  0  0  0  0
    7.8243  -13.6262   -2.0754 O   0  0  0  0  0  0  0  0  0  0  0  0
   10.1643  -14.0040   -1.4046 C   0  0  0  0  0  0  0  0  0  0  0  0
   10.4633  -12.5992   -1.4012 O   0  0  0  0  0  0  0  0  0  0  0  0
    6.8213  -15.2832    0.2645 H   0  0  0  0  0  0  0  0  0  0  0  0
    8.0221  -14.0279   -2.9395 H   0  0  0  0  0  0  0  0  0  0  0  0
    9.9505  -12.1644   -0.6985 H   0  0  0  0  0  0  0  0  0  0  0  0
    9.1246  -17.9166    0.1126 C   0  0  0  0  0  0  0  0  0  0  0  0
    8.0096  -18.2729    0.9180 O   0  0  0  0  0  0  0  0  0  0  0  0
    7.2378  -17.7771    0.5745 H   0  0  0  0  0  0  0  0  0  0  0  0
 14 15  1  0
 14 16  1  0
  2  3  1  0
  2  9  1  0
  2 15  1  0
  3  4  1  0
  4  5  1  0
  4  6  1  0
  5 11  1  0
  6  7  1  0
  6  1  1  0
  1 17  1  0
 17 18  1  0
 17 24  1  0
 18 19  1  0
 19 20  1  0
 19 29  1  0
 29 30  1  0
 30 31  1  0
 20 21  1  0
 20 22  1  0
 21 26  1  0
 22 23  1  0
 22 24  1  0
 23 27  1  0
 24 25  1  0
 25 28  1  0
  7  8  1  0
  7  9  1  0
  8 12  1  0
  9 10  1  0
 10 13  1  0
M  END
> <minimizedAffinity>
-4.68816

> <CNNscore>
0.6790030003

> <CNNaffinity>
2.6814575195

> <CNN_VS>
1.8207176924

> <CNNaffinity_variance>
0.5346483588

$$$$



 31 32  0  0  0  0  0  0  0  0999 V2000
   10.9293  -13.4634    0.9848 O   0  0  0  0  0  0  0  0  0  0  0  0
    7.8428  -16.1279   -0.0632 C   0  0  0  0  0  0  0  0  0  0  0  0
    9.0169  -16.6141    0.5898 O   0  0  0  0  0  0  0  0  0  0  0  0
    9.7871  -15.6035    1.2168 C   0  0  0  0  0  0  0  0  0  0  0  0
   10.8924  -16.2734    1.8092 O   0  0  0  0  0  0  0  0  0  0  0  0
   10.2687  -14.5149    0.2297 C   0  0  0  0  0  0  0  0  0  0  0  0
    9.0602  -13.9940   -0.5852 C   0  0  0  0  0  0  0  0  0  0  0  0
    9.4722  -13.1553   -1.6863 O   0  0  0  0  0  0  0  0  0  0  0  0
    8.2053  -15.1261   -1.1574 C   0  0  0  0  0  0  0  0  0  0  0  0
    7.0223  -14.5921   -1.7660 O   0  0  0  0  0  0  0  0  0  0  0  0
   11.2979  -16.7781    1.0849 H   0  0  0  0  0  0  0  0  0  0  0  0
    9.8555  -13.7308   -2.3746 H   0  0  0  0  0  0  0  0  0  0  0  0
    6.7515  -13.7929   -1.2818 H   0  0  0  0  0  0  0  0  0  0  0  0
    5.7124  -17.3077   -0.2626 O   0  0  0  0  0  0  0  0  0  0  0  0
    7.0864  -17.3315   -0.6547 C   0  0  0  0  0  0  0  0  0  0  0  0
    5.2509  -17.9581   -0.8194 H   0  0  0  0  0  0  0  0  0  0  0  0
   12.1777  -13.0644    0.4178 C   0  0  0  0  0  0  0  0  0  0  0  0
   11.9283  -12.3832   -0.8094 O   0  0  0  0  0  0  0  0  0  0  0  0
   13.0847  -11.7124   -1.2929 C   0  0  0  0  0  0  0  0  0  0  0  0
   14.1778  -12.7356   -1.6354 C   0  0  0  0  0  0  0  0  0  0  0  0
   15.3695  -12.0540   -2.0529 O   0  0  0  0  0  0  0  0  0  0  0  0
   14.4458  -13.6543   -0.4234 C   0  0  0  0  0  0  0  0  0  0  0  0
   15.3756  -14.6872   -0.7671 O   0  0  0  0  0  0  0  0  0  0  0  0
   13.1379  -14.2425    0.1621 C   0  0  0  0  0  0  0  0  0  0  0  0
   13.4179  -14.9697    1.3685 O   0  0  0  0  0  0  0  0  0  0  0  0
   15.8286  -11.7238   -1.2573 H   0  0  0  0  0  0  0  0  0  0  0  0
   14.9670  -15.2605   -1.4391 H   0  0  0  0  0  0  0  0  0  0  0  0
   14.1150  -14.5088    1.8658 H   0  0  0  0  0  0  0  0  0  0  0  0
   12.6700  -10.8749   -2.5085 C   0  0  0  0  0  0  0  0  0  0  0  0
   11.5744  -11.4516   -3.2056 O   0  0  0  0  0  0  0  0  0  0  0  0
   10.8636  -11.6016   -2.5485 H   0  0  0  0  0  0  0  0  0  0  0  0
 14 15  1  0
 14 16  1  0
  2  3  1  0
  2  9  1  0
  2 15  1  0
  3  4  1  0
  4  5  1  0
  4  6  1  0
  5 11  1  0
  6  7  1  0
  6  1  1  0
  1 17  1  0
 17 18  1  0
 17 24  1  0
 18 19  1  0
 19 20  1  0
 19 29  1  0
 29 30  1  0
 30 31  1  0
 20 21  1  0
 20 22  1  0
 21 26  1  0
 22 23  1  0
 22 24  1  0
 23 27  1  0
 24 25  1  0
 25 28  1  0
  7  8  1  0
  7  9  1  0
  8 12  1  0
  9 10  1  0
 10 13  1  0
M  END
> <minimizedAffinity>
-5.40627

> <CNNscore>
0.6610724926

> <CNNaffinity>
2.4941322803

> <CNN_VS>
1.6488022804

> <CNNaffinity_variance>
0.8161818385

$$$$



 31 32  0  0  0  0  0  0  0  0999 V2000
   11.0168  -14.2315    0.8961 O   0  0  0  0  0  0  0  0  0  0  0  0
   13.5271  -11.7521   -1.4005 C   0  0  0  0  0  0  0  0  0  0  0  0
   12.2239  -12.0904   -1.8784 O   0  0  0  0  0  0  0  0  0  0  0  0
   11.3573  -12.5960   -0.8780 C   0  0  0  0  0  0  0  0  0  0  0  0
   10.1251  -12.8637   -1.5351 O   0  0  0  0  0  0  0  0  0  0  0  0
   11.9051  -13.8713   -0.1962 C   0  0  0  0  0  0  0  0  0  0  0  0
   13.3565  -13.6143    0.2761 C   0  0  0  0  0  0  0  0  0  0  0  0
   14.0096  -14.8301    0.7016 O   0  0  0  0  0  0  0  0  0  0  0  0
   14.2239  -12.9762   -0.8104 C   0  0  0  0  0  0  0  0  0  0  0  0
   15.5043  -12.6194   -0.2735 O   0  0  0  0  0  0  0  0  0  0  0  0
   10.3578  -13.4441   -2.2785 H   0  0  0  0  0  0  0  0  0  0  0  0
   14.2219  -15.3511   -0.0954 H   0  0  0  0  0  0  0  0  0  0  0  0
   15.3967  -12.3712    0.6610 H   0  0  0  0  0  0  0  0  0  0  0  0
   14.4140  -12.1203   -3.6473 O   0  0  0  0  0  0  0  0  0  0  0  0
   14.3380  -11.1772   -2.5764 C   0  0  0  0  0  0  0  0  0  0  0  0
   14.7510  -11.6379   -4.4219 H   0  0  0  0  0  0  0  0  0  0  0  0
   10.2296  -15.3908    0.6209 C   0  0  0  0  0  0  0  0  0  0  0  0
    9.0218  -14.9850   -0.0185 O   0  0  0  0  0  0  0  0  0  0  0  0
    8.3159  -16.0861   -0.5754 C   0  0  0  0  0  0  0  0  0  0  0  0
    7.8599  -17.0346    0.5433 C   0  0  0  0  0  0  0  0  0  0  0  0
    7.2125  -18.1823   -0.0249 O   0  0  0  0  0  0  0  0  0  0  0  0
    9.0638  -17.4402    1.4212 C   0  0  0  0  0  0  0  0  0  0  0  0
    8.6339  -18.2272    2.5372 O   0  0  0  0  0  0  0  0  0  0  0  0
    9.8901  -16.2128    1.8795 C   0  0  0  0  0  0  0  0  0  0  0  0
   11.0752  -16.6420    2.5680 O   0  0  0  0  0  0  0  0  0  0  0  0
    7.9008  -18.7898   -0.3565 H   0  0  0  0  0  0  0  0  0  0  0  0
    8.0735  -17.6738    3.1088 H   0  0  0  0  0  0  0  0  0  0  0  0
   11.4229  -17.4423    2.1386 H   0  0  0  0  0  0  0  0  0  0  0  0
    7.1374  -15.5302   -1.3836 C   0  0  0  0  0  0  0  0  0  0  0  0
    7.4617  -14.3058   -2.0275 O   0  0  0  0  0  0  0  0  0  0  0  0
    8.2778  -14.4622   -2.5462 H   0  0  0  0  0  0  0  0  0  0  0  0
 14 15  1  0
 14 16  1  0
  2  3  1  0
  2  9  1  0
  2 15  1  0
  3  4  1  0
  4  5  1  0
  4  6  1  0
  5 11  1  0
  6  7  1  0
  6  1  1  0
  1 17  1  0
 17 18  1  0
 17 24  1  0
 18 19  1  0
 19 20  1  0
 19 29  1  0
 29 30  1  0
 30 31  1  0
 20 21  1  0
 20 22  1  0
 21 26  1  0
 22 23  1  0
 22 24  1  0
 23 27  1  0
 24 25  1  0
 25 28  1  0
  7  8  1  0
  7  9  1  0
  8 12  1  0
  9 10  1  0
 10 13  1  0
M  END
> <minimizedAffinity>
-4.68828

> <CNNscore>
0.5958353281

> <CNNaffinity>
2.7917671204

> <CNN_VS>
1.6634334326

> <CNNaffinity_variance>
0.3809558451

$$$$



 31 32  0  0  0  0  0  0  0  0999 V2000
   10.0701  -15.1943    0.7138 O   0  0  0  0  0  0  0  0  0  0  0  0
   11.8922  -12.5124   -1.9715 C   0  0  0  0  0  0  0  0  0  0  0  0
   11.1787  -12.0157   -0.8377 O   0  0  0  0  0  0  0  0  0  0  0  0
   10.9468  -12.9873    0.1671 C   0  0  0  0  0  0  0  0  0  0  0  0
   10.2422  -12.3116    1.2009 O   0  0  0  0  0  0  0  0  0  0  0  0
   10.1388  -14.2020   -0.3458 C   0  0  0  0  0  0  0  0  0  0  0  0
   10.8018  -14.7494   -1.6328 C   0  0  0  0  0  0  0  0  0  0  0  0
    9.9694  -15.7253   -2.2964 O   0  0  0  0  0  0  0  0  0  0  0  0
   11.1220  -13.6468   -2.6437 C   0  0  0  0  0  0  0  0  0  0  0  0
   11.8706  -14.1856   -3.7411 O   0  0  0  0  0  0  0  0  0  0  0  0
    9.4737  -11.9118    0.7613 H   0  0  0  0  0  0  0  0  0  0  0  0
    9.2311  -15.2500   -2.7218 H   0  0  0  0  0  0  0  0  0  0  0  0
   12.4307  -14.9112   -3.4151 H   0  0  0  0  0  0  0  0  0  0  0  0
   11.1617  -11.3969   -4.0191 O   0  0  0  0  0  0  0  0  0  0  0  0
   12.1113  -11.3460   -2.9525 C   0  0  0  0  0  0  0  0  0  0  0  0
   11.2138  -10.5428   -4.4816 H   0  0  0  0  0  0  0  0  0  0  0  0
    9.1959  -16.2816    0.4090 C   0  0  0  0  0  0  0  0  0  0  0  0
    7.9915  -15.7607   -0.1481 O   0  0  0  0  0  0  0  0  0  0  0  0
    7.1900  -16.7780   -0.7342 C   0  0  0  0  0  0  0  0  0  0  0  0
    6.7201  -17.7617    0.3478 C   0  0  0  0  0  0  0  0  0  0  0  0
    5.9734  -18.8285   -0.2549 O   0  0  0  0  0  0  0  0  0  0  0  0
    7.9310  -18.2967    1.1431 C   0  0  0  0  0  0  0  0  0  0  0  0
    7.4979  -19.1211    2.2304 O   0  0  0  0  0  0  0  0  0  0  0  0
    8.8567  -17.1553    1.6324 C   0  0  0  0  0  0  0  0  0  0  0  0
   10.0390  -17.7012    2.2383 O   0  0  0  0  0  0  0  0  0  0  0  0
    6.6044  -19.4577   -0.6533 H   0  0  0  0  0  0  0  0  0  0  0  0
    7.0010  -18.5687    2.8590 H   0  0  0  0  0  0  0  0  0  0  0  0
   10.3134  -18.4944    1.7471 H   0  0  0  0  0  0  0  0  0  0  0  0
    6.0176  -16.0991   -1.4523 C   0  0  0  0  0  0  0  0  0  0  0  0
    5.5730  -16.8481   -2.5748 O   0  0  0  0  0  0  0  0  0  0  0  0
    5.3901  -17.7570   -2.2587 H   0  0  0  0  0  0  0  0  0  0  0  0
 14 15  1  0
 14 16  1  0
  2  3  1  0
  2  9  1  0
  2 15  1  0
  3  4  1  0
  4  5  1  0
  4  6  1  0
  5 11  1  0
  6  7  1  0
  6  1  1  0
  1 17  1  0
 17 18  1  0
 17 24  1  0
 18 19  1  0
 19 20  1  0
 19 29  1  0
 29 30  1  0
 30 31  1  0
 20 21  1  0
 20 22  1  0
 21 26  1  0
 22 23  1  0
 22 24  1  0
 23 27  1  0
 24 25  1  0
 25 28  1  0
  7  8  1  0
  7  9  1  0
  8 12  1  0
  9 10  1  0
 10 13  1  0
M  END
> <minimizedAffinity>
-5.65339

> <CNNscore>
0.5957581997

> <CNNaffinity>
2.8867816925

> <CNN_VS>
1.7198238373

> <CNNaffinity_variance>
0.6147815585

$$$$



 31 32  0  0  0  0  0  0  0  0999 V2000
   10.4282  -14.8552    1.6655 O   0  0  0  0  0  0  0  0  0  0  0  0
   12.8960  -13.5038   -1.4661 C   0  0  0  0  0  0  0  0  0  0  0  0
   13.4066  -14.4224   -0.4982 O   0  0  0  0  0  0  0  0  0  0  0  0
   12.4036  -15.0798    0.2564 C   0  0  0  0  0  0  0  0  0  0  0  0
   13.0965  -15.9450    1.1468 O   0  0  0  0  0  0  0  0  0  0  0  0
   11.4979  -14.0988    1.0366 C   0  0  0  0  0  0  0  0  0  0  0  0
   10.9702  -13.0120    0.0692 C   0  0  0  0  0  0  0  0  0  0  0  0
   10.3189  -11.9321    0.7730 O   0  0  0  0  0  0  0  0  0  0  0  0
   12.0782  -12.4039   -0.7926 C   0  0  0  0  0  0  0  0  0  0  0  0
   11.5140  -11.5218   -1.7717 O   0  0  0  0  0  0  0  0  0  0  0  0
   13.7242  -15.3715    1.6167 H   0  0  0  0  0  0  0  0  0  0  0  0
   11.0099  -11.3968    1.2064 H   0  0  0  0  0  0  0  0  0  0  0  0
   10.6384  -11.8571   -2.0313 H   0  0  0  0  0  0  0  0  0  0  0  0
   13.6732  -12.4375   -3.5227 O   0  0  0  0  0  0  0  0  0  0  0  0
   14.0864  -12.9038   -2.2367 C   0  0  0  0  0  0  0  0  0  0  0  0
   14.4019  -11.8960   -3.8717 H   0  0  0  0  0  0  0  0  0  0  0  0
    9.8915  -15.8757    0.8229 C   0  0  0  0  0  0  0  0  0  0  0  0
    8.6883  -15.3950    0.2283 O   0  0  0  0  0  0  0  0  0  0  0  0
    8.2444  -16.2321   -0.8314 C   0  0  0  0  0  0  0  0  0  0  0  0
    7.8759  -17.6187   -0.2830 C   0  0  0  0  0  0  0  0  0  0  0  0
    7.4987  -18.4852   -1.3629 O   0  0  0  0  0  0  0  0  0  0  0  0
    9.0551  -18.2020    0.5257 C   0  0  0  0  0  0  0  0  0  0  0  0
    8.6832  -19.4396    1.1417 O   0  0  0  0  0  0  0  0  0  0  0  0
    9.6023  -17.1940    1.5668 C   0  0  0  0  0  0  0  0  0  0  0  0
   10.7834  -17.7197    2.1926 O   0  0  0  0  0  0  0  0  0  0  0  0
    8.3116  -18.7973   -1.8039 H   0  0  0  0  0  0  0  0  0  0  0  0
    7.9850  -19.2622    1.7962 H   0  0  0  0  0  0  0  0  0  0  0  0
   11.3060  -18.2063    1.5324 H   0  0  0  0  0  0  0  0  0  0  0  0
    7.0568  -15.5410   -1.5120 C   0  0  0  0  0  0  0  0  0  0  0  0
    6.9540  -15.8862   -2.8864 O   0  0  0  0  0  0  0  0  0  0  0  0
    6.9434  -16.8645   -2.9362 H   0  0  0  0  0  0  0  0  0  0  0  0
 14 15  1  0
 14 16  1  0
  2  3  1  0
  2  9  1  0
  2 15  1  0
  3  4  1  0
  4  5  1  0
  4  6  1  0
  5 11  1  0
  6  7  1  0
  6  1  1  0
  1 17  1  0
 17 18  1  0
 17 24  1  0
 18 19  1  0
 19 20  1  0
 19 29  1  0
 29 30  1  0
 30 31  1  0
 20 21  1  0
 20 22  1  0
 21 26  1  0
 22 23  1  0
 22 24  1  0
 23 27  1  0
 24 25  1  0
 25 28  1  0
  7  8  1  0
  7  9  1  0
  8 12  1  0
  9 10  1  0
 10 13  1  0
M  END
> <minimizedAffinity>
-4.57204

> <CNNscore>
0.5492920876

> <CNNaffinity>
3.2367935181

> <CNN_VS>
1.7779450417

> <CNNaffinity_variance>
0.1718187481

$$$$



 31 32  0  0  0  0  0  0  0  0999 V2000
   10.7058  -14.1713   -2.5730 O   0  0  0  0  0  0  0  0  0  0  0  0
   13.9460  -11.7477   -1.4107 C   0  0  0  0  0  0  0  0  0  0  0  0
   13.2764  -12.5592   -0.4440 O   0  0  0  0  0  0  0  0  0  0  0  0
   12.4793  -13.5861   -1.0076 C   0  0  0  0  0  0  0  0  0  0  0  0
   11.9091  -14.2799    0.0948 O   0  0  0  0  0  0  0  0  0  0  0  0
   11.3762  -13.0444   -1.9463 C   0  0  0  0  0  0  0  0  0  0  0  0
   12.0113  -12.0804   -2.9773 C   0  0  0  0  0  0  0  0  0  0  0  0
   11.0118  -11.3554   -3.7263 O   0  0  0  0  0  0  0  0  0  0  0  0
   12.9407  -11.0539   -2.3273 C   0  0  0  0  0  0  0  0  0  0  0  0
   13.6177  -10.2926   -3.3359 O   0  0  0  0  0  0  0  0  0  0  0  0
   11.4693  -13.5936    0.6232 H   0  0  0  0  0  0  0  0  0  0  0  0
   10.6262  -10.6805   -3.1367 H   0  0  0  0  0  0  0  0  0  0  0  0
   13.7641  -10.8588   -4.1135 H   0  0  0  0  0  0  0  0  0  0  0  0
   15.8605  -11.3559    0.0561 O   0  0  0  0  0  0  0  0  0  0  0  0
   14.8044  -10.7129   -0.6604 C   0  0  0  0  0  0  0  0  0  0  0  0
   16.4767  -10.6565    0.3342 H   0  0  0  0  0  0  0  0  0  0  0  0
    9.8385  -14.8747   -1.6828 C   0  0  0  0  0  0  0  0  0  0  0  0
   10.1985  -16.2540   -1.6847 O   0  0  0  0  0  0  0  0  0  0  0  0
    9.5772  -16.9700   -0.6253 C   0  0  0  0  0  0  0  0  0  0  0  0
    8.0533  -16.9692   -0.8168 C   0  0  0  0  0  0  0  0  0  0  0  0
    7.4227  -17.6278    0.2912 O   0  0  0  0  0  0  0  0  0  0  0  0
    7.5383  -15.5229   -0.9836 C   0  0  0  0  0  0  0  0  0  0  0  0
    6.1382  -15.5154   -1.2819 O   0  0  0  0  0  0  0  0  0  0  0  0
    8.3469  -14.7355   -2.0446 C   0  0  0  0  0  0  0  0  0  0  0  0
    7.9322  -13.3606   -2.0641 O   0  0  0  0  0  0  0  0  0  0  0  0
    7.3997  -17.0072    1.0442 H   0  0  0  0  0  0  0  0  0  0  0  0
    6.0040  -15.9378   -2.1483 H   0  0  0  0  0  0  0  0  0  0  0  0
    7.7394  -13.0713   -1.1558 H   0  0  0  0  0  0  0  0  0  0  0  0
   10.1610  -18.3878   -0.6088 C   0  0  0  0  0  0  0  0  0  0  0  0
    9.2372  -19.3513   -1.0958 O   0  0  0  0  0  0  0  0  0  0  0  0
    8.9365  -19.0413   -1.9749 H   0  0  0  0  0  0  0  0  0  0  0  0
 14 15  1  0
 14 16  1  0
  2  3  1  0
  2  9  1  0
  2 15  1  0
  3  4  1  0
  4  5  1  0
  4  6  1  0
  5 11  1  0
  6  7  1  0
  6  1  1  0
  1 17  1  0
 17 18  1  0
 17 24  1  0
 18 19  1  0
 19 20  1  0
 19 29  1  0
 29 30  1  0
 30 31  1  0
 20 21  1  0
 20 22  1  0
 21 26  1  0
 22 23  1  0
 22 24  1  0
 23 27  1  0
 24 25  1  0
 25 28  1  0
  7  8  1  0
  7  9  1  0
  8 12  1  0
  9 10  1  0
 10 13  1  0
M  END
> <minimizedAffinity>
-5.97757

> <CNNscore>
0.5252188444

> <CNNaffinity>
3.0387938023

> <CNN_VS>
1.5960317850

> <CNNaffinity_variance>
0.4548052549

$$$$



 31 32  0  0  0  0  0  0  0  0999 V2000
   10.6113  -12.7351   -0.8770 O   0  0  0  0  0  0  0  0  0  0  0  0
    8.4447  -16.2781   -0.1861 C   0  0  0  0  0  0  0  0  0  0  0  0
    7.8302  -15.1856   -0.8719 O   0  0  0  0  0  0  0  0  0  0  0  0
    8.7487  -14.2277   -1.3681 C   0  0  0  0  0  0  0  0  0  0  0  0
    7.9602  -13.2374   -2.0156 O   0  0  0  0  0  0  0  0  0  0  0  0
    9.6193  -13.5970   -0.2564 C   0  0  0  0  0  0  0  0  0  0  0  0
   10.2562  -14.7229    0.5935 C   0  0  0  0  0  0  0  0  0  0  0  0
   10.8825  -14.2089    1.7890 O   0  0  0  0  0  0  0  0  0  0  0  0
    9.2401  -15.7837    1.0202 C   0  0  0  0  0  0  0  0  0  0  0  0
    9.9078  -16.8749    1.6672 O   0  0  0  0  0  0  0  0  0  0  0  0
    7.3152  -12.9532   -1.3470 H   0  0  0  0  0  0  0  0  0  0  0  0
   10.1761  -13.9577    2.4133 H   0  0  0  0  0  0  0  0  0  0  0  0
   10.7905  -16.9832    1.2727 H   0  0  0  0  0  0  0  0  0  0  0  0
    6.0865  -16.8999   -0.3361 O   0  0  0  0  0  0  0  0  0  0  0  0
    7.3390  -17.2553    0.2531 C   0  0  0  0  0  0  0  0  0  0  0  0
    5.4863  -17.6519   -0.1933 H   0  0  0  0  0  0  0  0  0  0  0  0
   11.5808  -13.4537   -1.6405 C   0  0  0  0  0  0  0  0  0  0  0  0
   12.5746  -13.9659   -0.7560 O   0  0  0  0  0  0  0  0  0  0  0  0
   13.4142  -14.9212   -1.3912 C   0  0  0  0  0  0  0  0  0  0  0  0
   14.2115  -14.2487   -2.5186 C   0  0  0  0  0  0  0  0  0  0  0  0
   15.0029  -15.2282   -3.2068 O   0  0  0  0  0  0  0  0  0  0  0  0
   13.2545  -13.5146   -3.4830 C   0  0  0  0  0  0  0  0  0  0  0  0
   13.9918  -12.7848   -4.4695 O   0  0  0  0  0  0  0  0  0  0  0  0
   12.2579  -12.5990   -2.7295 C   0  0  0  0  0  0  0  0  0  0  0  0
   11.2979  -12.0507   -3.6464 O   0  0  0  0  0  0  0  0  0  0  0  0
   14.4202  -15.7202   -3.8160 H   0  0  0  0  0  0  0  0  0  0  0  0
   14.4955  -12.0822   -4.0225 H   0  0  0  0  0  0  0  0  0  0  0  0
   11.0721  -12.7219   -4.3129 H   0  0  0  0  0  0  0  0  0  0  0  0
   14.3244  -15.5344   -0.3204 C   0  0  0  0  0  0  0  0  0  0  0  0
   14.9913  -14.5413    0.4463 O   0  0  0  0  0  0  0  0  0  0  0  0
   14.3032  -13.9349    0.7904 H   0  0  0  0  0  0  0  0  0  0  0  0
 14 15  1  0
 14 16  1  0
  2  3  1  0
  2  9  1  0
  2 15  1  0
  3  4  1  0
  4  5  1  0
  4  6  1  0
  5 11  1  0
  6  7  1  0
  6  1  1  0
  1 17  1  0
 17 18  1  0
 17 24  1  0
 18 19  1  0
 19 20  1  0
 19 29  1  0
 29 30  1  0
 30 31  1  0
 20 21  1  0
 20 22  1  0
 21 26  1  0
 22 23  1  0
 22 24  1  0
 23 27  1  0
 24 25  1  0
 25 28  1  0
  7  8  1  0
  7  9  1  0
  8 12  1  0
  9 10  1  0
 10 13  1  0
M  END
> <minimizedAffinity>
-5.61893

> <CNNscore>
0.5002772808

> <CNNaffinity>
2.6491966248

> <CNN_VS>
1.3253328800

> <CNNaffinity_variance>
0.6527762413

$$$$



 31 32  0  0  0  0  0  0  0  0999 V2000
   10.9369  -14.5000   -1.5108 O   0  0  0  0  0  0  0  0  0  0  0  0
    7.0775  -16.1178   -1.9709 C   0  0  0  0  0  0  0  0  0  0  0  0
    7.2408  -14.7799   -1.4969 O   0  0  0  0  0  0  0  0  0  0  0  0
    8.5255  -14.2352   -1.7422 C   0  0  0  0  0  0  0  0  0  0  0  0
    8.4918  -12.9157   -1.2137 O   0  0  0  0  0  0  0  0  0  0  0  0
    9.6620  -15.0587   -1.0929 C   0  0  0  0  0  0  0  0  0  0  0  0
    9.5048  -16.5466   -1.4891 C   0  0  0  0  0  0  0  0  0  0  0  0
   10.3830  -17.4041   -0.7281 O   0  0  0  0  0  0  0  0  0  0  0  0
    8.0757  -17.0578   -1.2986 C   0  0  0  0  0  0  0  0  0  0  0  0
    7.9524  -18.3859   -1.8239 O   0  0  0  0  0  0  0  0  0  0  0  0
    8.2055  -13.0217   -0.2915 H   0  0  0  0  0  0  0  0  0  0  0  0
   10.0256  -17.4716    0.1772 H   0  0  0  0  0  0  0  0  0  0  0  0
    8.5496  -18.4805   -2.5861 H   0  0  0  0  0  0  0  0  0  0  0  0
    5.5309  -17.1346   -0.3757 O   0  0  0  0  0  0  0  0  0  0  0  0
    5.6314  -16.5595   -1.6801 C   0  0  0  0  0  0  0  0  0  0  0  0
    4.5822  -17.2031   -0.1722 H   0  0  0  0  0  0  0  0  0  0  0  0
   11.8437  -14.2974   -0.4264 C   0  0  0  0  0  0  0  0  0  0  0  0
   12.2410  -15.5678    0.0840 O   0  0  0  0  0  0  0  0  0  0  0  0
   13.3478  -15.4655    0.9702 C   0  0  0  0  0  0  0  0  0  0  0  0
   12.9485  -14.6582    2.2143 C   0  0  0  0  0  0  0  0  0  0  0  0
   14.0860  -14.4922    3.0732 O   0  0  0  0  0  0  0  0  0  0  0  0
   12.3509  -13.2968    1.7966 C   0  0  0  0  0  0  0  0  0  0  0  0
   11.8652  -12.5851    2.9398 O   0  0  0  0  0  0  0  0  0  0  0  0
   11.2511  -13.4504    0.7166 C   0  0  0  0  0  0  0  0  0  0  0  0
   10.8266  -12.1586    0.2541 O   0  0  0  0  0  0  0  0  0  0  0  0
   14.6469  -13.7830    2.7057 H   0  0  0  0  0  0  0  0  0  0  0  0
   11.1234  -13.0849    3.3235 H   0  0  0  0  0  0  0  0  0  0  0  0
   11.5958  -11.5649    0.2122 H   0  0  0  0  0  0  0  0  0  0  0  0
   13.8041  -16.8868    1.3205 C   0  0  0  0  0  0  0  0  0  0  0  0
   12.8861  -17.8703    0.8634 O   0  0  0  0  0  0  0  0  0  0  0  0
   12.7447  -17.7082   -0.0923 H   0  0  0  0  0  0  0  0  0  0  0  0
 14 15  1  0
 14 16  1  0
  2  3  1  0
  2  9  1  0
  2 15  1  0
  3  4  1  0
  4  5  1  0
  4  6  1  0
  5 11  1  0
  6  7  1  0
  6  1  1  0
  1 17  1  0
 17 18  1  0
 17 24  1  0
 18 19  1  0
 19 20  1  0
 19 29  1  0
 29 30  1  0
 30 31  1  0
 20 21  1  0
 20 22  1  0
 21 26  1  0
 22 23  1  0
 22 24  1  0
 23 27  1  0
 24 25  1  0
 25 28  1  0
  7  8  1  0
  7  9  1  0
  8 12  1  0
  9 10  1  0
 10 13  1  0
M  END
> <minimizedAffinity>
-4.97061

> <CNNscore>
0.4846343398

> <CNNaffinity>
3.6969311237

> <CNN_VS>
1.7916598320

> <CNNaffinity_variance>
0.6474265456

$$$$



 31 32  0  0  0  0  0  0  0  0999 V2000
    7.8751  -14.8493   -2.1966 O   0  0  0  0  0  0  0  0  0  0  0  0
   11.8740  -13.7536   -2.9258 C   0  0  0  0  0  0  0  0  0  0  0  0
   11.4604  -15.1100   -3.1004 O   0  0  0  0  0  0  0  0  0  0  0  0
   10.0566  -15.2759   -3.1954 C   0  0  0  0  0  0  0  0  0  0  0  0
    9.8446  -16.6708   -3.3714 O   0  0  0  0  0  0  0  0  0  0  0  0
    9.3040  -14.7586   -1.9474 C   0  0  0  0  0  0  0  0  0  0  0  0
    9.7641  -13.3139   -1.6363 C   0  0  0  0  0  0  0  0  0  0  0  0
    9.2855  -12.8593   -0.3518 O   0  0  0  0  0  0  0  0  0  0  0  0
   11.2868  -13.1675   -1.6437 C   0  0  0  0  0  0  0  0  0  0  0  0
   11.6507  -11.7879   -1.5054 O   0  0  0  0  0  0  0  0  0  0  0  0
   10.3084  -17.0910   -2.6284 H   0  0  0  0  0  0  0  0  0  0  0  0
    9.8038  -13.3130    0.3391 H   0  0  0  0  0  0  0  0  0  0  0  0
   10.9716  -11.2379   -1.9332 H   0  0  0  0  0  0  0  0  0  0  0  0
   13.9069  -12.5039   -3.4510 O   0  0  0  0  0  0  0  0  0  0  0  0
   13.4129  -13.7198   -2.8858 C   0  0  0  0  0  0  0  0  0  0  0  0
   14.8493  -12.4485   -3.2163 H   0  0  0  0  0  0  0  0  0  0  0  0
    7.4254  -16.1884   -2.4059 C   0  0  0  0  0  0  0  0  0  0  0  0
    6.7701  -16.2610   -3.6699 O   0  0  0  0  0  0  0  0  0  0  0  0
    6.5435  -17.6037   -4.0781 C   0  0  0  0  0  0  0  0  0  0  0  0
    5.5761  -18.2905   -3.1026 C   0  0  0  0  0  0  0  0  0  0  0  0
    5.4060  -19.6664   -3.4730 O   0  0  0  0  0  0  0  0  0  0  0  0
    6.0942  -18.1538   -1.6542 C   0  0  0  0  0  0  0  0  0  0  0  0
    5.1436  -18.6845   -0.7246 O   0  0  0  0  0  0  0  0  0  0  0  0
    6.4707  -16.6922   -1.3060 C   0  0  0  0  0  0  0  0  0  0  0  0
    7.0806  -16.6335   -0.0069 O   0  0  0  0  0  0  0  0  0  0  0  0
    6.1853  -20.1659   -3.1633 H   0  0  0  0  0  0  0  0  0  0  0  0
    4.3373  -18.1407   -0.7619 H   0  0  0  0  0  0  0  0  0  0  0  0
    7.6410  -17.4181    0.1195 H   0  0  0  0  0  0  0  0  0  0  0  0
    6.0012  -17.5751   -5.5121 C   0  0  0  0  0  0  0  0  0  0  0  0
    5.9475  -16.2556   -6.0365 O   0  0  0  0  0  0  0  0  0  0  0  0
    6.8401  -15.8673   -5.9272 H   0  0  0  0  0  0  0  0  0  0  0  0
 14 15  1  0
 14 16  1  0
  2  3  1  0
  2  9  1  0
  2 15  1  0
  3  4  1  0
  4  5  1  0
  4  6  1  0
  5 11  1  0
  6  7  1  0
  6  1  1  0
  1 17  1  0
 17 18  1  0
 17 24  1  0
 18 19  1  0
 19 20  1  0
 19 29  1  0
 29 30  1  0
 30 31  1  0
 20 21  1  0
 20 22  1  0
 21 26  1  0
 22 23  1  0
 22 24  1  0
 23 27  1  0
 24 25  1  0
 25 28  1  0
  7  8  1  0
  7  9  1  0
  8 12  1  0
  9 10  1  0
 10 13  1  0
M  END
> <minimizedAffinity>
-4.66155

> <CNNscore>
0.4637427926

> <CNNaffinity>
3.7229111195

> <CNN_VS>
1.7264732122

> <CNNaffinity_variance>
0.0059552104

$$$$



 31 32  0  0  0  0  0  0  0  0999 V2000
    9.7740  -13.5661    0.2536 O   0  0  0  0  0  0  0  0  0  0  0  0
   13.8294  -12.4812   -0.0631 C   0  0  0  0  0  0  0  0  0  0  0  0
   12.9756  -12.4000   -1.2058 O   0  0  0  0  0  0  0  0  0  0  0  0
   11.5936  -12.4215   -0.8942 C   0  0  0  0  0  0  0  0  0  0  0  0
   10.9161  -12.3251   -2.1405 O   0  0  0  0  0  0  0  0  0  0  0  0
   11.1681  -13.6996   -0.1347 C   0  0  0  0  0  0  0  0  0  0  0  0
   12.1070  -13.9092    1.0778 C   0  0  0  0  0  0  0  0  0  0  0  0
   11.9213  -15.2053    1.6873 O   0  0  0  0  0  0  0  0  0  0  0  0
   13.5851  -13.7774    0.7064 C   0  0  0  0  0  0  0  0  0  0  0  0
   14.3968  -13.8252    1.8870 O   0  0  0  0  0  0  0  0  0  0  0  0
   11.2776  -13.0480   -2.6795 H   0  0  0  0  0  0  0  0  0  0  0  0
   12.3183  -15.8735    1.0977 H   0  0  0  0  0  0  0  0  0  0  0  0
   13.9039  -13.4272    2.6253 H   0  0  0  0  0  0  0  0  0  0  0  0
   16.1366  -11.8964    0.4894 O   0  0  0  0  0  0  0  0  0  0  0  0
   15.2895  -12.4003   -0.5453 C   0  0  0  0  0  0  0  0  0  0  0  0
   17.0527  -12.0585    0.2052 H   0  0  0  0  0  0  0  0  0  0  0  0
    8.9605  -14.6518   -0.1921 C   0  0  0  0  0  0  0  0  0  0  0  0
    9.6398  -15.8759    0.0773 O   0  0  0  0  0  0  0  0  0  0  0  0
    8.7886  -17.0042   -0.0750 C   0  0  0  0  0  0  0  0  0  0  0  0
    8.3397  -17.1267   -1.5387 C   0  0  0  0  0  0  0  0  0  0  0  0
    7.4222  -18.2214   -1.6769 O   0  0  0  0  0  0  0  0  0  0  0  0
    7.7129  -15.7987   -2.0163 C   0  0  0  0  0  0  0  0  0  0  0  0
    7.3995  -15.8600   -3.4119 O   0  0  0  0  0  0  0  0  0  0  0  0
    8.6124  -14.5802   -1.6916 C   0  0  0  0  0  0  0  0  0  0  0  0
    7.9308  -13.3593   -2.0199 O   0  0  0  0  0  0  0  0  0  0  0  0
    6.5468  -17.9299   -1.3586 H   0  0  0  0  0  0  0  0  0  0  0  0
    8.2298  -15.9472   -3.9121 H   0  0  0  0  0  0  0  0  0  0  0  0
    6.9869  -13.4517   -1.8047 H   0  0  0  0  0  0  0  0  0  0  0  0
    9.5567  -18.2420    0.4037 C   0  0  0  0  0  0  0  0  0  0  0  0
    8.6874  -19.3194    0.7236 O   0  0  0  0  0  0  0  0  0  0  0  0
    8.1155  -19.4678   -0.0577 H   0  0  0  0  0  0  0  0  0  0  0  0
 14 15  1  0
 14 16  1  0
  2  3  1  0
  2  9  1  0
  2 15  1  0
  3  4  1  0
  4  5  1  0
  4  6  1  0
  5 11  1  0
  6  7  1  0
  6  1  1  0
  1 17  1  0
 17 18  1  0
 17 24  1  0
 18 19  1  0
 19 20  1  0
 19 29  1  0
 29 30  1  0
 30 31  1  0
 20 21  1  0
 20 22  1  0
 21 26  1  0
 22 23  1  0
 22 24  1  0
 23 27  1  0
 24 25  1  0
 25 28  1  0
  7  8  1  0
  7  9  1  0
  8 12  1  0
  9 10  1  0
 10 13  1  0
M  END
> <minimizedAffinity>
-4.68202

> <CNNscore>
0.4480909705

> <CNNaffinity>
2.7370603085

> <CNN_VS>
1.2264519930

> <CNNaffinity_variance>
0.4296542108

$$$$



 31 32  0  0  0  0  0  0  0  0999 V2000
   10.1322  -15.5929   -2.8046 O   0  0  0  0  0  0  0  0  0  0  0  0
   13.1560  -12.6817   -3.1293 C   0  0  0  0  0  0  0  0  0  0  0  0
   13.5025  -14.0595   -2.9774 O   0  0  0  0  0  0  0  0  0  0  0  0
   12.4400  -14.9543   -3.2568 C   0  0  0  0  0  0  0  0  0  0  0  0
   12.9728  -16.2579   -3.0612 O   0  0  0  0  0  0  0  0  0  0  0  0
   11.2060  -14.7234   -2.3539 C   0  0  0  0  0  0  0  0  0  0  0  0
   10.8169  -13.2259   -2.3943 C   0  0  0  0  0  0  0  0  0  0  0  0
    9.8298  -12.8969   -1.3929 O   0  0  0  0  0  0  0  0  0  0  0  0
   12.0172  -12.3008   -2.1858 C   0  0  0  0  0  0  0  0  0  0  0  0
   11.6291  -10.9356   -2.3871 O   0  0  0  0  0  0  0  0  0  0  0  0
   13.3404  -16.2467   -2.1620 H   0  0  0  0  0  0  0  0  0  0  0  0
   10.2738  -12.8930   -0.5241 H   0  0  0  0  0  0  0  0  0  0  0  0
   10.9292  -10.9027   -3.0621 H   0  0  0  0  0  0  0  0  0  0  0  0
   14.3479  -10.5881   -3.5373 O   0  0  0  0  0  0  0  0  0  0  0  0
   14.4091  -11.8347   -2.8412 C   0  0  0  0  0  0  0  0  0  0  0  0
   15.0472  -10.0243   -3.1641 H   0  0  0  0  0  0  0  0  0  0  0  0
    9.3788  -16.1576   -1.7309 C   0  0  0  0  0  0  0  0  0  0  0  0
    9.6894  -17.5454   -1.6317 O   0  0  0  0  0  0  0  0  0  0  0  0
    9.2032  -18.1169   -0.4242 C   0  0  0  0  0  0  0  0  0  0  0  0
    7.6684  -18.0628   -0.4011 C   0  0  0  0  0  0  0  0  0  0  0  0
    7.1817  -18.5719    0.8492 O   0  0  0  0  0  0  0  0  0  0  0  0
    7.1825  -16.6186   -0.6522 C   0  0  0  0  0  0  0  0  0  0  0  0
    5.7551  -16.5751   -0.7521 O   0  0  0  0  0  0  0  0  0  0  0  0
    7.8562  -15.9854   -1.8950 C   0  0  0  0  0  0  0  0  0  0  0  0
    7.4882  -14.6016   -2.0073 O   0  0  0  0  0  0  0  0  0  0  0  0
    7.2872  -17.8761    1.5255 H   0  0  0  0  0  0  0  0  0  0  0  0
    5.4844  -17.0782   -1.5400 H   0  0  0  0  0  0  0  0  0  0  0  0
    7.4371  -14.2107   -1.1182 H   0  0  0  0  0  0  0  0  0  0  0  0
    9.7365  -19.5516   -0.3337 C   0  0  0  0  0  0  0  0  0  0  0  0
    9.7041  -20.0505    0.9963 O   0  0  0  0  0  0  0  0  0  0  0  0
    8.7892  -19.9310    1.3251 H   0  0  0  0  0  0  0  0  0  0  0  0
 14 15  1  0
 14 16  1  0
  2  3  1  0
  2  9  1  0
  2 15  1  0
  3  4  1  0
  4  5  1  0
  4  6  1  0
  5 11  1  0
  6  7  1  0
  6  1  1  0
  1 17  1  0
 17 18  1  0
 17 24  1  0
 18 19  1  0
 19 20  1  0
 19 29  1  0
 29 30  1  0
 30 31  1  0
 20 21  1  0
 20 22  1  0
 21 26  1  0
 22 23  1  0
 22 24  1  0
 23 27  1  0
 24 25  1  0
 25 28  1  0
  7  8  1  0
  7  9  1  0
  8 12  1  0
  9 10  1  0
 10 13  1  0
M  END
> <minimizedAffinity>
-4.89152

> <CNNscore>
0.4098665118

> <CNNaffinity>
3.2826082706

> <CNN_VS>
1.3454312086

> <CNNaffinity_variance>
0.1769107133

$$$$



 31 32  0  0  0  0  0  0  0  0999 V2000
    8.3367  -15.7200   -0.0904 O   0  0  0  0  0  0  0  0  0  0  0  0
   11.2901  -12.8000   -0.7793 C   0  0  0  0  0  0  0  0  0  0  0  0
   10.1095  -12.8274   -1.5836 O   0  0  0  0  0  0  0  0  0  0  0  0
    9.0509  -13.5863   -1.0261 C   0  0  0  0  0  0  0  0  0  0  0  0
    7.9774  -13.4891   -1.9533 O   0  0  0  0  0  0  0  0  0  0  0  0
    9.4341  -15.0644   -0.7817 C   0  0  0  0  0  0  0  0  0  0  0  0
   10.7600  -15.1230    0.0146 C   0  0  0  0  0  0  0  0  0  0  0  0
   11.2995  -16.4616    0.0681 O   0  0  0  0  0  0  0  0  0  0  0  0
   11.8385  -14.2100   -0.5713 C   0  0  0  0  0  0  0  0  0  0  0  0
   12.9848  -14.1849    0.2892 O   0  0  0  0  0  0  0  0  0  0  0  0
    8.3520  -13.7764   -2.8023 H   0  0  0  0  0  0  0  0  0  0  0  0
   11.6659  -16.6725   -0.8112 H   0  0  0  0  0  0  0  0  0  0  0  0
   12.6899  -14.2860    1.2108 H   0  0  0  0  0  0  0  0  0  0  0  0
   11.6923  -10.9848   -2.3647 O   0  0  0  0  0  0  0  0  0  0  0  0
   12.3310  -11.9081   -1.4806 C   0  0  0  0  0  0  0  0  0  0  0  0
   12.3637  -10.3272   -2.6158 H   0  0  0  0  0  0  0  0  0  0  0  0
    7.7887  -16.8179   -0.8210 C   0  0  0  0  0  0  0  0  0  0  0  0
    7.5321  -16.3974   -2.1587 O   0  0  0  0  0  0  0  0  0  0  0  0
    7.2531  -17.4939   -3.0194 C   0  0  0  0  0  0  0  0  0  0  0  0
    5.9560  -18.1880   -2.5782 C   0  0  0  0  0  0  0  0  0  0  0  0
    5.7148  -19.3384   -3.4014 O   0  0  0  0  0  0  0  0  0  0  0  0
    6.0373  -18.5682   -1.0836 C   0  0  0  0  0  0  0  0  0  0  0  0
    4.7911  -19.1074   -0.6301 O   0  0  0  0  0  0  0  0  0  0  0  0
    6.4921  -17.3772   -0.2037 C   0  0  0  0  0  0  0  0  0  0  0  0
    6.6935  -17.8101    1.1509 O   0  0  0  0  0  0  0  0  0  0  0  0
    6.2913  -20.0629   -3.0925 H   0  0  0  0  0  0  0  0  0  0  0  0
    4.1147  -18.4095   -0.6816 H   0  0  0  0  0  0  0  0  0  0  0  0
    7.0779  -18.7034    1.1477 H   0  0  0  0  0  0  0  0  0  0  0  0
    7.1675  -16.9575   -4.4533 C   0  0  0  0  0  0  0  0  0  0  0  0
    5.8319  -16.6529   -4.8307 O   0  0  0  0  0  0  0  0  0  0  0  0
    5.4703  -16.0533   -4.1457 H   0  0  0  0  0  0  0  0  0  0  0  0
 14 15  1  0
 14 16  1  0
  2  3  1  0
  2  9  1  0
  2 15  1  0
  3  4  1  0
  4  5  1  0
  4  6  1  0
  5 11  1  0
  6  7  1  0
  6  1  1  0
  1 17  1  0
 17 18  1  0
 17 24  1  0
 18 19  1  0
 19 20  1  0
 19 29  1  0
 29 30  1  0
 30 31  1  0
 20 21  1  0
 20 22  1  0
 21 26  1  0
 22 23  1  0
 22 24  1  0
 23 27  1  0
 24 25  1  0
 25 28  1  0
  7  8  1  0
  7  9  1  0
  8 12  1  0
  9 10  1  0
 10 13  1  0
M  END
> <minimizedAffinity>
-5.05523

> <CNNscore>
0.3856369555

> <CNNaffinity>
3.3267209530

> <CNN_VS>
1.2829065323

> <CNNaffinity_variance>
0.3617117703

$$$$



 31 32  0  0  0  0  0  0  0  0999 V2000
   10.7920  -14.2449   -0.8148 O   0  0  0  0  0  0  0  0  0  0  0  0
   13.1405  -14.2596   -4.3089 C   0  0  0  0  0  0  0  0  0  0  0  0
   12.2410  -13.1787   -4.0557 O   0  0  0  0  0  0  0  0  0  0  0  0
   11.8050  -13.0960   -2.7102 C   0  0  0  0  0  0  0  0  0  0  0  0
   10.9370  -11.9712   -2.6550 O   0  0  0  0  0  0  0  0  0  0  0  0
   11.0783  -14.3752   -2.2337 C   0  0  0  0  0  0  0  0  0  0  0  0
   11.9553  -15.6097   -2.5538 C   0  0  0  0  0  0  0  0  0  0  0  0
   11.2379  -16.8476   -2.3576 O   0  0  0  0  0  0  0  0  0  0  0  0
   12.4821  -15.6001   -3.9899 C   0  0  0  0  0  0  0  0  0  0  0  0
   13.4083  -16.6770   -4.1831 O   0  0  0  0  0  0  0  0  0  0  0  0
   10.2724  -12.1327   -3.3450 H   0  0  0  0  0  0  0  0  0  0  0  0
   10.6022  -16.9453   -3.0912 H   0  0  0  0  0  0  0  0  0  0  0  0
   13.8817  -16.8397   -3.3489 H   0  0  0  0  0  0  0  0  0  0  0  0
   12.5787  -14.8114   -6.6220 O   0  0  0  0  0  0  0  0  0  0  0  0
   13.5639  -14.1984   -5.7880 C   0  0  0  0  0  0  0  0  0  0  0  0
   12.7948  -14.5655   -7.5379 H   0  0  0  0  0  0  0  0  0  0  0  0
    9.5355  -14.8114   -0.4412 C   0  0  0  0  0  0  0  0  0  0  0  0
    9.7452  -16.1570   -0.0198 O   0  0  0  0  0  0  0  0  0  0  0  0
    8.6020  -16.6981    0.6292 C   0  0  0  0  0  0  0  0  0  0  0  0
    7.4300  -16.7822   -0.3599 C   0  0  0  0  0  0  0  0  0  0  0  0
    6.2565  -17.2587    0.3145 O   0  0  0  0  0  0  0  0  0  0  0  0
    7.1867  -15.4052   -1.0155 C   0  0  0  0  0  0  0  0  0  0  0  0
    6.1767  -15.4972   -2.0259 O   0  0  0  0  0  0  0  0  0  0  0  0
    8.4923  -14.7879   -1.5753 C   0  0  0  0  0  0  0  0  0  0  0  0
    8.2481  -13.4522   -2.0434 O   0  0  0  0  0  0  0  0  0  0  0  0
    5.8704  -16.5175    0.8188 H   0  0  0  0  0  0  0  0  0  0  0  0
    6.5060  -16.0684   -2.7418 H   0  0  0  0  0  0  0  0  0  0  0  0
    7.6134  -13.0158   -1.4498 H   0  0  0  0  0  0  0  0  0  0  0  0
    8.9864  -18.0708    1.1942 C   0  0  0  0  0  0  0  0  0  0  0  0
    9.2554  -18.0182    2.5883 O   0  0  0  0  0  0  0  0  0  0  0  0
    8.4779  -17.6018    3.0147 H   0  0  0  0  0  0  0  0  0  0  0  0
 14 15  1  0
 14 16  1  0
  2  3  1  0
  2  9  1  0
  2 15  1  0
  3  4  1  0
  4  5  1  0
  4  6  1  0
  5 11  1  0
  6  7  1  0
  6  1  1  0
  1 17  1  0
 17 18  1  0
 17 24  1  0
 18 19  1  0
 19 20  1  0
 19 29  1  0
 29 30  1  0
 30 31  1  0
 20 21  1  0
 20 22  1  0
 21 26  1  0
 22 23  1  0
 22 24  1  0
 23 27  1  0
 24 25  1  0
 25 28  1  0
  7  8  1  0
  7  9  1  0
  8 12  1  0
  9 10  1  0
 10 13  1  0
M  END
> <minimizedAffinity>
-4.85296

> <CNNscore>
0.3786717653

> <CNNaffinity>
2.7046873569

> <CNN_VS>
1.0241887569

> <CNNaffinity_variance>
0.5302430987

$$$$
