@<TRIPOS>MOLECULE
GDU
 43 45 0 0 0
SMALL
GASTEIGER

@<TRIPOS>ATOM
      1 P          22.1099   70.8534   -2.5112 P.3     1  UNL1        0.2189
      2 O          21.5394   69.6038   -1.9611 O.2     1  UNL1       -0.5170
      3 O          23.5398   70.5405   -3.1823 O.3     1  UNL1       -0.4371
      4 O          21.1151   71.4540   -3.6232 O.3     1  UNL1       -0.3112
      5 C          20.1123   72.1938   -2.9249 C.3     1  UNL1        0.1811
      6 C          17.9975   71.2742   -5.6834 C.3     1  UNL1        0.2383
      7 C          18.0491   70.0063   -4.7932 C.3     1  UNL1        0.1895
      8 O          16.8324   69.2627   -4.8938 O.3     1  UNL1       -0.3779
      9 C          18.2116   70.6117   -3.3746 C.3     1  UNL1        0.1713
     10 C          18.7664   72.0250   -3.6322 C.3     1  UNL1        0.1764
     11 O          18.9399   72.1673   -5.0527 O.3     1  UNL1       -0.3308
     12 O          16.9476   70.6764   -2.7112 O.3     1  UNL1       -0.3794
     13 H          16.9293   68.4904   -4.3193 H       1  UNL1        0.2106
     14 H          16.6259   69.7681   -2.6324 H       1  UNL1        0.2105
     15 N          18.4167   70.9642   -7.0512 N.ar    1  UNL1       -0.2551
     16 C          17.4928   70.6542   -7.9778 C.ar    1  UNL1        0.3323
     17 N          17.8515   70.3685   -9.2434 N.ar    1  UNL1       -0.2743
     18 C          19.1500   70.3792   -9.6011 C.ar    1  UNL1        0.2626
     19 C          20.1346   70.6984   -8.6342 C.ar    1  UNL1        0.0795
     20 C          19.7472   70.9850   -7.3732 C.ar    1  UNL1        0.0869
     21 O          16.3176   70.6409   -7.6702 O.2     1  UNL1       -0.2464
     22 O          19.4759   70.1161  -10.7452 O.2     1  UNL1       -0.2670
     23 H          17.1710   70.1511   -9.9002 H       1  UNL1        0.1734
     24 O          22.2988   71.9242   -1.3237 O.3     1  UNL1       -0.2703
     25 P          22.3809   71.0888    0.0493 P.3     1  UNL1        0.2208
     26 O          21.0919   70.4022    0.2865 O.2     1  UNL1       -0.5170
     27 O          23.5589   69.9956   -0.0575 O.3     1  UNL1       -0.4371
     28 O          22.6891   72.0905    1.2707 O.3     1  UNL1       -0.2858
     29 C          21.4590   72.2824    1.9705 C.3     1  UNL1        0.2704
     30 C          20.7869   73.5644    1.4766 C.3     1  UNL1        0.1967
     31 C          21.7330   74.7459    1.7118 C.3     1  UNL1        0.1715
     32 C          22.1491   74.7543    3.1871 C.3     1  UNL1        0.1694
     33 C          22.7202   73.3815    3.5509 C.3     1  UNL1        0.1761
     34 O          20.5014   73.4483    0.0815 O.3     1  UNL1       -0.3775
     35 O          21.0641   75.9677    1.3922 O.3     1  UNL1       -0.3794
     36 O          21.0110   75.0352    4.0030 O.3     1  UNL1       -0.3794
     37 O          21.7200   72.3804    3.3687 O.3     1  UNL1       -0.3258
     38 H          19.9104   72.6899   -0.0202 H       1  UNL1        0.2106
     39 H          20.8110   75.9132    0.4620 H       1  UNL1        0.2105
     40 H          20.6825   75.9035    3.7357 H       1  UNL1        0.2105
     41 C          23.1706   73.3898    5.0135 C.3     1  UNL1        0.1693
     42 O          22.0625   73.0637    5.8541 O.3     1  UNL1       -0.3794
     43 H          22.3879   73.0790    6.7647 H       1  UNL1        0.2105
@<TRIPOS>BOND
     1    15    16   ar
     2    15    20   ar
     3    15     6    1
     4    16    17   ar
     5    16    21    2
     6    17    18   ar
     7    17    23    1
     8    18    19   ar
     9    18    22    2
    10    19    20   ar
    11     6     7    1
    12     6    11    1
    13     7     8    1
    14     7     9    1
    15     8    13    1
    16     9    10    1
    17     9    12    1
    18    10    11    1
    19    10     5    1
    20    12    14    1
    21     5     4    1
    22     4     1    1
    23     1     2    2
    24     1     3    1
    25     1    24    1
    26    24    25    1
    27    25    26    2
    28    25    27    1
    29    25    28    1
    30    28    29    1
    31    29    30    1
    32    29    37    1
    33    30    31    1
    34    30    34    1
    35    31    32    1
    36    31    35    1
    37    32    33    1
    38    32    36    1
    39    33    41    1
    40    33    37    1
    41    41    42    1
    42    34    38    1
    43    35    39    1
    44    36    40    1
    45    42    43    1
@<TRIPOS>MOLECULE
GDU
 43 45 0 0 0
SMALL
GASTEIGER

@<TRIPOS>ATOM
      1 P          22.0630   70.9121   -2.5867 P.3     1  UNL1        0.2189
      2 O          21.4523   69.5895   -2.3271 O.2     1  UNL1       -0.5170
      3 O          23.5167   70.7111   -3.2495 O.3     1  UNL1       -0.4371
      4 O          21.1260   71.7483   -3.5916 O.3     1  UNL1       -0.3112
      5 C          20.1310   72.3897   -2.7923 C.3     1  UNL1        0.1811
      6 C          17.8988   71.3829   -5.4250 C.3     1  UNL1        0.2383
      7 C          18.0056   70.1377   -4.5080 C.3     1  UNL1        0.1895
      8 O          16.7935   69.3805   -4.5332 O.3     1  UNL1       -0.3779
      9 C          18.2281   70.7792   -3.1136 C.3     1  UNL1        0.1713
     10 C          18.7552   72.1910   -3.4310 C.3     1  UNL1        0.1764
     11 O          18.8603   72.3000   -4.8611 O.3     1  UNL1       -0.3308
     12 O          16.9961   70.8482   -2.3931 O.3     1  UNL1       -0.3794
     13 H          16.9254   68.6234   -3.9455 H       1  UNL1        0.2106
     14 H          16.6880   69.9391   -2.2774 H       1  UNL1        0.2105
     15 N          18.2566   71.0434   -6.8033 N.ar    1  UNL1       -0.2551
     16 C          17.2943   70.6959   -7.6758 C.ar    1  UNL1        0.3323
     17 N          17.5961   70.3826   -8.9496 N.ar    1  UNL1       -0.2743
     18 C          18.8755   70.4029   -9.3700 C.ar    1  UNL1        0.2626
     19 C          19.9004   70.7614   -8.4604 C.ar    1  UNL1        0.0795
     20 C          19.5695   71.0752   -7.1898 C.ar    1  UNL1        0.0869
     21 O          16.1355   70.6736   -7.3113 O.2     1  UNL1       -0.2464
     22 O          19.1502   70.1148  -10.5215 O.2     1  UNL1       -0.2670
     23 H          16.8883   70.1383   -9.5670 H       1  UNL1        0.1734
     24 O          22.2138   71.7142   -1.1988 O.3     1  UNL1       -0.2703
     25 P          21.9364   70.6578   -0.0168 P.3     1  UNL1        0.2208
     26 O          20.9755   69.6348   -0.4852 O.2     1  UNL1       -0.5170
     27 O          23.3188   69.9439    0.3998 O.3     1  UNL1       -0.4371
     28 O          21.3249   71.4259    1.2584 O.3     1  UNL1       -0.2858
     29 C          22.3496   72.2887    1.7537 C.3     1  UNL1        0.2704
     30 C          22.1566   72.4981    3.2564 C.3     1  UNL1        0.1967
     31 C          20.7722   73.1062    3.5013 C.3     1  UNL1        0.1715
     32 C          20.6330   74.3690    2.6437 C.3     1  UNL1        0.1694
     33 C          20.9399   74.0170    1.1860 C.3     1  UNL1        0.1761
     34 O          22.2556   71.2426    3.9312 O.3     1  UNL1       -0.3775
     35 O          20.6337   73.4438    4.8832 O.3     1  UNL1       -0.3794
     36 O          21.5503   75.3625    3.1036 O.3     1  UNL1       -0.3794
     37 O          22.2810   73.5420    1.0776 O.3     1  UNL1       -0.3258
     38 H          23.1378   70.8941    3.7438 H       1  UNL1        0.2106
     39 H          20.7399   72.6247    5.3833 H       1  UNL1        0.2105
     40 H          21.3236   75.5480    4.0242 H       1  UNL1        0.2105
     41 C          20.7703   75.2641    0.3154 C.3     1  UNL1        0.1693
     42 O          19.9075   76.1915    0.9760 O.3     1  UNL1       -0.3794
     43 H          19.8276   76.9614    0.3962 H       1  UNL1        0.2105
@<TRIPOS>BOND
     1    15    16   ar
     2    15    20   ar
     3    15     6    1
     4    16    17   ar
     5    16    21    2
     6    17    18   ar
     7    17    23    1
     8    18    19   ar
     9    18    22    2
    10    19    20   ar
    11     6     7    1
    12     6    11    1
    13     7     8    1
    14     7     9    1
    15     8    13    1
    16     9    10    1
    17     9    12    1
    18    10    11    1
    19    10     5    1
    20    12    14    1
    21     5     4    1
    22     4     1    1
    23     1     2    2
    24     1     3    1
    25     1    24    1
    26    24    25    1
    27    25    26    2
    28    25    27    1
    29    25    28    1
    30    28    29    1
    31    29    30    1
    32    29    37    1
    33    30    31    1
    34    30    34    1
    35    31    32    1
    36    31    35    1
    37    32    33    1
    38    32    36    1
    39    33    41    1
    40    33    37    1
    41    41    42    1
    42    34    38    1
    43    35    39    1
    44    36    40    1
    45    42    43    1
@<TRIPOS>MOLECULE
GDU
 43 45 0 0 0
SMALL
GASTEIGER

@<TRIPOS>ATOM
      1 P          21.7678   70.7748   -1.3503 P.3     1  UNL1        0.2189
      2 O          21.6644   69.5750   -0.4905 O.2     1  UNL1       -0.5170
      3 O          22.3100   70.3473   -2.8050 O.3     1  UNL1       -0.4371
      4 O          20.3187   71.4571   -1.4969 O.3     1  UNL1       -0.3112
      5 C          19.6567   70.7947   -2.5755 C.3     1  UNL1        0.1811
      6 C          18.2532   72.1372   -5.6013 C.3     1  UNL1        0.2383
      7 C          17.1267   71.2523   -5.0090 C.3     1  UNL1        0.1895
      8 O          15.8388   71.7705   -5.3498 O.3     1  UNL1       -0.3779
      9 C          17.3860   71.3733   -3.4848 C.3     1  UNL1        0.1713
     10 C          18.8583   71.8146   -3.3895 C.3     1  UNL1        0.1764
     11 O          19.3752   71.8823   -4.7298 O.3     1  UNL1       -0.3308
     12 O          16.5238   72.3560   -2.9078 O.3     1  UNL1       -0.3794
     13 H          15.1857   71.1771   -4.9533 H       1  UNL1        0.2106
     14 H          15.6173   72.0522   -3.0512 H       1  UNL1        0.2105
     15 N          18.5632   71.7316   -6.9732 N.ar    1  UNL1       -0.2551
     16 C          17.8967   72.2882   -8.0000 C.ar    1  UNL1        0.3323
     17 N          18.1649   71.9356   -9.2710 N.ar    1  UNL1       -0.2743
     18 C          19.1040   71.0068   -9.5352 C.ar    1  UNL1        0.2626
     19 C          19.8100   70.4077   -8.4634 C.ar    1  UNL1        0.0795
     20 C          19.5242   70.7829   -7.1985 C.ar    1  UNL1        0.0869
     21 O          17.0472   73.1278   -7.7772 O.2     1  UNL1       -0.2464
     22 O          19.3441   70.6834  -10.6851 O.2     1  UNL1       -0.2670
     23 H          17.6771   72.3507  -10.0000 H       1  UNL1        0.1734
     24 O          22.7917   71.8242   -0.6847 O.3     1  UNL1       -0.2703
     25 P          21.9969   72.5608    0.5052 P.3     1  UNL1        0.2208
     26 O          20.9350   73.4172   -0.0675 O.2     1  UNL1       -0.5170
     27 O          21.3323   71.4562    1.4707 O.3     1  UNL1       -0.4371
     28 O          23.0198   73.4680    1.3541 O.3     1  UNL1       -0.2858
     29 C          22.2736   74.5791    1.8525 C.3     1  UNL1        0.2704
     30 C          23.1057   75.8549    1.7130 C.3     1  UNL1        0.1967
     31 C          24.4120   75.6862    2.4950 C.3     1  UNL1        0.1715
     32 C          24.0728   75.2828    3.9344 C.3     1  UNL1        0.1694
     33 C          23.1684   74.0482    3.9053 C.3     1  UNL1        0.1761
     34 O          23.3982   76.0872    0.3340 O.3     1  UNL1       -0.3775
     35 O          25.1331   76.9201    2.4969 O.3     1  UNL1       -0.3794
     36 O          23.3984   76.3599    4.5862 O.3     1  UNL1       -0.3794
     37 O          21.9535   74.3575    3.2240 O.3     1  UNL1       -0.3258
     38 H          22.5492   76.1799   -0.1195 H       1  UNL1        0.2106
     39 H          25.3138   77.1401    1.5742 H       1  UNL1        0.2105
     40 H          24.0013   77.1147    4.5759 H       1  UNL1        0.2105
     41 C          22.8516   73.6163    5.3389 C.3     1  UNL1        0.1693
     42 O          22.0096   72.4625    5.3127 O.3     1  UNL1       -0.3794
     43 H          21.8346   72.2228    6.2332 H       1  UNL1        0.2105
@<TRIPOS>BOND
     1    15    16   ar
     2    15    20   ar
     3    15     6    1
     4    16    17   ar
     5    16    21    2
     6    17    18   ar
     7    17    23    1
     8    18    19   ar
     9    18    22    2
    10    19    20   ar
    11     6     7    1
    12     6    11    1
    13     7     8    1
    14     7     9    1
    15     8    13    1
    16     9    10    1
    17     9    12    1
    18    10    11    1
    19    10     5    1
    20    12    14    1
    21     5     4    1
    22     4     1    1
    23     1     2    2
    24     1     3    1
    25     1    24    1
    26    24    25    1
    27    25    26    2
    28    25    27    1
    29    25    28    1
    30    28    29    1
    31    29    30    1
    32    29    37    1
    33    30    31    1
    34    30    34    1
    35    31    32    1
    36    31    35    1
    37    32    33    1
    38    32    36    1
    39    33    41    1
    40    33    37    1
    41    41    42    1
    42    34    38    1
    43    35    39    1
    44    36    40    1
    45    42    43    1
@<TRIPOS>MOLECULE
GDU
 43 45 0 0 0
SMALL
GASTEIGER

@<TRIPOS>ATOM
      1 P          21.6792   70.3141   -0.4263 P.3     1  UNL1        0.2189
      2 O          21.8450   69.1891    0.5205 O.2     1  UNL1       -0.5170
      3 O          23.1269   70.8184   -0.9191 O.3     1  UNL1       -0.4371
      4 O          20.8203   69.8259   -1.6954 O.3     1  UNL1       -0.3112
      5 C          20.9221   70.8525   -2.6835 C.3     1  UNL1        0.1811
      6 C          18.3777   71.0269   -5.2179 C.3     1  UNL1        0.2383
      7 C          18.1253   69.6735   -4.5056 C.3     1  UNL1        0.1895
      8 O          16.7364   69.3362   -4.5290 O.3     1  UNL1       -0.3779
      9 C          18.5970   69.9746   -3.0592 C.3     1  UNL1        0.1713
     10 C          19.5282   71.1913   -3.2150 C.3     1  UNL1        0.1764
     11 O          19.6020   71.5004   -4.6175 O.3     1  UNL1       -0.3308
     12 O          17.4809   70.2938   -2.2259 O.3     1  UNL1       -0.3794
     13 H          16.6477   68.4880   -4.0724 H       1  UNL1        0.2106
     14 H          16.9073   69.5156   -2.2159 H       1  UNL1        0.2105
     15 N          18.5521   70.8298   -6.6579 N.ar    1  UNL1       -0.2551
     16 C          17.4726   70.7552   -7.4563 C.ar    1  UNL1        0.3323
     17 N          17.6054   70.5778   -8.7840 N.ar    1  UNL1       -0.2743
     18 C          18.8287   70.4617   -9.3355 C.ar    1  UNL1        0.2626
     19 C          19.9746   70.5326   -8.5060 C.ar    1  UNL1        0.0795
     20 C          19.8131   70.7152   -7.1783 C.ar    1  UNL1        0.0869
     21 O          16.3626   70.8587   -6.9733 O.2     1  UNL1       -0.2464
     22 O          18.9497   70.2964  -10.5365 O.2     1  UNL1       -0.2670
     23 H          16.8154   70.5306   -9.3457 H       1  UNL1        0.1734
     24 O          20.9126   71.5243    0.3088 O.3     1  UNL1       -0.2703
     25 P          21.8807   72.0442    1.4846 P.3     1  UNL1        0.2208
     26 O          22.7710   70.9430    1.9134 O.2     1  UNL1       -0.5170
     27 O          22.7702   73.2729    0.9431 O.3     1  UNL1       -0.4371
     28 O          20.9932   72.5355    2.7340 O.3     1  UNL1       -0.2858
     29 C          21.2928   73.9169    2.9381 C.3     1  UNL1        0.2704
     30 C          22.2042   74.0655    4.1574 C.3     1  UNL1        0.1967
     31 C          21.4972   73.4787    5.3829 C.3     1  UNL1        0.1715
     32 C          20.1188   74.1361    5.5150 C.3     1  UNL1        0.1694
     33 C          19.3642   73.9802    4.1923 C.3     1  UNL1        0.1761
     34 O          23.4283   73.3652    3.9281 O.3     1  UNL1       -0.3775
     35 O          22.2712   73.7411    6.5553 O.3     1  UNL1       -0.3794
     36 O          20.2778   75.5224    5.8194 O.3     1  UNL1       -0.3794
     37 O          20.0811   74.6381    3.1487 O.3     1  UNL1       -0.3258
     38 H          23.8345   73.7622    3.1456 H       1  UNL1        0.2106
     39 H          23.1304   73.3208    6.4233 H       1  UNL1        0.2105
     40 H          20.7614   75.5720    6.6542 H       1  UNL1        0.2105
     41 C          17.9728   74.6034    4.3244 C.3     1  UNL1        0.1693
     42 O          17.7479   75.4998    3.2350 O.3     1  UNL1       -0.3794
     43 H          16.8624   75.8696    3.3550 H       1  UNL1        0.2105
@<TRIPOS>BOND
     1    15    16   ar
     2    15    20   ar
     3    15     6    1
     4    16    17   ar
     5    16    21    2
     6    17    18   ar
     7    17    23    1
     8    18    19   ar
     9    18    22    2
    10    19    20   ar
    11     6     7    1
    12     6    11    1
    13     7     8    1
    14     7     9    1
    15     8    13    1
    16     9    10    1
    17     9    12    1
    18    10    11    1
    19    10     5    1
    20    12    14    1
    21     5     4    1
    22     4     1    1
    23     1     2    2
    24     1     3    1
    25     1    24    1
    26    24    25    1
    27    25    26    2
    28    25    27    1
    29    25    28    1
    30    28    29    1
    31    29    30    1
    32    29    37    1
    33    30    31    1
    34    30    34    1
    35    31    32    1
    36    31    35    1
    37    32    33    1
    38    32    36    1
    39    33    41    1
    40    33    37    1
    41    41    42    1
    42    34    38    1
    43    35    39    1
    44    36    40    1
    45    42    43    1
@<TRIPOS>MOLECULE
GDU
 43 45 0 0 0
SMALL
GASTEIGER

@<TRIPOS>ATOM
      1 P          20.4524   70.1524   -1.9746 P.3     1  UNL1        0.2189
      2 O          19.1618   69.4553   -2.1696 O.2     1  UNL1       -0.5170
      3 O          21.6137   69.3611   -2.7608 O.3     1  UNL1       -0.4371
      4 O          20.3442   71.6523   -2.5450 O.3     1  UNL1       -0.3112
      5 C          18.9847   71.8489   -2.9370 C.3     1  UNL1        0.1811
      6 C          18.7355   73.0641   -6.3117 C.3     1  UNL1        0.2383
      7 C          17.2712   73.0200   -5.8049 C.3     1  UNL1        0.1895
      8 O          16.4853   74.0390   -6.4272 O.3     1  UNL1       -0.3779
      9 C          17.4432   73.3022   -4.2896 C.3     1  UNL1        0.1713
     10 C          18.9131   72.9407   -4.0061 C.3     1  UNL1        0.1764
     11 O          19.4829   72.4587   -5.2354 O.3     1  UNL1       -0.3308
     12 O          17.1966   74.6810   -4.0071 O.3     1  UNL1       -0.3794
     13 H          15.5897   73.9572   -6.0707 H       1  UNL1        0.2106
     14 H          16.2807   74.8594   -4.2600 H       1  UNL1        0.2105
     15 N          18.8813   72.2855   -7.5427 N.ar    1  UNL1       -0.2551
     16 C          19.5528   72.8056   -8.5851 C.ar    1  UNL1        0.3323
     17 N          19.7042   72.1092   -9.7270 N.ar    1  UNL1       -0.2743
     18 C          19.1738   70.8770   -9.8474 C.ar    1  UNL1        0.2626
     19 C          18.4589   70.3187   -8.7596 C.ar    1  UNL1        0.0795
     20 C          18.3256   71.0370   -7.6244 C.ar    1  UNL1        0.0869
     21 O          20.0373   73.9158   -8.4912 O.2     1  UNL1       -0.2464
     22 O          19.3062   70.2478  -10.8824 O.2     1  UNL1       -0.2670
     23 H          20.1957   72.4984  -10.4679 H       1  UNL1        0.1734
     24 O          20.8046   70.1982   -0.4042 O.3     1  UNL1       -0.2703
     25 P          22.3619   70.5865   -0.2863 P.3     1  UNL1        0.2208
     26 O          23.0916   69.4960    0.3972 O.2     1  UNL1       -0.5170
     27 O          22.9746   70.7999   -1.7605 O.3     1  UNL1       -0.4371
     28 O          22.5142   71.9476    0.5588 O.3     1  UNL1       -0.2858
     29 C          21.2385   72.2201    1.1401 C.3     1  UNL1        0.2704
     30 C          20.7803   73.6203    0.7291 C.3     1  UNL1        0.1967
     31 C          21.8189   74.6430    1.2001 C.3     1  UNL1        0.1715
     32 C          22.0524   74.4479    2.7025 C.3     1  UNL1        0.1694
     33 C          22.4163   72.9842    2.9637 C.3     1  UNL1        0.1761
     34 O          20.6538   73.6844   -0.6926 O.3     1  UNL1       -0.3775
     35 O          21.3360   75.9655    0.9546 O.3     1  UNL1       -0.3794
     36 O          20.8634   74.7848    3.4186 O.3     1  UNL1       -0.3794
     37 O          21.3385   72.1409    2.5601 O.3     1  UNL1       -0.3258
     38 H          19.9972   73.0208   -0.9444 H       1  UNL1        0.2106
     39 H          21.1923   76.0388    0.0026 H       1  UNL1        0.2105
     40 H          20.6699   75.7103    3.2202 H       1  UNL1        0.2105
     41 C          22.6852   72.7860    4.4571 C.3     1  UNL1        0.1693
     42 O          21.4491   72.5607    5.1370 O.3     1  UNL1       -0.3794
     43 H          21.6622   72.4402    6.0726 H       1  UNL1        0.2105
@<TRIPOS>BOND
     1    15    16   ar
     2    15    20   ar
     3    15     6    1
     4    16    17   ar
     5    16    21    2
     6    17    18   ar
     7    17    23    1
     8    18    19   ar
     9    18    22    2
    10    19    20   ar
    11     6     7    1
    12     6    11    1
    13     7     8    1
    14     7     9    1
    15     8    13    1
    16     9    10    1
    17     9    12    1
    18    10    11    1
    19    10     5    1
    20    12    14    1
    21     5     4    1
    22     4     1    1
    23     1     2    2
    24     1     3    1
    25     1    24    1
    26    24    25    1
    27    25    26    2
    28    25    27    1
    29    25    28    1
    30    28    29    1
    31    29    30    1
    32    29    37    1
    33    30    31    1
    34    30    34    1
    35    31    32    1
    36    31    35    1
    37    32    33    1
    38    32    36    1
    39    33    41    1
    40    33    37    1
    41    41    42    1
    42    34    38    1
    43    35    39    1
    44    36    40    1
    45    42    43    1
@<TRIPOS>MOLECULE
GDU
 43 45 0 0 0
SMALL
GASTEIGER

@<TRIPOS>ATOM
      1 P          22.5300   72.8233   -4.3756 P.3     1  UNL1        0.2189
      2 O          23.9031   72.5663   -3.8877 O.2     1  UNL1       -0.5170
      3 O          22.5161   72.7824   -5.9853 O.3     1  UNL1       -0.4371
      4 O          21.5363   71.6964   -3.8016 O.3     1  UNL1       -0.3112
      5 C          20.5949   72.3644   -2.9602 C.3     1  UNL1        0.1811
      6 C          18.1836   71.2880   -5.4003 C.3     1  UNL1        0.2383
      7 C          18.4178   70.0418   -4.5087 C.3     1  UNL1        0.1895
      8 O          17.2384   69.2374   -4.4367 O.3     1  UNL1       -0.3779
      9 C          18.7353   70.6822   -3.1323 C.3     1  UNL1        0.1713
     10 C          19.1777   72.1157   -3.4797 C.3     1  UNL1        0.1764
     11 O          19.1540   72.2386   -4.9123 O.3     1  UNL1       -0.3308
     12 O          17.5687   70.6974   -2.3073 O.3     1  UNL1       -0.3794
     13 H          17.4501   68.4822   -3.8704 H       1  UNL1        0.2106
     14 H          17.3073   69.7761   -2.1747 H       1  UNL1        0.2105
     15 N          18.4335   70.9722   -6.8077 N.ar    1  UNL1       -0.2551
     16 C          17.4056   70.6439   -7.6102 C.ar    1  UNL1        0.3323
     17 N          17.6077   70.3526   -8.9087 N.ar    1  UNL1       -0.2743
     18 C          18.8514   70.3761   -9.4252 C.ar    1  UNL1        0.2626
     19 C          19.9445   70.7146   -8.5904 C.ar    1  UNL1        0.0795
     20 C          19.7132   71.0065   -7.2928 C.ar    1  UNL1        0.0869
     21 O          16.2780   70.6190   -7.1586 O.2     1  UNL1       -0.2464
     22 O          19.0359   70.1079  -10.5994 O.2     1  UNL1       -0.2670
     23 H          16.8537   70.1219   -9.4744 H       1  UNL1        0.1734
     24 O          22.0456   74.2742   -3.8728 O.3     1  UNL1       -0.2703
     25 P          23.1451   75.3346   -4.3794 P.3     1  UNL1        0.2208
     26 O          23.3249   75.1980   -5.8416 O.2     1  UNL1       -0.5170
     27 O          22.6475   76.8279   -4.0376 O.3     1  UNL1       -0.4371
     28 O          24.5451   75.0537   -3.6370 O.3     1  UNL1       -0.2858
     29 C          25.2372   76.3013   -3.5705 C.3     1  UNL1        0.2704
     30 C          26.5452   76.2004   -4.3568 C.3     1  UNL1        0.1967
     31 C          27.3989   75.0760   -3.7623 C.3     1  UNL1        0.1715
     32 C          27.5594   75.3254   -2.2584 C.3     1  UNL1        0.1694
     33 C          26.1732   75.4908   -1.6306 C.3     1  UNL1        0.1761
     34 O          26.2592   75.9130   -5.7268 O.3     1  UNL1       -0.3775
     35 O          28.6831   75.0653   -4.3894 O.3     1  UNL1       -0.3794
     36 O          28.3281   76.5110   -2.0500 O.3     1  UNL1       -0.3794
     37 O          25.5144   76.6170   -2.2082 O.3     1  UNL1       -0.3258
     38 H          25.7157   76.6413   -6.0570 H       1  UNL1        0.2106
     39 H          28.5331   74.9181   -5.3318 H       1  UNL1        0.2105
     40 H          29.1877   76.3639   -2.4657 H       1  UNL1        0.2105
     41 C          26.3206   75.7062   -0.1227 C.3     1  UNL1        0.1693
     42 O          26.4806   77.1004    0.1451 O.3     1  UNL1       -0.3794
     43 H          26.5691   77.1930    1.1036 H       1  UNL1        0.2105
@<TRIPOS>BOND
     1    15    16   ar
     2    15    20   ar
     3    15     6    1
     4    16    17   ar
     5    16    21    2
     6    17    18   ar
     7    17    23    1
     8    18    19   ar
     9    18    22    2
    10    19    20   ar
    11     6     7    1
    12     6    11    1
    13     7     8    1
    14     7     9    1
    15     8    13    1
    16     9    10    1
    17     9    12    1
    18    10    11    1
    19    10     5    1
    20    12    14    1
    21     5     4    1
    22     4     1    1
    23     1     2    2
    24     1     3    1
    25     1    24    1
    26    24    25    1
    27    25    26    2
    28    25    27    1
    29    25    28    1
    30    28    29    1
    31    29    30    1
    32    29    37    1
    33    30    31    1
    34    30    34    1
    35    31    32    1
    36    31    35    1
    37    32    33    1
    38    32    36    1
    39    33    41    1
    40    33    37    1
    41    41    42    1
    42    34    38    1
    43    35    39    1
    44    36    40    1
    45    42    43    1
@<TRIPOS>MOLECULE
GDU
 43 45 0 0 0
SMALL
GASTEIGER

@<TRIPOS>ATOM
      1 P          22.0954   71.6215   -3.2792 P.3     1  UNL1        0.2189
      2 O          23.3767   72.3616   -3.2786 O.2     1  UNL1       -0.5170
      3 O          22.3740   70.0660   -2.9699 O.3     1  UNL1       -0.4371
      4 O          21.1245   72.2278   -2.1492 O.3     1  UNL1       -0.3112
      5 C          21.8738   72.2595   -0.9335 C.3     1  UNL1        0.1811
      6 C          21.9320   74.7211    1.6866 C.3     1  UNL1        0.2383
      7 C          23.4244   74.4882    1.3383 C.3     1  UNL1        0.1895
      8 O          24.1898   75.6759    1.5543 O.3     1  UNL1       -0.3779
      9 C          23.3554   74.1417   -0.1718 C.3     1  UNL1        0.1713
     10 C          21.8995   73.6875   -0.3854 C.3     1  UNL1        0.1764
     11 O          21.2425   73.7319    0.8931 O.3     1  UNL1       -0.3308
     12 O          23.6478   75.2951   -0.9630 O.3     1  UNL1       -0.3794
     13 H          25.1045   75.4646    1.3205 H       1  UNL1        0.2106
     14 H          24.5492   75.5655   -0.7414 H       1  UNL1        0.2105
     15 N          21.6919   74.4968    3.1131 N.ar    1  UNL1       -0.2551
     16 C          21.6939   73.2436    3.6007 C.ar    1  UNL1        0.3323
     17 N          21.4793   73.0103    4.9089 N.ar    1  UNL1       -0.2743
     18 C          21.2482   74.0340    5.7532 C.ar    1  UNL1        0.2626
     19 C          21.2374   75.3590    5.2526 C.ar    1  UNL1        0.0795
     20 C          21.4597   75.5651    3.9371 C.ar    1  UNL1        0.0869
     21 O          21.9014   72.3101    2.8514 O.2     1  UNL1       -0.2464
     22 O          21.0491   73.8235    6.9367 O.2     1  UNL1       -0.2670
     23 H          21.4885   72.0998    5.2444 H       1  UNL1        0.1734
     24 O          21.3955   71.7633   -4.7223 O.3     1  UNL1       -0.2703
     25 P          19.9320   71.1056   -4.5978 P.3     1  UNL1        0.2208
     26 O          19.9809   69.9694   -3.6513 O.2     1  UNL1       -0.5170
     27 O          18.8920   72.2099   -4.0565 O.3     1  UNL1       -0.4371
     28 O          19.4532   70.5819   -6.0422 O.3     1  UNL1       -0.2858
     29 C          18.7201   71.6475   -6.6479 C.3     1  UNL1        0.2704
     30 C          17.9059   71.1022   -7.8223 C.3     1  UNL1        0.1967
     31 C          18.8592   70.4583   -8.8337 C.3     1  UNL1        0.1715
     32 C          19.9398   71.4792   -9.2074 C.3     1  UNL1        0.1694
     33 C          20.6016   71.9947   -7.9270 C.3     1  UNL1        0.1761
     34 O          16.9774   70.1253   -7.3483 O.3     1  UNL1       -0.3775
     35 O          18.1318   70.0757  -10.0029 O.3     1  UNL1       -0.3794
     36 O          19.3444   72.5677   -9.9149 O.3     1  UNL1       -0.3794
     37 O          19.6286   72.6443   -7.1102 O.3     1  UNL1       -0.3258
     38 H          16.4036   70.5719   -6.7109 H       1  UNL1        0.2106
     39 H          17.4581   69.4448   -9.7194 H       1  UNL1        0.2105
     40 H          18.9363   72.1964  -10.7079 H       1  UNL1        0.2105
     41 C          21.7060   72.9897   -8.2908 C.3     1  UNL1        0.1693
     42 O          22.8167   72.8101   -7.4104 O.3     1  UNL1       -0.3794
     43 H          23.4890   73.4537   -7.6731 H       1  UNL1        0.2105
@<TRIPOS>BOND
     1    15    16   ar
     2    15    20   ar
     3    15     6    1
     4    16    17   ar
     5    16    21    2
     6    17    18   ar
     7    17    23    1
     8    18    19   ar
     9    18    22    2
    10    19    20   ar
    11     6     7    1
    12     6    11    1
    13     7     8    1
    14     7     9    1
    15     8    13    1
    16     9    10    1
    17     9    12    1
    18    10    11    1
    19    10     5    1
    20    12    14    1
    21     5     4    1
    22     4     1    1
    23     1     2    2
    24     1     3    1
    25     1    24    1
    26    24    25    1
    27    25    26    2
    28    25    27    1
    29    25    28    1
    30    28    29    1
    31    29    30    1
    32    29    37    1
    33    30    31    1
    34    30    34    1
    35    31    32    1
    36    31    35    1
    37    32    33    1
    38    32    36    1
    39    33    41    1
    40    33    37    1
    41    41    42    1
    42    34    38    1
    43    35    39    1
    44    36    40    1
    45    42    43    1
@<TRIPOS>MOLECULE
GDU
 43 45 0 0 0
SMALL
GASTEIGER

@<TRIPOS>ATOM
      1 P          19.5603   69.8010   -2.9351 P.3     1  UNL1        0.2189
      2 O          20.8669   69.1301   -2.7556 O.2     1  UNL1       -0.5170
      3 O          18.3994   68.8995   -2.2775 O.3     1  UNL1       -0.4371
      4 O          19.5928   71.2405   -2.2183 O.3     1  UNL1       -0.3112
      5 C          20.7811   71.2818   -1.4266 C.3     1  UNL1        0.1811
      6 C          21.7547   73.8364    0.9086 C.3     1  UNL1        0.2383
      7 C          23.0665   73.4615    0.1727 C.3     1  UNL1        0.1895
      8 O          23.9439   74.5868    0.0892 O.3     1  UNL1       -0.3779
      9 C          22.5474   73.0594   -1.2323 C.3     1  UNL1        0.1713
     10 C          21.0624   72.7238   -1.0007 C.3     1  UNL1        0.1764
     11 O          20.8001   72.8780    0.4049 O.3     1  UNL1       -0.3308
     12 O          22.6843   74.1494   -2.1462 O.3     1  UNL1       -0.3794
     13 H          24.7372   74.2879   -0.3768 H       1  UNL1        0.2106
     14 H          23.6283   74.3501   -2.2034 H       1  UNL1        0.2105
     15 N          21.9141   73.6935    2.3567 N.ar    1  UNL1       -0.2551
     16 C          21.7468   72.4888    2.9303 C.ar    1  UNL1        0.3323
     17 N          21.8911   72.3296    4.2591 N.ar    1  UNL1       -0.2743
     18 C          22.1974   73.3828    5.0408 C.ar    1  UNL1        0.2626
     19 C          22.3709   74.6589    4.4512 C.ar    1  UNL1        0.0795
     20 C          22.2246   74.7898    3.1155 C.ar    1  UNL1        0.0869
     21 O          21.4708   71.5294    2.2379 O.2     1  UNL1       -0.2464
     22 O          22.3235   73.2405    6.2443 O.2     1  UNL1       -0.2670
     23 H          21.7709   71.4520    4.6556 H       1  UNL1        0.1734
     24 O          19.2662   69.9892   -4.5069 O.3     1  UNL1       -0.2703
     25 P          17.8115   70.6663   -4.6316 P.3     1  UNL1        0.2208
     26 O          16.7726   69.6136   -4.5923 O.2     1  UNL1       -0.5170
     27 O          17.5877   71.6863   -3.4054 O.3     1  UNL1       -0.4371
     28 O          17.7100   71.4702   -6.0221 O.3     1  UNL1       -0.2858
     29 C          19.0101   71.9953   -6.2937 C.3     1  UNL1        0.2704
     30 C          18.8807   73.4184   -6.8391 C.3     1  UNL1        0.1967
     31 C          18.0323   73.3884   -8.1141 C.3     1  UNL1        0.1715
     32 C          18.6421   72.3708   -9.0848 C.3     1  UNL1        0.1694
     33 C          18.7878   71.0256   -8.3690 C.3     1  UNL1        0.1761
     34 O          18.2509   74.2497   -5.8627 O.3     1  UNL1       -0.3775
     35 O          18.0243   74.6846   -8.7161 O.3     1  UNL1       -0.3794
     36 O          19.9243   72.8299   -9.5151 O.3     1  UNL1       -0.3794
     37 O          19.6645   71.1672   -7.2521 O.3     1  UNL1       -0.3258
     38 H          18.8143   74.2333   -5.0771 H       1  UNL1        0.2106
     39 H          17.6451   75.2918   -8.0681 H       1  UNL1        0.2105
     40 H          19.7848   73.6793   -9.9536 H       1  UNL1        0.2105
     41 C          19.3643   69.9929   -9.3401 C.3     1  UNL1        0.1693
     42 O          18.9594   70.3146  -10.6719 O.3     1  UNL1       -0.3794
     43 H          19.3431   69.6420  -11.2513 H       1  UNL1        0.2105
@<TRIPOS>BOND
     1    15    16   ar
     2    15    20   ar
     3    15     6    1
     4    16    17   ar
     5    16    21    2
     6    17    18   ar
     7    17    23    1
     8    18    19   ar
     9    18    22    2
    10    19    20   ar
    11     6     7    1
    12     6    11    1
    13     7     8    1
    14     7     9    1
    15     8    13    1
    16     9    10    1
    17     9    12    1
    18    10    11    1
    19    10     5    1
    20    12    14    1
    21     5     4    1
    22     4     1    1
    23     1     2    2
    24     1     3    1
    25     1    24    1
    26    24    25    1
    27    25    26    2
    28    25    27    1
    29    25    28    1
    30    28    29    1
    31    29    30    1
    32    29    37    1
    33    30    31    1
    34    30    34    1
    35    31    32    1
    36    31    35    1
    37    32    33    1
    38    32    36    1
    39    33    41    1
    40    33    37    1
    41    41    42    1
    42    34    38    1
    43    35    39    1
    44    36    40    1
    45    42    43    1
@<TRIPOS>MOLECULE
GDU
 43 45 0 0 0
SMALL
GASTEIGER

@<TRIPOS>ATOM
      1 P          22.8621   72.6058   -3.0299 P.3     1  UNL1        0.2189
      2 O          23.4269   72.1845   -1.7287 O.2     1  UNL1       -0.5170
      3 O          24.0607   72.9405   -4.0519 O.3     1  UNL1       -0.4371
      4 O          21.9585   71.4196   -3.6326 O.3     1  UNL1       -0.3112
      5 C          21.1265   70.9524   -2.5696 C.3     1  UNL1        0.1811
      6 C          18.4633   70.7401   -4.9758 C.3     1  UNL1        0.2383
      7 C          18.5825   69.3059   -4.3998 C.3     1  UNL1        0.1895
      8 O          17.3142   68.6465   -4.4067 O.3     1  UNL1       -0.3779
      9 C          19.0570   69.5771   -2.9483 C.3     1  UNL1        0.1713
     10 C          19.6622   70.9918   -3.0107 C.3     1  UNL1        0.1764
     11 O          19.5749   71.4378   -4.3751 O.3     1  UNL1       -0.3308
     12 O          17.9500   69.5386   -2.0455 O.3     1  UNL1       -0.3794
     13 H          17.4570   67.7636   -4.0381 H       1  UNL1        0.2106
     14 H          17.5787   68.6473   -2.0955 H       1  UNL1        0.2105
     15 N          18.5911   70.7249   -6.4340 N.ar    1  UNL1       -0.2551
     16 C          17.4904   70.6156   -7.1987 C.ar    1  UNL1        0.3323
     17 N          17.5800   70.6027   -8.5417 N.ar    1  UNL1       -0.2743
     18 C          18.7817   70.6897   -9.1439 C.ar    1  UNL1        0.2626
     19 C          19.9502   70.7995   -8.3510 C.ar    1  UNL1        0.0795
     20 C          19.8315   70.8143   -7.0063 C.ar    1  UNL1        0.0869
     21 O          16.3995   70.5367   -6.6698 O.2     1  UNL1       -0.2464
     22 O          18.8642   70.6733  -10.3594 O.2     1  UNL1       -0.2670
     23 H          16.7748   70.5275   -9.0782 H       1  UNL1        0.1734
     24 O          21.9552   73.9195   -2.8200 O.3     1  UNL1       -0.2703
     25 P          22.5551   74.7024   -1.5483 P.3     1  UNL1        0.2208
     26 O          23.9922   74.3816   -1.4048 O.2     1  UNL1       -0.5170
     27 O          22.3788   76.2889   -1.7631 O.3     1  UNL1       -0.4371
     28 O          21.7681   74.2514   -0.2189 O.3     1  UNL1       -0.2858
     29 C          22.7298   74.2016    0.8358 C.3     1  UNL1        0.2704
     30 C          22.4780   72.9624    1.6963 C.3     1  UNL1        0.1967
     31 C          21.0566   73.0295    2.2632 C.3     1  UNL1        0.1715
     32 C          20.8790   74.3709    2.9834 C.3     1  UNL1        0.1694
     33 C          21.2504   75.5041    2.0238 C.3     1  UNL1        0.1761
     34 O          22.6210   71.7872    0.8966 O.3     1  UNL1       -0.3775
     35 O          20.8564   71.9564    3.1856 O.3     1  UNL1       -0.3794
     36 O          21.7278   74.4129    4.1314 O.3     1  UNL1       -0.3794
     37 O          22.6174   75.3769    1.6349 O.3     1  UNL1       -0.3258
     38 H          23.5258   71.7902    0.5556 H       1  UNL1        0.2106
     39 H          20.9892   71.1362    2.6937 H       1  UNL1        0.2105
     40 H          21.4623   73.6805    4.7027 H       1  UNL1        0.2105
     41 C          21.0438   76.8500    2.7224 C.3     1  UNL1        0.1693
     42 O          20.0145   76.7226    3.7049 O.3     1  UNL1       -0.3794
     43 H          19.9162   77.5899    4.1213 H       1  UNL1        0.2105
@<TRIPOS>BOND
     1    15    16   ar
     2    15    20   ar
     3    15     6    1
     4    16    17   ar
     5    16    21    2
     6    17    18   ar
     7    17    23    1
     8    18    19   ar
     9    18    22    2
    10    19    20   ar
    11     6     7    1
    12     6    11    1
    13     7     8    1
    14     7     9    1
    15     8    13    1
    16     9    10    1
    17     9    12    1
    18    10    11    1
    19    10     5    1
    20    12    14    1
    21     5     4    1
    22     4     1    1
    23     1     2    2
    24     1     3    1
    25     1    24    1
    26    24    25    1
    27    25    26    2
    28    25    27    1
    29    25    28    1
    30    28    29    1
    31    29    30    1
    32    29    37    1
    33    30    31    1
    34    30    34    1
    35    31    32    1
    36    31    35    1
    37    32    33    1
    38    32    36    1
    39    33    41    1
    40    33    37    1
    41    41    42    1
    42    34    38    1
    43    35    39    1
    44    36    40    1
    45    42    43    1
@<TRIPOS>MOLECULE
GDU
 43 45 0 0 0
SMALL
GASTEIGER

@<TRIPOS>ATOM
      1 P          22.1471   70.9820   -2.2901 P.3     1  UNL1        0.2189
      2 O          21.6219   69.6012   -2.3741 O.2     1  UNL1       -0.5170
      3 O          23.0217   71.3042   -3.6032 O.3     1  UNL1       -0.4371
      4 O          20.9207   72.0181   -2.1946 O.3     1  UNL1       -0.3112
      5 C          19.7216   71.2419   -2.2029 C.3     1  UNL1        0.1811
      6 C          18.9525   72.3853   -5.5238 C.3     1  UNL1        0.2383
      7 C          18.6859   70.8588   -5.5664 C.3     1  UNL1        0.1895
      8 O          17.6459   70.5485   -6.4966 O.3     1  UNL1       -0.3779
      9 C          18.2324   70.5676   -4.1122 C.3     1  UNL1        0.1713
     10 C          18.7886   71.7533   -3.3021 C.3     1  UNL1        0.1764
     11 O          19.5204   72.5917   -4.2130 O.3     1  UNL1       -0.3308
     12 O          16.8063   70.5239   -4.0329 O.3     1  UNL1       -0.3794
     13 H          17.5300   69.5883   -6.4753 H       1  UNL1        0.2106
     14 H          16.5159   69.8011   -4.6055 H       1  UNL1        0.2105
     15 N          19.9046   72.7740   -6.5655 N.ar    1  UNL1       -0.2551
     16 C          19.4515   73.2025   -7.7569 C.ar    1  UNL1        0.3323
     17 N          20.3057   73.5692   -8.7304 N.ar    1  UNL1       -0.2743
     18 C          21.6358   73.5029   -8.5285 C.ar    1  UNL1        0.2626
     19 C          22.1275   73.0480   -7.2806 C.ar    1  UNL1        0.0795
     20 C          21.2488   72.6904   -6.3201 C.ar    1  UNL1        0.0869
     21 O          18.2544   73.2682   -7.9536 O.2     1  UNL1       -0.2464
     22 O          22.4098   73.8301   -9.4108 O.2     1  UNL1       -0.2670
     23 H          19.9611   73.8801   -9.5827 H       1  UNL1        0.1734
     24 O          23.0743   71.1237   -0.9814 O.3     1  UNL1       -0.2703
     25 P          22.1873   70.6448    0.2731 P.3     1  UNL1        0.2208
     26 O          21.2657   69.5699   -0.1564 O.2     1  UNL1       -0.5170
     27 O          23.1557   70.0886    1.4337 O.3     1  UNL1       -0.4371
     28 O          21.3364   71.8892    0.8364 O.3     1  UNL1       -0.2858
     29 C          22.1880   72.6013    1.7351 C.3     1  UNL1        0.2704
     30 C          21.3493   73.1969    2.8670 C.3     1  UNL1        0.1967
     31 C          20.2940   74.1312    2.2672 C.3     1  UNL1        0.1715
     32 C          20.9988   75.1545    1.3695 C.3     1  UNL1        0.1694
     33 C          21.8631   74.4097    0.3491 C.3     1  UNL1        0.1761
     34 O          20.7053   72.1461    3.5895 O.3     1  UNL1       -0.3775
     35 O          19.5994   74.8078    3.3170 O.3     1  UNL1       -0.3794
     36 O          21.8214   76.0052    2.1692 O.3     1  UNL1       -0.3794
     37 O          22.8568   73.6432    1.0282 O.3     1  UNL1       -0.3258
     38 H          21.4054   71.5802    3.9423 H       1  UNL1        0.2106
     39 H          19.1831   74.1274    3.8611 H       1  UNL1        0.2105
     40 H          21.2375   76.4479    2.7989 H       1  UNL1        0.2105
     41 C          22.5449   75.4216   -0.5746 C.3     1  UNL1        0.1693
     42 O          21.5511   76.1529   -1.2946 O.3     1  UNL1       -0.3794
     43 H          22.0210   76.7786   -1.8630 H       1  UNL1        0.2105
@<TRIPOS>BOND
     1    15    16   ar
     2    15    20   ar
     3    15     6    1
     4    16    17   ar
     5    16    21    2
     6    17    18   ar
     7    17    23    1
     8    18    19   ar
     9    18    22    2
    10    19    20   ar
    11     6     7    1
    12     6    11    1
    13     7     8    1
    14     7     9    1
    15     8    13    1
    16     9    10    1
    17     9    12    1
    18    10    11    1
    19    10     5    1
    20    12    14    1
    21     5     4    1
    22     4     1    1
    23     1     2    2
    24     1     3    1
    25     1    24    1
    26    24    25    1
    27    25    26    2
    28    25    27    1
    29    25    28    1
    30    28    29    1
    31    29    30    1
    32    29    37    1
    33    30    31    1
    34    30    34    1
    35    31    32    1
    36    31    35    1
    37    32    33    1
    38    32    36    1
    39    33    41    1
    40    33    37    1
    41    41    42    1
    42    34    38    1
    43    35    39    1
    44    36    40    1
    45    42    43    1
@<TRIPOS>MOLECULE
GDU
 43 45 0 0 0
SMALL
GASTEIGER

@<TRIPOS>ATOM
      1 P          21.8050   74.9197   -4.3147 P.3     1  UNL1        0.2189
      2 O          21.0493   75.7263   -5.2985 O.2     1  UNL1       -0.5170
      3 O          23.0240   75.7932   -3.7280 O.3     1  UNL1       -0.4371
      4 O          20.8285   74.4858   -3.1126 O.3     1  UNL1       -0.3112
      5 C          20.9651   73.0722   -2.9584 C.3     1  UNL1        0.1811
      6 C          22.9772   72.4795   -0.0382 C.3     1  UNL1        0.2383
      7 C          22.5241   71.0681   -0.4916 C.3     1  UNL1        0.1895
      8 O          23.5071   70.0854   -0.1581 O.3     1  UNL1       -0.3779
      9 C          22.4137   71.2405   -2.0289 C.3     1  UNL1        0.1713
     10 C          22.2715   72.7612   -2.2257 C.3     1  UNL1        0.1764
     11 O          22.2550   73.3647   -0.9204 O.3     1  UNL1       -0.3308
     12 O          23.5935   70.7543   -2.6721 O.3     1  UNL1       -0.3794
     13 H          23.1657   69.2340   -0.4653 H       1  UNL1        0.2106
     14 H          23.6584   69.8125   -2.4634 H       1  UNL1        0.2105
     15 N          22.6016   72.7213    1.3558 N.ar    1  UNL1       -0.2551
     16 C          21.7230   71.9028    1.9612 C.ar    1  UNL1        0.3323
     17 N          21.3635   72.1008    3.2431 N.ar    1  UNL1       -0.2743
     18 C          21.8737   73.1339    3.9406 C.ar    1  UNL1        0.2626
     19 C          22.7958   74.0077    3.3141 C.ar    1  UNL1        0.0795
     20 C          23.1424   73.7837    2.0287 C.ar    1  UNL1        0.0869
     21 O          21.2547   70.9663    1.3450 O.2     1  UNL1       -0.2464
     22 O          21.5452   73.3168    5.0996 O.2     1  UNL1       -0.2670
     23 H          20.7314   71.4976    3.6656 H       1  UNL1        0.1734
     24 O          22.3881   73.6036   -5.0360 O.3     1  UNL1       -0.2703
     25 P          21.8103   73.5999   -6.5380 P.3     1  UNL1        0.2208
     26 O          21.8668   74.9708   -7.0914 O.2     1  UNL1       -0.5170
     27 O          22.6989   72.6156   -7.4521 O.3     1  UNL1       -0.4371
     28 O          20.2847   73.0874   -6.5259 O.3     1  UNL1       -0.2858
     29 C          20.1924   72.0365   -7.4886 C.3     1  UNL1        0.2704
     30 C          19.4698   72.5499   -8.7351 C.3     1  UNL1        0.1967
     31 C          18.0751   73.0417   -8.3358 C.3     1  UNL1        0.1715
     32 C          17.3562   71.9173   -7.5818 C.3     1  UNL1        0.1694
     33 C          18.2390   71.4530   -6.4207 C.3     1  UNL1        0.1761
     34 O          20.2125   73.6268   -9.3094 O.3     1  UNL1       -0.3775
     35 O          17.3341   73.3873   -9.5080 O.3     1  UNL1       -0.3794
     36 O          17.1134   70.8255   -8.4701 O.3     1  UNL1       -0.3794
     37 O          19.4713   70.9422   -6.9273 O.3     1  UNL1       -0.3258
     38 H          21.0833   73.2743   -9.5383 H       1  UNL1        0.2106
     39 H          17.8275   74.0866   -9.9550 H       1  UNL1        0.2105
     40 H          16.5605   71.1648   -9.1860 H       1  UNL1        0.2105
     41 C          17.5154   70.3534   -5.6402 C.3     1  UNL1        0.1693
     42 O          16.3435   69.9560   -6.3542 O.3     1  UNL1       -0.3794
     43 H          15.9182   69.2632   -5.8304 H       1  UNL1        0.2105
@<TRIPOS>BOND
     1    15    16   ar
     2    15    20   ar
     3    15     6    1
     4    16    17   ar
     5    16    21    2
     6    17    18   ar
     7    17    23    1
     8    18    19   ar
     9    18    22    2
    10    19    20   ar
    11     6     7    1
    12     6    11    1
    13     7     8    1
    14     7     9    1
    15     8    13    1
    16     9    10    1
    17     9    12    1
    18    10    11    1
    19    10     5    1
    20    12    14    1
    21     5     4    1
    22     4     1    1
    23     1     2    2
    24     1     3    1
    25     1    24    1
    26    24    25    1
    27    25    26    2
    28    25    27    1
    29    25    28    1
    30    28    29    1
    31    29    30    1
    32    29    37    1
    33    30    31    1
    34    30    34    1
    35    31    32    1
    36    31    35    1
    37    32    33    1
    38    32    36    1
    39    33    41    1
    40    33    37    1
    41    41    42    1
    42    34    38    1
    43    35    39    1
    44    36    40    1
    45    42    43    1
@<TRIPOS>MOLECULE
GDU
 43 45 0 0 0
SMALL
GASTEIGER

@<TRIPOS>ATOM
      1 P          19.6489   70.5707   -2.9416 P.3     1  UNL1        0.2189
      2 O          19.1385   71.7651   -2.2329 O.2     1  UNL1       -0.5170
      3 O          19.9515   69.4026   -1.8752 O.3     1  UNL1       -0.4371
      4 O          18.5478   70.0612   -3.9974 O.3     1  UNL1       -0.3112
      5 C          17.4645   70.9909   -3.9465 C.3     1  UNL1        0.1811
      6 C          18.4908   72.3495   -7.1133 C.3     1  UNL1        0.2383
      7 C          18.3472   70.8277   -7.3709 C.3     1  UNL1        0.1895
      8 O          17.9568   70.5738   -8.7224 O.3     1  UNL1       -0.3779
      9 C          17.2153   70.4367   -6.3855 C.3     1  UNL1        0.1713
     10 C          17.2202   71.5689   -5.3417 C.3     1  UNL1        0.1764
     11 O          18.2846   72.4711   -5.6899 O.3     1  UNL1       -0.3308
     12 O          15.9595   70.3788   -7.0647 O.3     1  UNL1       -0.3794
     13 H          17.8858   69.6137   -8.8164 H       1  UNL1        0.2106
     14 H          16.0390   69.6941   -7.7427 H       1  UNL1        0.2105
     15 N          19.8293   72.8133   -7.4820 N.ar    1  UNL1       -0.2551
     16 C          20.0176   73.4410   -8.6562 C.ar    1  UNL1        0.3323
     17 N          21.2376   73.8804   -9.0176 N.ar    1  UNL1       -0.2743
     18 C          22.2969   73.6882   -8.2082 C.ar    1  UNL1        0.2626
     19 C          22.1145   73.0234   -6.9709 C.ar    1  UNL1        0.0795
     20 C          20.8796   72.5967   -6.6311 C.ar    1  UNL1        0.0869
     21 O          19.0715   73.6220   -9.3967 O.2     1  UNL1       -0.2464
     22 O          23.4023   74.0814   -8.5366 O.2     1  UNL1       -0.2670
     23 H          21.3544   74.3353   -9.8669 H       1  UNL1        0.1734
     24 O          21.0064   70.9493   -3.7204 O.3     1  UNL1       -0.2703
     25 P          22.1639   71.0700   -2.6088 P.3     1  UNL1        0.2208
     26 O          21.8275   70.2120   -1.4514 O.2     1  UNL1       -0.5170
     27 O          23.5663   70.5923   -3.2407 O.3     1  UNL1       -0.4371
     28 O          22.2879   72.6001   -2.1257 O.3     1  UNL1       -0.2858
     29 C          22.0274   73.4181   -3.2671 C.3     1  UNL1        0.2704
     30 C          23.3008   74.1712   -3.6552 C.3     1  UNL1        0.1967
     31 C          23.7551   75.0270   -2.4688 C.3     1  UNL1        0.1715
     32 C          22.5841   75.9111   -2.0254 C.3     1  UNL1        0.1694
     33 C          21.3647   75.0251   -1.7588 C.3     1  UNL1        0.1761
     34 O          24.3262   73.2353   -3.9927 O.3     1  UNL1       -0.3775
     35 O          24.8570   75.8475   -2.8628 O.3     1  UNL1       -0.3794
     36 O          22.2802   76.8533   -3.0549 O.3     1  UNL1       -0.3794
     37 O          20.9911   74.3470   -2.9573 O.3     1  UNL1       -0.3258
     38 H          23.9949   72.7149   -4.7372 H       1  UNL1        0.2106
     39 H          25.5630   75.2519   -3.1440 H       1  UNL1        0.2105
     40 H          23.0758   77.3838   -3.1925 H       1  UNL1        0.2105
     41 C          20.1990   75.8946   -1.2822 C.3     1  UNL1        0.1693
     42 O          20.7088   77.0331   -0.5858 O.3     1  UNL1       -0.3794
     43 H          19.9443   77.5540   -0.3035 H       1  UNL1        0.2105
@<TRIPOS>BOND
     1    15    16   ar
     2    15    20   ar
     3    15     6    1
     4    16    17   ar
     5    16    21    2
     6    17    18   ar
     7    17    23    1
     8    18    19   ar
     9    18    22    2
    10    19    20   ar
    11     6     7    1
    12     6    11    1
    13     7     8    1
    14     7     9    1
    15     8    13    1
    16     9    10    1
    17     9    12    1
    18    10    11    1
    19    10     5    1
    20    12    14    1
    21     5     4    1
    22     4     1    1
    23     1     2    2
    24     1     3    1
    25     1    24    1
    26    24    25    1
    27    25    26    2
    28    25    27    1
    29    25    28    1
    30    28    29    1
    31    29    30    1
    32    29    37    1
    33    30    31    1
    34    30    34    1
    35    31    32    1
    36    31    35    1
    37    32    33    1
    38    32    36    1
    39    33    41    1
    40    33    37    1
    41    41    42    1
    42    34    38    1
    43    35    39    1
    44    36    40    1
    45    42    43    1
@<TRIPOS>MOLECULE
GDU
 43 45 0 0 0
SMALL
GASTEIGER

@<TRIPOS>ATOM
      1 P          21.0669   75.6604   -3.7657 P.3     1  UNL1        0.2189
      2 O          20.6873   76.9843   -4.3068 O.2     1  UNL1       -0.5170
      3 O          20.7591   75.6183   -2.1857 O.3     1  UNL1       -0.4371
      4 O          20.2186   74.5133   -4.5084 O.3     1  UNL1       -0.3112
      5 C          18.8747   74.6215   -4.0366 C.3     1  UNL1        0.1811
      6 C          18.1547   71.5338   -5.7322 C.3     1  UNL1        0.2383
      7 C          19.2717   71.1709   -4.7205 C.3     1  UNL1        0.1895
      8 O          19.1430   69.8161   -4.2831 O.3     1  UNL1       -0.3779
      9 C          18.9892   72.1568   -3.5571 C.3     1  UNL1        0.1713
     10 C          18.1617   73.2793   -4.2104 C.3     1  UNL1        0.1764
     11 O          18.0417   72.9675   -5.6092 O.3     1  UNL1       -0.3308
     12 O          18.2414   71.5107   -2.5251 O.3     1  UNL1       -0.3794
     13 H          19.8644   69.6548   -3.6591 H       1  UNL1        0.2106
     14 H          18.7871   70.7830   -2.1974 H       1  UNL1        0.2105
     15 N          18.5473   71.1621   -7.0925 N.ar    1  UNL1       -0.2551
     16 C          17.6159   70.7299   -7.9608 C.ar    1  UNL1        0.3323
     17 N          17.9499   70.3853   -9.2185 N.ar    1  UNL1       -0.2743
     18 C          19.2315   70.4592   -9.6262 C.ar    1  UNL1        0.2626
     19 C          20.2242   70.9072   -8.7206 C.ar    1  UNL1        0.0795
     20 C          19.8612   71.2506   -7.4665 C.ar    1  UNL1        0.0869
     21 O          16.4556   70.6585   -7.6076 O.2     1  UNL1       -0.2464
     22 O          19.5354   70.1429  -10.7629 O.2     1  UNL1       -0.2670
     23 H          17.2640   70.0796   -9.8331 H       1  UNL1        0.1734
     24 O          22.6385   75.4118   -4.0117 O.3     1  UNL1       -0.2703
     25 P          22.8867   73.8273   -3.8785 P.3     1  UNL1        0.2208
     26 O          22.4048   73.1482   -5.1015 O.2     1  UNL1       -0.5170
     27 O          24.4616   73.5447   -3.6936 O.3     1  UNL1       -0.4371
     28 O          22.0879   73.2634   -2.6002 O.3     1  UNL1       -0.2858
     29 C          23.0298   72.5370   -1.8096 C.3     1  UNL1        0.2704
     30 C          22.8528   71.0379   -2.0564 C.3     1  UNL1        0.1967
     31 C          21.4194   70.6385   -1.6928 C.3     1  UNL1        0.1715
     32 C          21.1297   71.1025   -0.2609 C.3     1  UNL1        0.1694
     33 C          21.4357   72.5983   -0.1508 C.3     1  UNL1        0.1761
     34 O          23.0975   70.7475   -3.4337 O.3     1  UNL1       -0.3775
     35 O          21.2805   69.2187   -1.7773 O.3     1  UNL1       -0.3794
     36 O          21.9505   70.3735    0.6529 O.3     1  UNL1       -0.3794
     37 O          22.8157   72.8292   -0.4307 O.3     1  UNL1       -0.3258
     38 H          24.0061   71.0209   -3.6194 H       1  UNL1        0.2106
     39 H          21.4829   68.9714   -2.6885 H       1  UNL1        0.2105
     40 H          21.7283   69.4396    0.5448 H       1  UNL1        0.2105
     41 C          21.1171   73.0794    1.2666 C.3     1  UNL1        0.1693
     42 O          21.0429   71.9550    2.1449 O.3     1  UNL1       -0.3794
     43 H          20.8417   72.3006    3.0255 H       1  UNL1        0.2105
@<TRIPOS>BOND
     1    15    16   ar
     2    15    20   ar
     3    15     6    1
     4    16    17   ar
     5    16    21    2
     6    17    18   ar
     7    17    23    1
     8    18    19   ar
     9    18    22    2
    10    19    20   ar
    11     6     7    1
    12     6    11    1
    13     7     8    1
    14     7     9    1
    15     8    13    1
    16     9    10    1
    17     9    12    1
    18    10    11    1
    19    10     5    1
    20    12    14    1
    21     5     4    1
    22     4     1    1
    23     1     2    2
    24     1     3    1
    25     1    24    1
    26    24    25    1
    27    25    26    2
    28    25    27    1
    29    25    28    1
    30    28    29    1
    31    29    30    1
    32    29    37    1
    33    30    31    1
    34    30    34    1
    35    31    32    1
    36    31    35    1
    37    32    33    1
    38    32    36    1
    39    33    41    1
    40    33    37    1
    41    41    42    1
    42    34    38    1
    43    35    39    1
    44    36    40    1
    45    42    43    1
@<TRIPOS>MOLECULE
GDU
 43 45 0 0 0
SMALL
GASTEIGER

@<TRIPOS>ATOM
      1 P          17.9174   70.1476   -3.3847 P.3     1  UNL1        0.2189
      2 O          18.3298   69.2395   -2.2917 O.2     1  UNL1       -0.5170
      3 O          16.5477   70.8900   -2.9776 O.3     1  UNL1       -0.4371
      4 O          19.0677   71.2434   -3.6353 O.3     1  UNL1       -0.3112
      5 C          19.3685   71.8252   -2.3659 C.3     1  UNL1        0.1811
      6 C          22.4109   72.3173   -0.5140 C.3     1  UNL1        0.2383
      7 C          22.2630   70.7777   -0.6174 C.3     1  UNL1        0.1895
      8 O          23.5435   70.1431   -0.6440 O.3     1  UNL1       -0.3779
      9 C          21.5350   70.6118   -1.9768 C.3     1  UNL1        0.1713
     10 C          20.8831   71.9852   -2.2222 C.3     1  UNL1        0.1764
     11 O          21.1811   72.8130   -1.0846 O.3     1  UNL1       -0.3308
     12 O          22.4719   70.3033   -3.0107 O.3     1  UNL1       -0.3794
     13 H          23.3818   69.1915   -0.7085 H       1  UNL1        0.2106
     14 H          22.8881   69.4644   -2.7704 H       1  UNL1        0.2105
     15 N          22.5351   72.7330    0.8840 N.ar    1  UNL1       -0.2551
     16 C          22.0793   71.9299    1.8616 C.ar    1  UNL1        0.3323
     17 N          22.1845   72.2869    3.1552 N.ar    1  UNL1       -0.2743
     18 C          22.7425   73.4656    3.4921 C.ar    1  UNL1        0.2626
     19 C          23.2218   74.3243    2.4727 C.ar    1  UNL1        0.0795
     20 C          23.1076   73.9399    1.1836 C.ar    1  UNL1        0.0869
     21 O          21.5740   70.8634    1.5731 O.2     1  UNL1       -0.2464
     22 O          22.8338   73.7917    4.6625 O.2     1  UNL1       -0.2670
     23 H          21.8540   71.6930    3.8479 H       1  UNL1        0.1734
     24 O          17.6844   69.2949   -4.7305 O.3     1  UNL1       -0.2703
     25 P          17.1143   70.3153   -5.8367 P.3     1  UNL1        0.2208
     26 O          16.1774   69.5999   -6.7309 O.2     1  UNL1       -0.5170
     27 O          16.3399   71.5227   -5.1041 O.3     1  UNL1       -0.4371
     28 O          18.3353   70.9086   -6.7010 O.3     1  UNL1       -0.2858
     29 C          18.1683   72.3266   -6.7361 C.3     1  UNL1        0.2704
     30 C          17.7101   72.7509   -8.1323 C.3     1  UNL1        0.1967
     31 C          18.7565   72.3040   -9.1577 C.3     1  UNL1        0.1715
     32 C          20.1253   72.8441   -8.7283 C.3     1  UNL1        0.1694
     33 C          20.4014   72.4106   -7.2864 C.3     1  UNL1        0.1761
     34 O          16.4539   72.1389   -8.4303 O.3     1  UNL1       -0.3775
     35 O          18.4169   72.8201  -10.4465 O.3     1  UNL1       -0.3794
     36 O          20.1240   74.2699   -8.8118 O.3     1  UNL1       -0.3794
     37 O          19.4075   72.9573   -6.4208 O.3     1  UNL1       -0.3258
     38 H          15.8293   72.4420   -7.7573 H       1  UNL1        0.2106
     39 H          17.5471   72.4652  -10.6697 H       1  UNL1        0.2105
     40 H          19.9411   74.4962   -9.7330 H       1  UNL1        0.2105
     41 C          21.7813   72.9159   -6.8591 C.3     1  UNL1        0.1693
     42 O          22.6735   72.8621   -7.9736 O.3     1  UNL1       -0.3794
     43 H          23.5292   73.1886   -7.6632 H       1  UNL1        0.2105
@<TRIPOS>BOND
     1    15    16   ar
     2    15    20   ar
     3    15     6    1
     4    16    17   ar
     5    16    21    2
     6    17    18   ar
     7    17    23    1
     8    18    19   ar
     9    18    22    2
    10    19    20   ar
    11     6     7    1
    12     6    11    1
    13     7     8    1
    14     7     9    1
    15     8    13    1
    16     9    10    1
    17     9    12    1
    18    10    11    1
    19    10     5    1
    20    12    14    1
    21     5     4    1
    22     4     1    1
    23     1     2    2
    24     1     3    1
    25     1    24    1
    26    24    25    1
    27    25    26    2
    28    25    27    1
    29    25    28    1
    30    28    29    1
    31    29    30    1
    32    29    37    1
    33    30    31    1
    34    30    34    1
    35    31    32    1
    36    31    35    1
    37    32    33    1
    38    32    36    1
    39    33    41    1
    40    33    37    1
    41    41    42    1
    42    34    38    1
    43    35    39    1
    44    36    40    1
    45    42    43    1
@<TRIPOS>MOLECULE
GDU
 43 45 0 0 0
SMALL
GASTEIGER

@<TRIPOS>ATOM
      1 P          19.7947   70.3439   -2.9484 P.3     1  UNL1        0.2189
      2 O          20.6752   69.2839   -2.4093 O.2     1  UNL1       -0.5170
      3 O          18.2857   70.0959   -2.4441 O.3     1  UNL1       -0.4371
      4 O          20.3040   71.7794   -2.4320 O.3     1  UNL1       -0.3112
      5 C          20.2691   71.7418   -1.0044 C.3     1  UNL1        0.1811
      6 C          22.7217   72.2412    1.5768 C.3     1  UNL1        0.2383
      7 C          22.4660   70.7123    1.5736 C.3     1  UNL1        0.1895
      8 O          23.6406   69.9980    1.9649 O.3     1  UNL1       -0.3779
      9 C          22.1250   70.4430    0.0848 C.3     1  UNL1        0.1713
     10 C          21.6949   71.8194   -0.4555 C.3     1  UNL1        0.1764
     11 O          21.7460   72.7479    0.6415 O.3     1  UNL1       -0.3308
     12 O          23.2760   69.9619   -0.6121 O.3     1  UNL1       -0.3794
     13 H          23.4154   69.0574    1.9427 H       1  UNL1        0.2106
     14 H          23.5312   69.1301   -0.1907 H       1  UNL1        0.2105
     15 N          22.4972   72.8012    2.9105 N.ar    1  UNL1       -0.2551
     16 C          21.3001   72.6502    3.5043 C.ar    1  UNL1        0.3323
     17 N          21.0687   73.1523    4.7316 N.ar    1  UNL1       -0.2743
     18 C          22.0354   73.8264    5.3838 C.ar    1  UNL1        0.2626
     19 C          23.2994   73.9981    4.7683 C.ar    1  UNL1        0.0795
     20 C          23.5061   73.4807    3.5386 C.ar    1  UNL1        0.0869
     21 O          20.4186   72.0441    2.9284 O.2     1  UNL1       -0.2464
     22 O          21.8254   74.2853    6.4928 O.2     1  UNL1       -0.2670
     23 H          20.2002   73.0302    5.1468 H       1  UNL1        0.1734
     24 O          19.8343   70.3060   -4.5576 O.3     1  UNL1       -0.2703
     25 P          18.3672   70.7240   -5.0704 P.3     1  UNL1        0.2208
     26 O          17.4470   69.5750   -4.9217 O.2     1  UNL1       -0.5170
     27 O          17.8251   71.9619   -4.1942 O.3     1  UNL1       -0.4371
     28 O          18.4417   71.1561   -6.6189 O.3     1  UNL1       -0.2858
     29 C          18.1673   72.5566   -6.6725 C.3     1  UNL1        0.2704
     30 C          17.6082   72.9135   -8.0507 C.3     1  UNL1        0.1967
     31 C          18.6317   72.5215   -9.1208 C.3     1  UNL1        0.1715
     32 C          19.9762   73.1711   -8.7742 C.3     1  UNL1        0.1694
     33 C          20.3569   72.7927   -7.3407 C.3     1  UNL1        0.1761
     34 O          16.3879   72.2037   -8.2706 O.3     1  UNL1       -0.3775
     35 O          18.1892   72.9812  -10.3997 O.3     1  UNL1       -0.3794
     36 O          19.8637   74.5906   -8.8850 O.3     1  UNL1       -0.3794
     37 O          19.3701   73.2842   -6.4349 O.3     1  UNL1       -0.3258
     38 H          15.7774   72.4753   -7.5718 H       1  UNL1        0.2106
     39 H          17.3383   72.5579  -10.5701 H       1  UNL1        0.2105
     40 H          19.6178   74.7813   -9.7995 H       1  UNL1        0.2105
     41 C          21.7150   73.4082   -6.9961 C.3     1  UNL1        0.1693
     42 O          22.7579   72.5557   -7.4719 O.3     1  UNL1       -0.3794
     43 H          23.5949   72.9789   -7.2360 H       1  UNL1        0.2105
@<TRIPOS>BOND
     1    15    16   ar
     2    15    20   ar
     3    15     6    1
     4    16    17   ar
     5    16    21    2
     6    17    18   ar
     7    17    23    1
     8    18    19   ar
     9    18    22    2
    10    19    20   ar
    11     6     7    1
    12     6    11    1
    13     7     8    1
    14     7     9    1
    15     8    13    1
    16     9    10    1
    17     9    12    1
    18    10    11    1
    19    10     5    1
    20    12    14    1
    21     5     4    1
    22     4     1    1
    23     1     2    2
    24     1     3    1
    25     1    24    1
    26    24    25    1
    27    25    26    2
    28    25    27    1
    29    25    28    1
    30    28    29    1
    31    29    30    1
    32    29    37    1
    33    30    31    1
    34    30    34    1
    35    31    32    1
    36    31    35    1
    37    32    33    1
    38    32    36    1
    39    33    41    1
    40    33    37    1
    41    41    42    1
    42    34    38    1
    43    35    39    1
    44    36    40    1
    45    42    43    1
@<TRIPOS>MOLECULE
GDU
 43 45 0 0 0
SMALL
GASTEIGER

@<TRIPOS>ATOM
      1 P          22.2818   73.5164   -4.5561 P.3     1  UNL1        0.2189
      2 O          23.6849   73.0594   -4.6655 O.2     1  UNL1       -0.5170
      3 O          21.2966   72.2444   -4.6215 O.3     1  UNL1       -0.4371
      4 O          22.0746   74.2845   -3.1583 O.3     1  UNL1       -0.3112
      5 C          21.3123   73.4163   -2.3182 C.3     1  UNL1        0.1811
      6 C          22.2426   72.4226    1.0096 C.3     1  UNL1        0.2383
      7 C          21.5097   71.1879    0.4254 C.3     1  UNL1        0.1895
      8 O          22.0281   69.9771    0.9810 O.3     1  UNL1       -0.3779
      9 C          21.8487   71.2932   -1.0843 C.3     1  UNL1        0.1713
     10 C          22.2321   72.7719   -1.2795 C.3     1  UNL1        0.1764
     11 O          22.0722   73.4294   -0.0106 O.3     1  UNL1       -0.3308
     12 O          22.9456   70.4376   -1.4110 O.3     1  UNL1       -0.3794
     13 H          21.5320   69.2508    0.5784 H       1  UNL1        0.2106
     14 H          22.6649   69.5341   -1.2121 H       1  UNL1        0.2105
     15 N          21.6200   72.8489    2.2640 N.ar    1  UNL1       -0.2551
     16 C          22.0249   72.3084    3.4269 C.ar    1  UNL1        0.3323
     17 N          21.4713   72.6854    4.5945 N.ar    1  UNL1       -0.2743
     18 C          20.4904   73.6082    4.6154 C.ar    1  UNL1        0.2626
     19 C          20.0497   74.1819    3.3976 C.ar    1  UNL1        0.0795
     20 C          20.6250   73.7889    2.2413 C.ar    1  UNL1        0.0869
     21 O          22.9091   71.4752    3.4239 O.2     1  UNL1       -0.2464
     22 O          19.9854   73.9466    5.6713 O.2     1  UNL1       -0.2670
     23 H          21.7788   72.2880    5.4247 H       1  UNL1        0.1734
     24 O          21.9474   74.5155   -5.7737 O.3     1  UNL1       -0.2703
     25 P          21.5672   73.5975   -7.0397 P.3     1  UNL1        0.2208
     26 O          21.2505   74.4618   -8.1980 O.2     1  UNL1       -0.5170
     27 O          22.8140   72.6459   -7.4059 O.3     1  UNL1       -0.4371
     28 O          20.2880   72.6894   -6.6806 O.3     1  UNL1       -0.2858
     29 C          19.2287   73.1050   -7.5437 C.3     1  UNL1        0.2704
     30 C          17.9068   73.0828   -6.7746 C.3     1  UNL1        0.1967
     31 C          17.6560   71.6637   -6.2552 C.3     1  UNL1        0.1715
     32 C          17.7411   70.6881   -7.4344 C.3     1  UNL1        0.1694
     33 C          19.0775   70.8908   -8.1527 C.3     1  UNL1        0.1761
     34 O          17.9780   73.9913   -5.6742 O.3     1  UNL1       -0.3775
     35 O          16.3577   71.5920   -5.6622 O.3     1  UNL1       -0.3794
     36 O          16.6642   70.9370   -8.3390 O.3     1  UNL1       -0.3794
     37 O          19.1538   72.2221   -8.6606 O.3     1  UNL1       -0.3258
     38 H          18.1436   74.8681   -6.0466 H       1  UNL1        0.2106
     39 H          16.3461   72.2282   -4.9360 H       1  UNL1        0.2105
     40 H          15.8458   70.8035   -7.8434 H       1  UNL1        0.2105
     41 C          19.1874   69.8975   -9.3117 C.3     1  UNL1        0.1693
     42 O          18.7731   70.5321  -10.5228 O.3     1  UNL1       -0.3794
     43 H          18.8579   69.8744  -11.2266 H       1  UNL1        0.2105
@<TRIPOS>BOND
     1    15    16   ar
     2    15    20   ar
     3    15     6    1
     4    16    17   ar
     5    16    21    2
     6    17    18   ar
     7    17    23    1
     8    18    19   ar
     9    18    22    2
    10    19    20   ar
    11     6     7    1
    12     6    11    1
    13     7     8    1
    14     7     9    1
    15     8    13    1
    16     9    10    1
    17     9    12    1
    18    10    11    1
    19    10     5    1
    20    12    14    1
    21     5     4    1
    22     4     1    1
    23     1     2    2
    24     1     3    1
    25     1    24    1
    26    24    25    1
    27    25    26    2
    28    25    27    1
    29    25    28    1
    30    28    29    1
    31    29    30    1
    32    29    37    1
    33    30    31    1
    34    30    34    1
    35    31    32    1
    36    31    35    1
    37    32    33    1
    38    32    36    1
    39    33    41    1
    40    33    37    1
    41    41    42    1
    42    34    38    1
    43    35    39    1
    44    36    40    1
    45    42    43    1
@<TRIPOS>MOLECULE
GDU
 43 45 0 0 0
SMALL
GASTEIGER

@<TRIPOS>ATOM
      1 P          19.4452   69.6658   -3.1670 P.3     1  UNL1        0.2189
      2 O          20.7491   68.9909   -2.9837 O.2     1  UNL1       -0.5170
      3 O          18.2858   68.7910   -2.4717 O.3     1  UNL1       -0.4371
      4 O          19.4956   71.1243   -2.4908 O.3     1  UNL1       -0.3112
      5 C          20.6292   71.1385   -1.6218 C.3     1  UNL1        0.1811
      6 C          21.6844   73.6867    0.6848 C.3     1  UNL1        0.2383
      7 C          22.9753   73.2939   -0.0783 C.3     1  UNL1        0.1895
      8 O          23.8643   74.4082   -0.1839 O.3     1  UNL1       -0.3779
      9 C          22.4209   72.8948   -1.4707 C.3     1  UNL1        0.1713
     10 C          20.9373   72.5780   -1.2060 C.3     1  UNL1        0.1764
     11 O          20.7075   72.7388    0.2045 O.3     1  UNL1       -0.3308
     12 O          22.5512   73.9808   -2.3903 O.3     1  UNL1       -0.3794
     13 H          24.6436   74.0985   -0.6662 H       1  UNL1        0.2106
     14 H          23.4961   74.1698   -2.4684 H       1  UNL1        0.2105
     15 N          21.8734   73.5454    2.1295 N.ar    1  UNL1       -0.2551
     16 C          21.7299   72.3390    2.7059 C.ar    1  UNL1        0.3323
     17 N          21.9016   72.1812    4.0316 N.ar    1  UNL1       -0.2743
     18 C          22.2122   73.2375    4.8075 C.ar    1  UNL1        0.2626
     19 C          22.3609   74.5154    4.2149 C.ar    1  UNL1        0.0795
     20 C          22.1872   74.6448    2.8824 C.ar    1  UNL1        0.0869
     21 O          21.4504   71.3768    2.0188 O.2     1  UNL1       -0.2464
     22 O          22.3632   73.0966    6.0083 O.2     1  UNL1       -0.2670
     23 H          21.7983   71.3025    4.4302 H       1  UNL1        0.1734
     24 O          19.1344   69.8127   -4.7400 O.3     1  UNL1       -0.2703
     25 P          17.6285   70.3655   -4.8686 P.3     1  UNL1        0.2208
     26 O          16.7645   69.3128   -5.4470 O.2     1  UNL1       -0.5170
     27 O          17.0786   70.7685   -3.4093 O.3     1  UNL1       -0.4371
     28 O          17.6108   71.6606   -5.8238 O.3     1  UNL1       -0.2858
     29 C          17.4318   71.1884   -7.1597 C.3     1  UNL1        0.2704
     30 C          18.6956   71.4715   -7.9734 C.3     1  UNL1        0.1967
     31 C          18.9672   72.9790   -7.9643 C.3     1  UNL1        0.1715
     32 C          17.7063   73.7069   -8.4436 C.3     1  UNL1        0.1694
     33 C          16.5170   73.2554   -7.5922 C.3     1  UNL1        0.1761
     34 O          19.8033   70.7806   -7.3929 O.3     1  UNL1       -0.3775
     35 O          20.0576   73.2756   -8.8393 O.3     1  UNL1       -0.3794
     36 O          17.4649   73.3918   -9.8156 O.3     1  UNL1       -0.3794
     37 O          16.3168   71.8516   -7.7510 O.3     1  UNL1       -0.3258
     38 H          19.5861   69.8386   -7.4129 H       1  UNL1        0.2106
     39 H          20.8228   72.7891   -8.5078 H       1  UNL1        0.2105
     40 H          18.2396   73.6878  -10.3112 H       1  UNL1        0.2105
     41 C          15.2586   74.0022   -8.0402 C.3     1  UNL1        0.1693
     42 O          15.4585   75.4080   -7.8826 O.3     1  UNL1       -0.3794
     43 H          14.6450   75.8410   -8.1759 H       1  UNL1        0.2105
@<TRIPOS>BOND
     1    15    16   ar
     2    15    20   ar
     3    15     6    1
     4    16    17   ar
     5    16    21    2
     6    17    18   ar
     7    17    23    1
     8    18    19   ar
     9    18    22    2
    10    19    20   ar
    11     6     7    1
    12     6    11    1
    13     7     8    1
    14     7     9    1
    15     8    13    1
    16     9    10    1
    17     9    12    1
    18    10    11    1
    19    10     5    1
    20    12    14    1
    21     5     4    1
    22     4     1    1
    23     1     2    2
    24     1     3    1
    25     1    24    1
    26    24    25    1
    27    25    26    2
    28    25    27    1
    29    25    28    1
    30    28    29    1
    31    29    30    1
    32    29    37    1
    33    30    31    1
    34    30    34    1
    35    31    32    1
    36    31    35    1
    37    32    33    1
    38    32    36    1
    39    33    41    1
    40    33    37    1
    41    41    42    1
    42    34    38    1
    43    35    39    1
    44    36    40    1
    45    42    43    1
@<TRIPOS>MOLECULE
GDU
 43 45 0 0 0
SMALL
GASTEIGER

@<TRIPOS>ATOM
      1 P          22.7145   72.1473   -3.2803 P.3     1  UNL1        0.2189
      2 O          23.8144   73.1313   -3.3863 O.2     1  UNL1       -0.5170
      3 O          23.3308   70.6645   -3.1600 O.3     1  UNL1       -0.4371
      4 O          21.8304   72.4685   -1.9757 O.3     1  UNL1       -0.3112
      5 C          22.6002   73.3552   -1.1623 C.3     1  UNL1        0.1811
      6 C          22.5985   73.3951    2.4330 C.3     1  UNL1        0.2383
      7 C          21.1928   72.8664    2.0490 C.3     1  UNL1        0.1895
      8 O          20.6985   71.9646    3.0418 O.3     1  UNL1       -0.3779
      9 C          21.4778   72.1222    0.7186 C.3     1  UNL1        0.1713
     10 C          22.8001   72.7360    0.2222 C.3     1  UNL1        0.1764
     11 O          23.1816   73.7551    1.1626 O.3     1  UNL1       -0.3308
     12 O          21.6259   70.7202    0.9522 O.3     1  UNL1       -0.3794
     13 H          19.8251   71.6739    2.7444 H       1  UNL1        0.2106
     14 H          20.7870   70.4068    1.3164 H       1  UNL1        0.2105
     15 N          22.4911   74.5682    3.3021 N.ar    1  UNL1       -0.2551
     16 C          22.4650   74.4089    4.6371 C.ar    1  UNL1        0.3323
     17 N          22.3703   75.4710    5.4585 N.ar    1  UNL1       -0.2743
     18 C          22.2899   76.7168    4.9527 C.ar    1  UNL1        0.2626
     19 C          22.3104   76.8994    3.5482 C.ar    1  UNL1        0.0795
     20 C          22.4103   75.8171    2.7474 C.ar    1  UNL1        0.0869
     21 O          22.5372   73.2913    5.1080 O.2     1  UNL1       -0.2464
     22 O          22.1994   77.6785    5.6953 O.2     1  UNL1       -0.2670
     23 H          22.3572   75.3379    6.4197 H       1  UNL1        0.1734
     24 O          21.7874   72.2366   -4.5937 O.3     1  UNL1       -0.2703
     25 P          20.3471   71.6431   -4.1895 P.3     1  UNL1        0.2208
     26 O          20.5281   70.4515   -3.3314 O.2     1  UNL1       -0.5170
     27 O          19.5127   72.7614   -3.3850 O.3     1  UNL1       -0.4371
     28 O          19.5429   71.2298   -5.5209 O.3     1  UNL1       -0.2858
     29 C          18.3573   72.0254   -5.5533 C.3     1  UNL1        0.2704
     30 C          17.1307   71.1140   -5.4894 C.3     1  UNL1        0.1967
     31 C          17.1657   70.1469   -6.6768 C.3     1  UNL1        0.1715
     32 C          17.3069   70.9610   -7.9679 C.3     1  UNL1        0.1694
     33 C          18.5223   71.8832   -7.8444 C.3     1  UNL1        0.1761
     34 O          17.1471   70.3744   -4.2671 O.3     1  UNL1       -0.3775
     35 O          15.9548   69.3888   -6.7144 O.3     1  UNL1       -0.3794
     36 O          16.1280   71.7410   -8.1722 O.3     1  UNL1       -0.3794
     37 O          18.3316   72.7880   -6.7576 O.3     1  UNL1       -0.3258
     38 H          17.1314   71.0218   -3.5491 H       1  UNL1        0.2106
     39 H          15.9020   68.9041   -5.8809 H       1  UNL1        0.2105
     40 H          15.3901   71.1210   -8.2382 H       1  UNL1        0.2105
     41 C          18.6926   72.6762   -9.1421 C.3     1  UNL1        0.1693
     42 O          19.3129   71.8482  -10.1274 O.3     1  UNL1       -0.3794
     43 H          19.4011   72.3838  -10.9278 H       1  UNL1        0.2105
@<TRIPOS>BOND
     1    15    16   ar
     2    15    20   ar
     3    15     6    1
     4    16    17   ar
     5    16    21    2
     6    17    18   ar
     7    17    23    1
     8    18    19   ar
     9    18    22    2
    10    19    20   ar
    11     6     7    1
    12     6    11    1
    13     7     8    1
    14     7     9    1
    15     8    13    1
    16     9    10    1
    17     9    12    1
    18    10    11    1
    19    10     5    1
    20    12    14    1
    21     5     4    1
    22     4     1    1
    23     1     2    2
    24     1     3    1
    25     1    24    1
    26    24    25    1
    27    25    26    2
    28    25    27    1
    29    25    28    1
    30    28    29    1
    31    29    30    1
    32    29    37    1
    33    30    31    1
    34    30    34    1
    35    31    32    1
    36    31    35    1
    37    32    33    1
    38    32    36    1
    39    33    41    1
    40    33    37    1
    41    41    42    1
    42    34    38    1
    43    35    39    1
    44    36    40    1
    45    42    43    1
@<TRIPOS>MOLECULE
GDU
 43 45 0 0 0
SMALL
GASTEIGER

@<TRIPOS>ATOM
      1 P          17.9759   70.9227   -3.6558 P.3     1  UNL1        0.2189
      2 O          18.3120   72.2985   -3.2270 O.2     1  UNL1       -0.5170
      3 O          16.3952   70.6752   -3.4741 O.3     1  UNL1       -0.4371
      4 O          18.3751   70.7295   -5.2018 O.3     1  UNL1       -0.3112
      5 C          17.4232   69.8256   -5.7651 C.3     1  UNL1        0.1811
      6 C          16.1319   72.5085   -7.7806 C.3     1  UNL1        0.2383
      7 C          17.6446   72.4629   -8.1163 C.3     1  UNL1        0.1895
      8 O          17.8812   72.8832   -9.4619 O.3     1  UNL1       -0.3779
      9 C          17.9708   70.9567   -7.9419 C.3     1  UNL1        0.1713
     10 C          16.8372   70.4300   -7.0424 C.3     1  UNL1        0.1764
     11 O          15.9949   71.5478   -6.7120 O.3     1  UNL1       -0.3308
     12 O          17.9629   70.2940   -9.2079 O.3     1  UNL1       -0.3794
     13 H          18.8364   72.8323   -9.6061 H       1  UNL1        0.2106
     14 H          18.6530   70.7070   -9.7445 H       1  UNL1        0.2105
     15 N          15.7423   73.8444   -7.3262 N.ar    1  UNL1       -0.2551
     16 C          14.8224   74.5415   -8.0163 C.ar    1  UNL1        0.3323
     17 N          14.4439   75.7703   -7.6180 N.ar    1  UNL1       -0.2743
     18 C          14.9913   76.3281   -6.5210 C.ar    1  UNL1        0.2626
     19 C          15.9657   75.6079   -5.7875 C.ar    1  UNL1        0.0795
     20 C          16.3239   74.3756   -6.2066 C.ar    1  UNL1        0.0869
     21 O          14.3195   74.0512   -9.0076 O.2     1  UNL1       -0.2464
     22 O          14.6528   77.4423   -6.1624 O.2     1  UNL1       -0.2670
     23 H          13.7755   76.2574   -8.1256 H       1  UNL1        0.1734
     24 O          18.7903   69.8665   -2.7539 O.3     1  UNL1       -0.2703
     25 P          20.3086   70.3940   -2.6739 P.3     1  UNL1        0.2208
     26 O          21.2249   69.2404   -2.5378 O.2     1  UNL1       -0.5170
     27 O          20.6656   71.2067   -4.0178 O.3     1  UNL1       -0.4371
     28 O          20.4741   71.3651   -1.4012 O.3     1  UNL1       -0.2858
     29 C          21.8681   71.4130   -1.0942 C.3     1  UNL1        0.2704
     30 C          22.0829   71.0023    0.3633 C.3     1  UNL1        0.1967
     31 C          21.2964   71.9536    1.2705 C.3     1  UNL1        0.1715
     32 C          21.6958   73.3945    0.9331 C.3     1  UNL1        0.1694
     33 C          21.5082   73.6244   -0.5685 C.3     1  UNL1        0.1761
     34 O          21.6219   69.6639    0.5564 O.3     1  UNL1       -0.3775
     35 O          21.6029   71.6756    2.6384 O.3     1  UNL1       -0.3794
     36 O          23.0632   73.6066    1.2868 O.3     1  UNL1       -0.3794
     37 O          22.3531   72.7377   -1.3005 O.3     1  UNL1       -0.3258
     38 H          22.1382   69.1025   -0.0379 H       1  UNL1        0.2106
     39 H          21.3472   70.7589    2.8018 H       1  UNL1        0.2105
     40 H          23.1349   73.4456    2.2366 H       1  UNL1        0.2105
     41 C          21.8717   75.0711   -0.9105 C.3     1  UNL1        0.1693
     42 O          20.7270   75.9055   -0.7253 O.3     1  UNL1       -0.3794
     43 H          20.9979   76.8063   -0.9501 H       1  UNL1        0.2105
@<TRIPOS>BOND
     1    15    16   ar
     2    15    20   ar
     3    15     6    1
     4    16    17   ar
     5    16    21    2
     6    17    18   ar
     7    17    23    1
     8    18    19   ar
     9    18    22    2
    10    19    20   ar
    11     6     7    1
    12     6    11    1
    13     7     8    1
    14     7     9    1
    15     8    13    1
    16     9    10    1
    17     9    12    1
    18    10    11    1
    19    10     5    1
    20    12    14    1
    21     5     4    1
    22     4     1    1
    23     1     2    2
    24     1     3    1
    25     1    24    1
    26    24    25    1
    27    25    26    2
    28    25    27    1
    29    25    28    1
    30    28    29    1
    31    29    30    1
    32    29    37    1
    33    30    31    1
    34    30    34    1
    35    31    32    1
    36    31    35    1
    37    32    33    1
    38    32    36    1
    39    33    41    1
    40    33    37    1
    41    41    42    1
    42    34    38    1
    43    35    39    1
    44    36    40    1
    45    42    43    1
@<TRIPOS>MOLECULE
GDU
 43 45 0 0 0
SMALL
GASTEIGER

@<TRIPOS>ATOM
      1 P          21.4917   73.1654   -5.3233 P.3     1  UNL1        0.2189
      2 O          22.8445   72.8598   -5.8391 O.2     1  UNL1       -0.5170
      3 O          21.0954   74.6754   -5.7180 O.3     1  UNL1       -0.4371
      4 O          20.4281   72.1455   -5.9679 O.3     1  UNL1       -0.3112
      5 C          19.8178   71.4440   -4.8835 C.3     1  UNL1        0.1811
      6 C          16.7576   72.1490   -6.6342 C.3     1  UNL1        0.2383
      7 C          17.0536   70.6609   -6.9518 C.3     1  UNL1        0.1895
      8 O          15.8406   69.9297   -7.1448 O.3     1  UNL1       -0.3779
      9 C          17.7828   70.1930   -5.6655 C.3     1  UNL1        0.1713
     10 C          18.2961   71.4987   -5.0304 C.3     1  UNL1        0.1764
     11 O          17.9285   72.5777   -5.9072 O.3     1  UNL1       -0.3308
     12 O          16.8718   69.5269   -4.7890 O.3     1  UNL1       -0.3794
     13 H          16.0935   69.0161   -7.3381 H       1  UNL1        0.2106
     14 H          16.5412   68.7527   -5.2644 H       1  UNL1        0.2105
     15 N          16.6052   72.9216   -7.8682 N.ar    1  UNL1       -0.2551
     16 C          17.6175   72.9734   -8.7519 C.ar    1  UNL1        0.3323
     17 N          17.5018   73.6736   -9.8957 N.ar    1  UNL1       -0.2743
     18 C          16.3670   74.3454  -10.1699 C.ar    1  UNL1        0.2626
     19 C          15.2945   74.3046   -9.2456 C.ar    1  UNL1        0.0795
     20 C          15.4355   73.5912   -8.1082 C.ar    1  UNL1        0.0869
     21 O          18.6471   72.3722   -8.5185 O.2     1  UNL1       -0.2464
     22 O          16.2631   74.9834  -11.2027 O.2     1  UNL1       -0.2670
     23 H          18.2409   73.6966  -10.5241 H       1  UNL1        0.1734
     24 O          21.4819   73.0110   -3.7206 O.3     1  UNL1       -0.2703
     25 P          22.9238   73.4965   -3.1962 P.3     1  UNL1        0.2208
     26 O          23.9848   72.7677   -3.9257 O.2     1  UNL1       -0.5170
     27 O          23.0843   75.0780   -3.4556 O.3     1  UNL1       -0.4371
     28 O          23.0518   73.1968   -1.6202 O.3     1  UNL1       -0.2858
     29 C          21.7310   73.2488   -1.0794 C.3     1  UNL1        0.2704
     30 C          21.7114   74.1893    0.1266 C.3     1  UNL1        0.1967
     31 C          22.7050   73.6777    1.1741 C.3     1  UNL1        0.1715
     32 C          22.3790   72.2124    1.4843 C.3     1  UNL1        0.1694
     33 C          22.3500   71.4209    0.1745 C.3     1  UNL1        0.1761
     34 O          22.0842   75.5052   -0.2865 O.3     1  UNL1       -0.3775
     35 O          22.5923   74.4597    2.3651 O.3     1  UNL1       -0.3794
     36 O          21.1052   72.1317    2.1253 O.3     1  UNL1       -0.3794
     37 O          21.3313   71.9401   -0.6792 O.3     1  UNL1       -0.3258
     38 H          21.4374   75.7833   -0.9492 H       1  UNL1        0.2106
     39 H          22.7933   75.3720    2.1209 H       1  UNL1        0.2105
     40 H          21.1685   72.6475    2.9397 H       1  UNL1        0.2105
     41 C          22.0590   69.9491    0.4764 C.3     1  UNL1        0.1693
     42 O          23.2044   69.1609    0.1480 O.3     1  UNL1       -0.3794
     43 H          22.9804   68.2427    0.3531 H       1  UNL1        0.2105
@<TRIPOS>BOND
     1    15    16   ar
     2    15    20   ar
     3    15     6    1
     4    16    17   ar
     5    16    21    2
     6    17    18   ar
     7    17    23    1
     8    18    19   ar
     9    18    22    2
    10    19    20   ar
    11     6     7    1
    12     6    11    1
    13     7     8    1
    14     7     9    1
    15     8    13    1
    16     9    10    1
    17     9    12    1
    18    10    11    1
    19    10     5    1
    20    12    14    1
    21     5     4    1
    22     4     1    1
    23     1     2    2
    24     1     3    1
    25     1    24    1
    26    24    25    1
    27    25    26    2
    28    25    27    1
    29    25    28    1
    30    28    29    1
    31    29    30    1
    32    29    37    1
    33    30    31    1
    34    30    34    1
    35    31    32    1
    36    31    35    1
    37    32    33    1
    38    32    36    1
    39    33    41    1
    40    33    37    1
    41    41    42    1
    42    34    38    1
    43    35    39    1
    44    36    40    1
    45    42    43    1
