@<TRIPOS>MOLECULE
GDU
 43 45 0 0 0
SMALL
GASTEIGER

@<TRIPOS>ATOM
      1 P          22.0942   70.8617   -2.4307 P.3     1  UNL1        0.2189
      2 O          21.4945   69.5988   -1.9457 O.2     1  UNL1       -0.5170
      3 O          23.5070   70.5483   -3.1369 O.3     1  UNL1       -0.4371
      4 O          21.1045   71.5527   -3.4936 O.3     1  UNL1       -0.3112
      5 C          20.1293   72.2763   -2.7413 C.3     1  UNL1        0.1811
      6 C          17.8996   71.3515   -5.4061 C.3     1  UNL1        0.2383
      7 C          17.9779   70.0899   -4.5088 C.3     1  UNL1        0.1895
      8 O          16.7531   69.3545   -4.5550 O.3     1  UNL1       -0.3779
      9 C          18.2012   70.7048   -3.1026 C.3     1  UNL1        0.1713
     10 C          18.7551   72.1120   -3.3930 C.3     1  UNL1        0.1764
     11 O          18.8727   72.2424   -4.8204 O.3     1  UNL1       -0.3308
     12 O          16.9652   70.7836   -2.3898 O.3     1  UNL1       -0.3794
     13 H          16.8674   68.5859   -3.9788 H       1  UNL1        0.2106
     14 H          16.6405   69.8783   -2.2912 H       1  UNL1        0.2105
     15 N          18.2618   71.0282   -6.7871 N.ar    1  UNL1       -0.2551
     16 C          17.2980   70.7369   -7.6784 C.ar    1  UNL1        0.3323
     17 N          17.6038   70.4396   -8.9552 N.ar    1  UNL1       -0.2743
     18 C          18.8884   70.4196   -9.3597 C.ar    1  UNL1        0.2626
     19 C          19.9146   70.7187   -8.4303 C.ar    1  UNL1        0.0795
     20 C          19.5798   71.0176   -7.1571 C.ar    1  UNL1        0.0869
     21 O          16.1347   70.7514   -7.3284 O.2     1  UNL1       -0.2464
     22 O          19.1665   70.1460  -10.5139 O.2     1  UNL1       -0.2670
     23 H          16.8952   70.2361   -9.5861 H       1  UNL1        0.1734
     24 O          22.3268   71.8567   -1.1864 O.3     1  UNL1       -0.2703
     25 P          22.5189   70.9349    0.1187 P.3     1  UNL1        0.2208
     26 O          21.2521   70.2305    0.4157 O.2     1  UNL1       -0.5170
     27 O          23.6818   69.8544   -0.1542 O.3     1  UNL1       -0.4371
     28 O          22.9282   71.8568    1.3727 O.3     1  UNL1       -0.2858
     29 C          22.0171   72.9564    1.3943 C.3     1  UNL1        0.2704
     30 C          22.7804   74.2553    1.1307 C.3     1  UNL1        0.1967
     31 C          23.8597   74.4260    2.2042 C.3     1  UNL1        0.1715
     32 C          23.1988   74.3263    3.5837 C.3     1  UNL1        0.1694
     33 C          22.4048   73.0200    3.6619 C.3     1  UNL1        0.1761
     34 O          23.3914   74.1980   -0.1595 O.3     1  UNL1       -0.3775
     35 O          24.4833   75.7038    2.0591 O.3     1  UNL1       -0.3794
     36 O          22.3210   75.4368    3.7744 O.3     1  UNL1       -0.3794
     37 O          21.3806   73.0190    2.6685 O.3     1  UNL1       -0.3258
     38 H          22.6775   74.0832   -0.8015 H       1  UNL1        0.2106
     39 H          24.8736   75.7261    1.1763 H       1  UNL1        0.2105
     40 H          22.8617   76.2349    3.7114 H       1  UNL1        0.2105
     41 C          21.7686   72.8941    5.0481 C.3     1  UNL1        0.1693
     42 O          20.4089   73.3283    4.9884 O.3     1  UNL1       -0.3794
     43 H          20.0452   73.2326    5.8794 H       1  UNL1        0.2105
@<TRIPOS>BOND
     1    15    16   ar
     2    15    20   ar
     3    15     6    1
     4    16    17   ar
     5    16    21    2
     6    17    18   ar
     7    17    23    1
     8    18    19   ar
     9    18    22    2
    10    19    20   ar
    11     6     7    1
    12     6    11    1
    13     7     8    1
    14     7     9    1
    15     8    13    1
    16     9    10    1
    17     9    12    1
    18    10    11    1
    19    10     5    1
    20    12    14    1
    21     5     4    1
    22     4     1    1
    23     1     2    2
    24     1     3    1
    25     1    24    1
    26    24    25    1
    27    25    26    2
    28    25    27    1
    29    25    28    1
    30    28    29    1
    31    29    30    1
    32    29    37    1
    33    30    31    1
    34    30    34    1
    35    31    32    1
    36    31    35    1
    37    32    33    1
    38    32    36    1
    39    33    41    1
    40    33    37    1
    41    41    42    1
    42    34    38    1
    43    35    39    1
    44    36    40    1
    45    42    43    1
@<TRIPOS>MOLECULE
GDU
 43 45 0 0 0
SMALL
GASTEIGER

@<TRIPOS>ATOM
      1 P          22.4725   71.8765   -3.4052 P.3     1  UNL1        0.2189
      2 O          23.5455   70.8891   -3.1539 O.2     1  UNL1       -0.5170
      3 O          22.5753   72.4061   -4.9224 O.3     1  UNL1       -0.4371
      4 O          21.0397   71.1830   -3.1748 O.3     1  UNL1       -0.3112
      5 C          20.1771   72.1852   -2.6344 C.3     1  UNL1        0.1811
      6 C          17.9256   71.3939   -5.3236 C.3     1  UNL1        0.2383
      7 C          17.9511   70.1147   -4.4484 C.3     1  UNL1        0.1895
      8 O          16.6991   69.4281   -4.5123 O.3     1  UNL1       -0.3779
      9 C          18.1915   70.6958   -3.0307 C.3     1  UNL1        0.1713
     10 C          18.8006   72.0855   -3.2942 C.3     1  UNL1        0.1764
     11 O          18.9296   72.2362   -4.7186 O.3     1  UNL1       -0.3308
     12 O          16.9563   70.8099   -2.3215 O.3     1  UNL1       -0.3794
     13 H          16.7811   68.6456   -3.9493 H       1  UNL1        0.2106
     14 H          16.5965   69.9162   -2.2401 H       1  UNL1        0.2105
     15 N          18.2813   71.0810   -6.7087 N.ar    1  UNL1       -0.2551
     16 C          17.3143   70.7836   -7.5946 C.ar    1  UNL1        0.3323
     17 N          17.6141   70.4956   -8.8749 N.ar    1  UNL1       -0.2743
     18 C          18.8959   70.4913   -9.2886 C.ar    1  UNL1        0.2626
     19 C          19.9254   70.7970   -8.3651 C.ar    1  UNL1        0.0795
     20 C          19.5966   71.0863   -7.0881 C.ar    1  UNL1        0.0869
     21 O          16.1534   70.7840   -7.2362 O.2     1  UNL1       -0.2464
     22 O          19.1687   70.2261  -10.4461 O.2     1  UNL1       -0.2670
     23 H          16.9032   70.2875   -9.5017 H       1  UNL1        0.1734
     24 O          22.6386   73.1174   -2.3927 O.3     1  UNL1       -0.2703
     25 P          23.4146   74.2753   -3.1971 P.3     1  UNL1        0.2208
     26 O          23.8199   75.3427   -2.2560 O.2     1  UNL1       -0.5170
     27 O          24.7241   73.6548   -3.9002 O.3     1  UNL1       -0.4371
     28 O          22.4435   74.8914   -4.3229 O.3     1  UNL1       -0.2858
     29 C          23.2108   75.8486   -5.0541 C.3     1  UNL1        0.2704
     30 C          22.4369   77.1653   -5.1371 C.3     1  UNL1        0.1967
     31 C          21.0922   76.9107   -5.8252 C.3     1  UNL1        0.1715
     32 C          21.3522   76.2210   -7.1692 C.3     1  UNL1        0.1694
     33 C          22.2074   74.9739   -6.9315 C.3     1  UNL1        0.1761
     34 O          22.2140   77.6733   -3.8205 O.3     1  UNL1       -0.3775
     35 O          20.4211   78.1536   -6.0425 O.3     1  UNL1       -0.3794
     36 O          22.0399   77.1187   -8.0417 O.3     1  UNL1       -0.3794
     37 O          23.4621   75.3512   -6.3664 O.3     1  UNL1       -0.3258
     38 H          23.0848   77.8115   -3.4237 H       1  UNL1        0.2106
     39 H          20.2896   78.5561   -5.1747 H       1  UNL1        0.2105
     40 H          21.4685   77.8889   -8.1577 H       1  UNL1        0.2105
     41 C          22.4443   74.2586   -8.2635 C.3     1  UNL1        0.1693
     42 O          22.8057   72.8989   -8.0153 O.3     1  UNL1       -0.3794
     43 H          22.9451   72.4844   -8.8779 H       1  UNL1        0.2105
@<TRIPOS>BOND
     1    15    16   ar
     2    15    20   ar
     3    15     6    1
     4    16    17   ar
     5    16    21    2
     6    17    18   ar
     7    17    23    1
     8    18    19   ar
     9    18    22    2
    10    19    20   ar
    11     6     7    1
    12     6    11    1
    13     7     8    1
    14     7     9    1
    15     8    13    1
    16     9    10    1
    17     9    12    1
    18    10    11    1
    19    10     5    1
    20    12    14    1
    21     5     4    1
    22     4     1    1
    23     1     2    2
    24     1     3    1
    25     1    24    1
    26    24    25    1
    27    25    26    2
    28    25    27    1
    29    25    28    1
    30    28    29    1
    31    29    30    1
    32    29    37    1
    33    30    31    1
    34    30    34    1
    35    31    32    1
    36    31    35    1
    37    32    33    1
    38    32    36    1
    39    33    41    1
    40    33    37    1
    41    41    42    1
    42    34    38    1
    43    35    39    1
    44    36    40    1
    45    42    43    1
@<TRIPOS>MOLECULE
GDU
 43 45 0 0 0
SMALL
GASTEIGER

@<TRIPOS>ATOM
      1 P          22.3494   71.7718   -3.2649 P.3     1  UNL1        0.2189
      2 O          23.3380   70.6752   -3.1676 O.2     1  UNL1       -0.5170
      3 O          22.3234   72.3386   -4.7719 O.3     1  UNL1       -0.4371
      4 O          20.8911   71.2163   -2.8754 O.3     1  UNL1       -0.3112
      5 C          20.0757   72.3553   -2.5952 C.3     1  UNL1        0.1811
      6 C          17.8781   71.4152   -5.2810 C.3     1  UNL1        0.2383
      7 C          17.9550   70.1548   -4.3819 C.3     1  UNL1        0.1895
      8 O          16.7351   69.4121   -4.4396 O.3     1  UNL1       -0.3779
      9 C          18.1607   70.7720   -2.9741 C.3     1  UNL1        0.1713
     10 C          18.7090   72.1824   -3.2603 C.3     1  UNL1        0.1764
     11 O          18.8400   72.3123   -4.6865 O.3     1  UNL1       -0.3308
     12 O          16.9173   70.8441   -2.2736 O.3     1  UNL1       -0.3794
     13 H          16.8483   68.6446   -3.8617 H       1  UNL1        0.2106
     14 H          16.5970   69.9369   -2.1775 H       1  UNL1        0.2105
     15 N          18.2557   71.0930   -6.6581 N.ar    1  UNL1       -0.2551
     16 C          17.3040   70.7773   -7.5541 C.ar    1  UNL1        0.3323
     17 N          17.6242   70.4804   -8.8274 N.ar    1  UNL1       -0.2743
     18 C          18.9115   70.4854   -9.2237 C.ar    1  UNL1        0.2626
     19 C          19.9251   70.8105   -8.2893 C.ar    1  UNL1        0.0795
     20 C          19.5760   71.1083   -7.0197 C.ar    1  UNL1        0.0869
     21 O          16.1384   70.7690   -7.2114 O.2     1  UNL1       -0.2464
     22 O          19.2026   70.2122  -10.3748 O.2     1  UNL1       -0.2670
     23 H          16.9240   70.2590   -9.4618 H       1  UNL1        0.1734
     24 O          22.7615   72.9559   -2.2547 O.3     1  UNL1       -0.2703
     25 P          23.6997   73.9691   -3.0813 P.3     1  UNL1        0.2208
     26 O          24.3213   73.2510   -4.2158 O.2     1  UNL1       -0.5170
     27 O          22.8091   75.1884   -3.6419 O.3     1  UNL1       -0.4371
     28 O          24.8501   74.5463   -2.1152 O.3     1  UNL1       -0.2858
     29 C          25.2350   75.8170   -2.6414 C.3     1  UNL1        0.2704
     30 C          26.6771   75.7435   -3.1457 C.3     1  UNL1        0.1967
     31 C          27.5912   75.3394   -1.9849 C.3     1  UNL1        0.1715
     32 C          27.3568   76.3048   -0.8176 C.3     1  UNL1        0.1694
     33 C          25.8622   76.3342   -0.4884 C.3     1  UNL1        0.1761
     34 O          26.7701   74.7732   -4.1902 O.3     1  UNL1       -0.3775
     35 O          28.9564   75.4092   -2.4020 O.3     1  UNL1       -0.3794
     36 O          27.7960   77.6135   -1.1842 O.3     1  UNL1       -0.3794
     37 O          25.1295   76.8047   -1.6187 O.3     1  UNL1       -0.3258
     38 H          26.1746   75.0635   -4.8945 H       1  UNL1        0.2106
     39 H          29.0544   74.7973   -3.1425 H       1  UNL1        0.2105
     40 H          28.7379   77.5458   -1.3878 H       1  UNL1        0.2105
     41 C          25.6214   77.2694    0.6987 C.3     1  UNL1        0.1693
     42 O          25.7097   76.5259    1.9154 O.3     1  UNL1       -0.3794
     43 H          25.5531   77.1504    2.6371 H       1  UNL1        0.2105
@<TRIPOS>BOND
     1    15    16   ar
     2    15    20   ar
     3    15     6    1
     4    16    17   ar
     5    16    21    2
     6    17    18   ar
     7    17    23    1
     8    18    19   ar
     9    18    22    2
    10    19    20   ar
    11     6     7    1
    12     6    11    1
    13     7     8    1
    14     7     9    1
    15     8    13    1
    16     9    10    1
    17     9    12    1
    18    10    11    1
    19    10     5    1
    20    12    14    1
    21     5     4    1
    22     4     1    1
    23     1     2    2
    24     1     3    1
    25     1    24    1
    26    24    25    1
    27    25    26    2
    28    25    27    1
    29    25    28    1
    30    28    29    1
    31    29    30    1
    32    29    37    1
    33    30    31    1
    34    30    34    1
    35    31    32    1
    36    31    35    1
    37    32    33    1
    38    32    36    1
    39    33    41    1
    40    33    37    1
    41    41    42    1
    42    34    38    1
    43    35    39    1
    44    36    40    1
    45    42    43    1
@<TRIPOS>MOLECULE
GDU
 43 45 0 0 0
SMALL
GASTEIGER

@<TRIPOS>ATOM
      1 P          21.5517   70.6465   -0.4631 P.3     1  UNL1        0.2189
      2 O          21.6964   69.5570    0.5277 O.2     1  UNL1       -0.5170
      3 O          22.9822   70.9536   -1.1356 O.3     1  UNL1       -0.4371
      4 O          20.5076   70.2012   -1.6025 O.3     1  UNL1       -0.3112
      5 C          20.6144   71.1575   -2.6582 C.3     1  UNL1        0.1811
      6 C          18.1891   71.1127   -5.3121 C.3     1  UNL1        0.2383
      7 C          17.9700   69.7738   -4.5622 C.3     1  UNL1        0.1895
      8 O          16.6023   69.3653   -4.6370 O.3     1  UNL1       -0.3779
      9 C          18.3564   70.1491   -3.1078 C.3     1  UNL1        0.1713
     10 C          19.2326   71.4057   -3.2657 C.3     1  UNL1        0.1764
     11 O          19.3582   71.6690   -4.6739 O.3     1  UNL1       -0.3308
     12 O          17.1872   70.4396   -2.3394 O.3     1  UNL1       -0.3794
     13 H          16.5339   68.5301   -4.1537 H       1  UNL1        0.2106
     14 H          16.6529   69.6339   -2.3269 H       1  UNL1        0.2105
     15 N          18.4418   70.8746   -6.7341 N.ar    1  UNL1       -0.2551
     16 C          17.4069   70.7477   -7.5833 C.ar    1  UNL1        0.3323
     17 N          17.6119   70.5318   -8.8960 N.ar    1  UNL1       -0.2743
     18 C          18.8644   70.4291   -9.3807 C.ar    1  UNL1        0.2626
     19 C          19.9642   70.5550   -8.4971 C.ar    1  UNL1        0.0795
     20 C          19.7303   70.7755   -7.1859 C.ar    1  UNL1        0.0869
     21 O          16.2714   70.8384   -7.1608 O.2     1  UNL1       -0.2464
     22 O          19.0509   70.2290  -10.5680 O.2     1  UNL1       -0.2670
     23 H          16.8533   70.4470   -9.4952 H       1  UNL1        0.1734
     24 O          21.0110   71.9721    0.2737 O.3     1  UNL1       -0.2703
     25 P          22.2629   72.9743    0.4091 P.3     1  UNL1        0.2208
     26 O          23.5230   72.2079    0.2908 O.2     1  UNL1       -0.5170
     27 O          22.1951   74.0786   -0.7614 O.3     1  UNL1       -0.4371
     28 O          22.2121   73.7077    1.8407 O.3     1  UNL1       -0.2858
     29 C          22.6981   72.7718    2.8039 C.3     1  UNL1        0.2704
     30 C          21.5850   72.4417    3.7996 C.3     1  UNL1        0.1967
     31 C          21.1285   73.7340    4.4837 C.3     1  UNL1        0.1715
     32 C          22.3550   74.4305    5.0838 C.3     1  UNL1        0.1694
     33 C          23.4096   74.6117    3.9893 C.3     1  UNL1        0.1761
     34 O          20.4840   71.8498    3.1078 O.3     1  UNL1       -0.3775
     35 O          20.1942   73.4245    5.5199 O.3     1  UNL1       -0.3794
     36 O          22.8886   73.6316    6.1407 O.3     1  UNL1       -0.3794
     37 O          23.8118   73.3360    3.4924 O.3     1  UNL1       -0.3258
     38 H          20.8182   71.0457    2.6877 H       1  UNL1        0.2106
     39 H          19.4478   72.9788    5.0998 H       1  UNL1        0.2105
     40 H          22.1903   73.5396    6.8019 H       1  UNL1        0.2105
     41 C          24.6254   75.3373    4.5701 C.3     1  UNL1        0.1693
     42 O          25.5247   74.3815    5.1346 O.3     1  UNL1       -0.3794
     43 H          26.2755   74.8783    5.4880 H       1  UNL1        0.2105
@<TRIPOS>BOND
     1    15    16   ar
     2    15    20   ar
     3    15     6    1
     4    16    17   ar
     5    16    21    2
     6    17    18   ar
     7    17    23    1
     8    18    19   ar
     9    18    22    2
    10    19    20   ar
    11     6     7    1
    12     6    11    1
    13     7     8    1
    14     7     9    1
    15     8    13    1
    16     9    10    1
    17     9    12    1
    18    10    11    1
    19    10     5    1
    20    12    14    1
    21     5     4    1
    22     4     1    1
    23     1     2    2
    24     1     3    1
    25     1    24    1
    26    24    25    1
    27    25    26    2
    28    25    27    1
    29    25    28    1
    30    28    29    1
    31    29    30    1
    32    29    37    1
    33    30    31    1
    34    30    34    1
    35    31    32    1
    36    31    35    1
    37    32    33    1
    38    32    36    1
    39    33    41    1
    40    33    37    1
    41    41    42    1
    42    34    38    1
    43    35    39    1
    44    36    40    1
    45    42    43    1
@<TRIPOS>MOLECULE
GDU
 43 45 0 0 0
SMALL
GASTEIGER

@<TRIPOS>ATOM
      1 P          22.3572   73.5003   -3.8181 P.3     1  UNL1        0.2189
      2 O          22.8290   74.8771   -4.0852 O.2     1  UNL1       -0.5170
      3 O          23.6223   72.5087   -3.7222 O.3     1  UNL1       -0.4371
      4 O          21.5456   73.4705   -2.4299 O.3     1  UNL1       -0.3112
      5 C          22.3588   74.1341   -1.4609 C.3     1  UNL1        0.1811
      6 C          23.0816   72.4302    1.6216 C.3     1  UNL1        0.2383
      7 C          21.9706   71.5777    0.9570 C.3     1  UNL1        0.1895
      8 O          22.1059   70.1991    1.3098 O.3     1  UNL1       -0.3779
      9 C          22.2550   71.7929   -0.5523 C.3     1  UNL1        0.1713
     10 C          23.0756   73.0953   -0.5966 C.3     1  UNL1        0.1764
     11 O          23.1903   73.5781    0.7532 O.3     1  UNL1       -0.3308
     12 O          23.0098   70.6999   -1.0793 O.3     1  UNL1       -0.3794
     13 H          21.3880   69.7260    0.8664 H       1  UNL1        0.2106
     14 H          22.4681   69.9067   -0.9695 H       1  UNL1        0.2105
     15 N          22.6841   72.8392    2.9697 N.ar    1  UNL1       -0.2551
     16 C          21.4327   72.5969    3.3983 C.ar    1  UNL1        0.3323
     17 N          21.0428   72.9594    4.6346 N.ar    1  UNL1       -0.2743
     18 C          21.9023   73.5832    5.4631 C.ar    1  UNL1        0.2626
     19 C          23.2220   73.8501    5.0231 C.ar    1  UNL1        0.0795
     20 C          23.5881   73.4720    3.7800 C.ar    1  UNL1        0.0869
     21 O          20.6464   72.0346    2.6624 O.2     1  UNL1       -0.2464
     22 O          21.5489   73.9160    6.5806 O.2     1  UNL1       -0.2670
     23 H          20.1371   72.7728    4.9289 H       1  UNL1        0.1734
     24 O          21.3925   73.0229   -5.0156 O.3     1  UNL1       -0.2703
     25 P          20.4119   71.9018   -4.4060 P.3     1  UNL1        0.2208
     26 O          21.2150   70.8579   -3.7321 O.2     1  UNL1       -0.5170
     27 O          19.4153   72.5832   -3.3398 O.3     1  UNL1       -0.4371
     28 O          19.5524   71.2363   -5.5928 O.3     1  UNL1       -0.2858
     29 C          18.3864   72.0432   -5.7636 C.3     1  UNL1        0.2704
     30 C          17.1389   71.1653   -5.6524 C.3     1  UNL1        0.1967
     31 C          17.2016   70.0719   -6.7234 C.3     1  UNL1        0.1715
     32 C          17.4128   70.7352   -8.0891 C.3     1  UNL1        0.1694
     33 C          18.6417   71.6449   -8.0159 C.3     1  UNL1        0.1761
     34 O          17.0896   70.5658   -4.3565 O.3     1  UNL1       -0.3775
     35 O          15.9773   69.3348   -6.7292 O.3     1  UNL1       -0.3794
     36 O          16.2603   71.5074   -8.4286 O.3     1  UNL1       -0.3794
     37 O          18.4263   72.6677   -7.0446 O.3     1  UNL1       -0.3258
     38 H          17.0584   71.2890   -3.7155 H       1  UNL1        0.2106
     39 H          15.8802   68.9465   -5.8504 H       1  UNL1        0.2105
     40 H          15.5125   70.8964   -8.4574 H       1  UNL1        0.2105
     41 C          18.8818   72.2859   -9.3846 C.3     1  UNL1        0.1693
     42 O          18.7234   71.2996  -10.4059 O.3     1  UNL1       -0.3794
     43 H          18.8819   71.7434  -11.2505 H       1  UNL1        0.2105
@<TRIPOS>BOND
     1    15    16   ar
     2    15    20   ar
     3    15     6    1
     4    16    17   ar
     5    16    21    2
     6    17    18   ar
     7    17    23    1
     8    18    19   ar
     9    18    22    2
    10    19    20   ar
    11     6     7    1
    12     6    11    1
    13     7     8    1
    14     7     9    1
    15     8    13    1
    16     9    10    1
    17     9    12    1
    18    10    11    1
    19    10     5    1
    20    12    14    1
    21     5     4    1
    22     4     1    1
    23     1     2    2
    24     1     3    1
    25     1    24    1
    26    24    25    1
    27    25    26    2
    28    25    27    1
    29    25    28    1
    30    28    29    1
    31    29    30    1
    32    29    37    1
    33    30    31    1
    34    30    34    1
    35    31    32    1
    36    31    35    1
    37    32    33    1
    38    32    36    1
    39    33    41    1
    40    33    37    1
    41    41    42    1
    42    34    38    1
    43    35    39    1
    44    36    40    1
    45    42    43    1
@<TRIPOS>MOLECULE
GDU
 43 45 0 0 0
SMALL
GASTEIGER

@<TRIPOS>ATOM
      1 P          22.1271   73.9699   -6.8282 P.3     1  UNL1        0.2189
      2 O          22.8934   72.7324   -7.0943 O.2     1  UNL1       -0.5170
      3 O          23.1392   75.2193   -6.7402 O.3     1  UNL1       -0.4371
      4 O          21.0735   74.2156   -8.0183 O.3     1  UNL1       -0.3112
      5 C          21.3156   73.2067   -9.0001 C.3     1  UNL1        0.1811
      6 C          18.6114   71.2199   -7.7090 C.3     1  UNL1        0.2383
      7 C          17.9985   72.6301   -7.9063 C.3     1  UNL1        0.1895
      8 O          16.6067   72.5419   -8.2198 O.3     1  UNL1       -0.3779
      9 C          18.8051   73.1684   -9.1166 C.3     1  UNL1        0.1713
     10 C          20.0832   72.3094   -9.1265 C.3     1  UNL1        0.1764
     11 O          20.0111   71.4171   -8.0010 O.3     1  UNL1       -0.3308
     12 O          18.0666   72.9926  -10.3272 O.3     1  UNL1       -0.3794
     13 H          16.2875   73.4485   -8.3293 H       1  UNL1        0.2106
     14 H          17.2526   73.5062  -10.2359 H       1  UNL1        0.2105
     15 N          18.4313   70.7653   -6.3293 N.ar    1  UNL1       -0.2551
     16 C          17.3048   70.1184   -5.9819 C.ar    1  UNL1        0.3323
     17 N          17.1159   69.6869   -4.7210 N.ar    1  UNL1       -0.2743
     18 C          18.0538   69.9063   -3.7795 C.ar    1  UNL1        0.2626
     19 C          19.2430   70.5915   -4.1296 C.ar    1  UNL1        0.0795
     20 C          19.4087   71.0098   -5.4024 C.ar    1  UNL1        0.0869
     21 O          16.4499   69.9127   -6.8204 O.2     1  UNL1       -0.2464
     22 O          17.8817   69.5203   -2.6368 O.2     1  UNL1       -0.2670
     23 H          16.2986   69.2179   -4.4889 H       1  UNL1        0.1734
     24 O          21.3376   73.8214   -5.4328 O.3     1  UNL1       -0.2703
     25 P          22.4510   73.6808   -4.2793 P.3     1  UNL1        0.2208
     26 O          23.4986   72.7328   -4.7183 O.2     1  UNL1       -0.5170
     27 O          23.1152   75.1206   -3.9965 O.3     1  UNL1       -0.4371
     28 O          21.7625   73.1347   -2.9311 O.3     1  UNL1       -0.2858
     29 C          22.8197   72.7413   -2.0552 C.3     1  UNL1        0.2704
     30 C          22.6181   71.2843   -1.6358 C.3     1  UNL1        0.1967
     31 C          21.2603   71.1492   -0.9396 C.3     1  UNL1        0.1715
     32 C          21.1903   72.1717    0.2003 C.3     1  UNL1        0.1694
     33 C          21.4985   73.5628   -0.3593 C.3     1  UNL1        0.1761
     34 O          22.6507   70.4448   -2.7914 O.3     1  UNL1       -0.3775
     35 O          21.1206   69.8283   -0.4122 O.3     1  UNL1       -0.3794
     36 O          22.1468   71.8330    1.2054 O.3     1  UNL1       -0.3794
     37 O          22.8175   73.5814   -0.9033 O.3     1  UNL1       -0.3258
     38 H          23.5181   70.5672   -3.2007 H       1  UNL1        0.2106
     39 H          21.1826   69.2205   -1.1598 H       1  UNL1        0.2105
     40 H          21.9175   70.9502    1.5238 H       1  UNL1        0.2105
     41 C          21.3975   74.5965    0.7646 C.3     1  UNL1        0.1693
     42 O          22.2204   74.1904    1.8596 O.3     1  UNL1       -0.3794
     43 H          22.1292   74.8672    2.5443 H       1  UNL1        0.2105
@<TRIPOS>BOND
     1    15    16   ar
     2    15    20   ar
     3    15     6    1
     4    16    17   ar
     5    16    21    2
     6    17    18   ar
     7    17    23    1
     8    18    19   ar
     9    18    22    2
    10    19    20   ar
    11     6     7    1
    12     6    11    1
    13     7     8    1
    14     7     9    1
    15     8    13    1
    16     9    10    1
    17     9    12    1
    18    10    11    1
    19    10     5    1
    20    12    14    1
    21     5     4    1
    22     4     1    1
    23     1     2    2
    24     1     3    1
    25     1    24    1
    26    24    25    1
    27    25    26    2
    28    25    27    1
    29    25    28    1
    30    28    29    1
    31    29    30    1
    32    29    37    1
    33    30    31    1
    34    30    34    1
    35    31    32    1
    36    31    35    1
    37    32    33    1
    38    32    36    1
    39    33    41    1
    40    33    37    1
    41    41    42    1
    42    34    38    1
    43    35    39    1
    44    36    40    1
    45    42    43    1
@<TRIPOS>MOLECULE
GDU
 43 45 0 0 0
SMALL
GASTEIGER

@<TRIPOS>ATOM
      1 P          22.0789   70.3494   -0.1603 P.3     1  UNL1        0.2189
      2 O          22.9944   71.4007   -0.6564 O.2     1  UNL1       -0.5170
      3 O          22.9272   69.0340    0.2183 O.3     1  UNL1       -0.4371
      4 O          21.3052   70.8830    1.1449 O.3     1  UNL1       -0.3112
      5 C          21.6334   72.2664    1.2837 C.3     1  UNL1        0.1811
      6 C          23.5736   73.9522    3.7978 C.3     1  UNL1        0.2383
      7 C          22.2517   74.7582    3.7210 C.3     1  UNL1        0.1895
      8 O          21.9302   75.3324    4.9899 O.3     1  UNL1       -0.3779
      9 C          21.2250   73.6623    3.3336 C.3     1  UNL1        0.1713
     10 C          22.0860   72.5435    2.7184 C.3     1  UNL1        0.1764
     11 O          23.4501   72.9991    2.7208 O.3     1  UNL1       -0.3308
     12 O          20.5353   73.1916    4.4932 O.3     1  UNL1       -0.3794
     13 H          21.1016   75.8181    4.8743 H       1  UNL1        0.2106
     14 H          20.0639   73.9492    4.8655 H       1  UNL1        0.2105
     15 N          24.7271   74.8273    3.5823 N.ar    1  UNL1       -0.2551
     16 C          24.9507   75.3477    2.3626 C.ar    1  UNL1        0.3323
     17 N          26.0020   76.1580    2.1387 N.ar    1  UNL1       -0.2743
     18 C          26.8571   76.4540    3.1364 C.ar    1  UNL1        0.2626
     19 C          26.6373   75.9084    4.4249 C.ar    1  UNL1        0.0795
     20 C          25.5729   75.1021    4.6231 C.ar    1  UNL1        0.0869
     21 O          24.1878   75.0901    1.4529 O.2     1  UNL1       -0.2464
     22 O          27.8116   77.1835    2.9334 O.2     1  UNL1       -0.2670
     23 H          26.1457   76.5282    1.2532 H       1  UNL1        0.1734
     24 O          21.0098   69.9849   -1.3078 O.3     1  UNL1       -0.2703
     25 P          21.3846   70.8758   -2.5946 P.3     1  UNL1        0.2208
     26 O          21.4210   72.3044   -2.2116 O.2     1  UNL1       -0.5170
     27 O          22.8296   70.4329   -3.1512 O.3     1  UNL1       -0.4371
     28 O          20.2781   70.6549   -3.7422 O.3     1  UNL1       -0.2858
     29 C          19.0627   71.2323   -3.2634 C.3     1  UNL1        0.2704
     30 C          17.9606   70.1717   -3.2634 C.3     1  UNL1        0.1967
     31 C          17.7817   69.6386   -4.6883 C.3     1  UNL1        0.1715
     32 C          17.5450   70.8252   -5.6293 C.3     1  UNL1        0.1694
     33 C          18.6806   71.8360   -5.4511 C.3     1  UNL1        0.1761
     34 O          18.3275   69.1002   -2.3925 O.3     1  UNL1       -0.3775
     35 O          16.6587   68.7558   -4.7331 O.3     1  UNL1       -0.3794
     36 O          16.2958   71.4424   -5.3152 O.3     1  UNL1       -0.3794
     37 O          18.6894   72.3183   -4.1083 O.3     1  UNL1       -0.3258
     38 H          18.4363   69.4821   -1.5109 H       1  UNL1        0.2106
     39 H          16.8455   68.0339   -4.1197 H       1  UNL1        0.2105
     40 H          15.6132   70.7695   -5.4354 H       1  UNL1        0.2105
     41 C          18.4721   73.0093   -6.4113 C.3     1  UNL1        0.1693
     42 O          18.8284   72.6090   -7.7356 O.3     1  UNL1       -0.3794
     43 H          18.6823   73.3745   -8.3083 H       1  UNL1        0.2105
@<TRIPOS>BOND
     1    15    16   ar
     2    15    20   ar
     3    15     6    1
     4    16    17   ar
     5    16    21    2
     6    17    18   ar
     7    17    23    1
     8    18    19   ar
     9    18    22    2
    10    19    20   ar
    11     6     7    1
    12     6    11    1
    13     7     8    1
    14     7     9    1
    15     8    13    1
    16     9    10    1
    17     9    12    1
    18    10    11    1
    19    10     5    1
    20    12    14    1
    21     5     4    1
    22     4     1    1
    23     1     2    2
    24     1     3    1
    25     1    24    1
    26    24    25    1
    27    25    26    2
    28    25    27    1
    29    25    28    1
    30    28    29    1
    31    29    30    1
    32    29    37    1
    33    30    31    1
    34    30    34    1
    35    31    32    1
    36    31    35    1
    37    32    33    1
    38    32    36    1
    39    33    41    1
    40    33    37    1
    41    41    42    1
    42    34    38    1
    43    35    39    1
    44    36    40    1
    45    42    43    1
@<TRIPOS>MOLECULE
GDU
 43 45 0 0 0
SMALL
GASTEIGER

@<TRIPOS>ATOM
      1 P          22.6066   70.4865    0.0366 P.3     1  UNL1        0.2189
      2 O          23.8332   69.7402    0.3944 O.2     1  UNL1       -0.5170
      3 O          21.3127   69.6188    0.4438 O.3     1  UNL1       -0.4371
      4 O          22.5821   71.8885    0.8243 O.3     1  UNL1       -0.3112
      5 C          21.5417   71.7975    1.7989 C.3     1  UNL1        0.1811
      6 C          23.4416   74.0170    3.8945 C.3     1  UNL1        0.2383
      7 C          22.0382   74.6696    3.8081 C.3     1  UNL1        0.1895
      8 O          21.7362   75.3902    5.0051 O.3     1  UNL1       -0.3779
      9 C          21.1136   73.4334    3.6585 C.3     1  UNL1        0.1713
     10 C          22.0504   72.3259    3.1413 C.3     1  UNL1        0.1764
     11 O          23.3547   72.9081    2.9745 O.3     1  UNL1       -0.3308
     12 O          20.5525   73.0734    4.9224 O.3     1  UNL1       -0.3794
     13 H          20.8545   75.7701    4.8870 H       1  UNL1        0.2106
     14 H          20.0262   73.8278    5.2202 H       1  UNL1        0.2105
     15 N          24.4781   74.9594    3.4701 N.ar    1  UNL1       -0.2551
     16 C          25.6167   75.0619    4.1782 C.ar    1  UNL1        0.3323
     17 N          26.5870   75.9180    3.8074 N.ar    1  UNL1       -0.2743
     18 C          26.4274   76.6972    2.7204 C.ar    1  UNL1        0.2626
     19 C          25.2308   76.6042    1.9681 C.ar    1  UNL1        0.0795
     20 C          24.2757   75.7342    2.3597 C.ar    1  UNL1        0.0869
     21 O          25.7752   74.3651    5.1608 O.2     1  UNL1       -0.2464
     22 O          27.3031   77.4759    2.3867 O.2     1  UNL1       -0.2670
     23 H          27.4041   75.9758    4.3278 H       1  UNL1        0.1734
     24 O          22.5898   70.7604   -1.5499 O.3     1  UNL1       -0.2703
     25 P          21.0456   70.8878   -1.9851 P.3     1  UNL1        0.2208
     26 O          20.3169   69.6653   -1.5806 O.2     1  UNL1       -0.5170
     27 O          20.3883   72.1678   -1.2616 O.3     1  UNL1       -0.4371
     28 O          20.9499   71.0673   -3.5815 O.3     1  UNL1       -0.2858
     29 C          20.0136   72.1177   -3.8256 C.3     1  UNL1        0.2704
     30 C          18.7771   71.5462   -4.5213 C.3     1  UNL1        0.1967
     31 C          19.2049   70.8868   -5.8360 C.3     1  UNL1        0.1715
     32 C          20.0036   71.9048   -6.6577 C.3     1  UNL1        0.1694
     33 C          21.1491   72.4480   -5.7999 C.3     1  UNL1        0.1761
     34 O          18.1585   70.5747   -3.6759 O.3     1  UNL1       -0.3775
     35 O          18.0470   70.4784   -6.5673 O.3     1  UNL1       -0.3794
     36 O          19.1468   72.9768   -7.0536 O.3     1  UNL1       -0.3794
     37 O          20.6191   73.1092   -4.6520 O.3     1  UNL1       -0.3258
     38 H          17.9127   71.0312   -2.8597 H       1  UNL1        0.2106
     39 H          17.5709   69.8502   -6.0096 H       1  UNL1        0.2105
     40 H          18.4396   72.5883   -7.5849 H       1  UNL1        0.2105
     41 C          21.9738   73.4405   -6.6227 C.3     1  UNL1        0.1693
     42 O          22.8347   72.7234   -7.5090 O.3     1  UNL1       -0.3794
     43 H          23.3350   73.3836   -8.0082 H       1  UNL1        0.2105
@<TRIPOS>BOND
     1    15    16   ar
     2    15    20   ar
     3    15     6    1
     4    16    17   ar
     5    16    21    2
     6    17    18   ar
     7    17    23    1
     8    18    19   ar
     9    18    22    2
    10    19    20   ar
    11     6     7    1
    12     6    11    1
    13     7     8    1
    14     7     9    1
    15     8    13    1
    16     9    10    1
    17     9    12    1
    18    10    11    1
    19    10     5    1
    20    12    14    1
    21     5     4    1
    22     4     1    1
    23     1     2    2
    24     1     3    1
    25     1    24    1
    26    24    25    1
    27    25    26    2
    28    25    27    1
    29    25    28    1
    30    28    29    1
    31    29    30    1
    32    29    37    1
    33    30    31    1
    34    30    34    1
    35    31    32    1
    36    31    35    1
    37    32    33    1
    38    32    36    1
    39    33    41    1
    40    33    37    1
    41    41    42    1
    42    34    38    1
    43    35    39    1
    44    36    40    1
    45    42    43    1
@<TRIPOS>MOLECULE
GDU
 43 45 0 0 0
SMALL
GASTEIGER

@<TRIPOS>ATOM
      1 P          22.7338   72.0896   -3.5195 P.3     1  UNL1        0.2189
      2 O          23.7721   72.9563   -4.1196 O.2     1  UNL1       -0.5170
      3 O          23.4051   70.7122   -3.0243 O.3     1  UNL1       -0.4371
      4 O          22.0651   72.8421   -2.2652 O.3     1  UNL1       -0.3112
      5 C          23.1053   73.0594   -1.3105 C.3     1  UNL1        0.1811
      6 C          22.2689   75.1880    1.4638 C.3     1  UNL1        0.2383
      7 C          23.8077   75.0223    1.5505 C.3     1  UNL1        0.1895
      8 O          24.4151   76.1874    2.1137 O.3     1  UNL1       -0.3779
      9 C          24.2015   74.8592    0.0594 C.3     1  UNL1        0.1713
     10 C          22.8969   74.4111   -0.6253 C.3     1  UNL1        0.1764
     11 O          21.8931   74.2907    0.3974 O.3     1  UNL1       -0.3308
     12 O          24.6539   76.1041   -0.4769 O.3     1  UNL1       -0.3794
     13 H          25.3676   76.0203    2.1399 H       1  UNL1        0.2106
     14 H          25.4360   76.3600    0.0305 H       1  UNL1        0.2105
     15 N          21.6334   74.7897    2.7209 N.ar    1  UNL1       -0.2551
     16 C          21.5785   73.4890    3.0576 C.ar    1  UNL1        0.3323
     17 N          21.0030   73.0966    4.2095 N.ar    1  UNL1       -0.2743
     18 C          20.4611   74.0053    5.0430 C.ar    1  UNL1        0.2626
     19 C          20.5065   75.3785    4.6986 C.ar    1  UNL1        0.0795
     20 C          21.0935   75.7450    3.5395 C.ar    1  UNL1        0.0869
     21 O          22.0635   72.6578    2.3161 O.2     1  UNL1       -0.2464
     22 O          19.9358   73.6506    6.0835 O.2     1  UNL1       -0.2670
     23 H          20.9761   72.1539    4.4386 H       1  UNL1        0.1734
     24 O          21.6027   71.7685   -4.6196 O.3     1  UNL1       -0.2703
     25 P          21.5462   73.0330   -5.6135 P.3     1  UNL1        0.2208
     26 O          21.4781   74.2805   -4.8210 O.2     1  UNL1       -0.5170
     27 O          22.8691   73.0528   -6.5320 O.3     1  UNL1       -0.4371
     28 O          20.2441   72.9209   -6.5527 O.3     1  UNL1       -0.2858
     29 C          20.4263   71.7706   -7.3792 C.3     1  UNL1        0.2704
     30 C          20.1449   72.1408   -8.8363 C.3     1  UNL1        0.1967
     31 C          18.7104   72.6661   -8.9492 C.3     1  UNL1        0.1715
     32 C          17.7591   71.6272   -8.3447 C.3     1  UNL1        0.1694
     33 C          18.2208   71.2972   -6.9231 C.3     1  UNL1        0.1761
     34 O          21.0612   73.1523   -9.2587 O.3     1  UNL1       -0.3775
     35 O          18.3833   72.8775  -10.3242 O.3     1  UNL1       -0.3794
     36 O          17.7741   70.4435   -9.1440 O.3     1  UNL1       -0.3794
     37 O          19.5340   70.7405   -6.9605 O.3     1  UNL1       -0.3258
     38 H          21.9492   72.7815   -9.1642 H       1  UNL1        0.2106
     39 H          19.0121   73.5263  -10.6649 H       1  UNL1        0.2105
     40 H          17.4829   70.6996  -10.0288 H       1  UNL1        0.2105
     41 C          17.2575   70.2858   -6.2978 C.3     1  UNL1        0.1693
     42 O          16.0310   70.2815   -7.0304 O.3     1  UNL1       -0.3794
     43 H          15.4535   69.6323   -6.6057 H       1  UNL1        0.2105
@<TRIPOS>BOND
     1    15    16   ar
     2    15    20   ar
     3    15     6    1
     4    16    17   ar
     5    16    21    2
     6    17    18   ar
     7    17    23    1
     8    18    19   ar
     9    18    22    2
    10    19    20   ar
    11     6     7    1
    12     6    11    1
    13     7     8    1
    14     7     9    1
    15     8    13    1
    16     9    10    1
    17     9    12    1
    18    10    11    1
    19    10     5    1
    20    12    14    1
    21     5     4    1
    22     4     1    1
    23     1     2    2
    24     1     3    1
    25     1    24    1
    26    24    25    1
    27    25    26    2
    28    25    27    1
    29    25    28    1
    30    28    29    1
    31    29    30    1
    32    29    37    1
    33    30    31    1
    34    30    34    1
    35    31    32    1
    36    31    35    1
    37    32    33    1
    38    32    36    1
    39    33    41    1
    40    33    37    1
    41    41    42    1
    42    34    38    1
    43    35    39    1
    44    36    40    1
    45    42    43    1
@<TRIPOS>MOLECULE
GDU
 43 45 0 0 0
SMALL
GASTEIGER

@<TRIPOS>ATOM
      1 P          22.4368   73.4216   -4.1392 P.3     1  UNL1        0.2189
      2 O          23.7701   72.9528   -4.5773 O.2     1  UNL1       -0.5170
      3 O          22.5699   74.1643   -2.7166 O.3     1  UNL1       -0.4371
      4 O          21.8442   74.4477   -5.2268 O.3     1  UNL1       -0.3112
      5 C          22.6570   74.3271   -6.3953 C.3     1  UNL1        0.1811
      6 C          19.7559   73.1723   -8.1778 C.3     1  UNL1        0.2383
      7 C          19.3568   74.5750   -7.6522 C.3     1  UNL1        0.1895
      8 O          18.4318   75.2078   -8.5394 O.3     1  UNL1       -0.3779
      9 C          20.7173   75.3196   -7.6483 C.3     1  UNL1        0.1713
     10 C          21.7627   74.1890   -7.6287 C.3     1  UNL1        0.1764
     11 O          21.0478   72.9423   -7.5765 O.3     1  UNL1       -0.3308
     12 O          20.8541   76.1162   -8.8267 O.3     1  UNL1       -0.3794
     13 H          18.2248   76.0718   -8.1565 H       1  UNL1        0.2106
     14 H          20.1381   76.7656   -8.8105 H       1  UNL1        0.2105
     15 N          18.7941   72.1609   -7.7364 N.ar    1  UNL1       -0.2551
     16 C          18.3593   72.1645   -6.4639 C.ar    1  UNL1        0.3323
     17 N          17.4725   71.2479   -6.0335 N.ar    1  UNL1       -0.2743
     18 C          17.0115   70.3011   -6.8734 C.ar    1  UNL1        0.2626
     19 C          17.4650   70.2816   -8.2151 C.ar    1  UNL1        0.0795
     20 C          18.3514   71.2151   -8.6216 C.ar    1  UNL1        0.0869
     21 O          18.7659   73.0127   -5.6948 O.2     1  UNL1       -0.2464
     22 O          16.2124   69.4681   -6.4835 O.2     1  UNL1       -0.2670
     23 H          17.1663   71.2680   -5.1129 H       1  UNL1        0.1734
     24 O          21.4465   72.1604   -3.9939 O.3     1  UNL1       -0.2703
     25 P          22.0365   71.2372   -2.8151 P.3     1  UNL1        0.2208
     26 O          21.1460   70.0740   -2.6073 O.2     1  UNL1       -0.5170
     27 O          23.5066   70.7208   -3.2230 O.3     1  UNL1       -0.4371
     28 O          22.1280   72.0939   -1.4558 O.3     1  UNL1       -0.2858
     29 C          20.9503   71.8030   -0.7020 C.3     1  UNL1        0.2704
     30 C          20.2741   73.1112   -0.2889 C.3     1  UNL1        0.1967
     31 C          21.2579   73.9400    0.5429 C.3     1  UNL1        0.1715
     32 C          21.7693   73.0760    1.7012 C.3     1  UNL1        0.1694
     33 C          22.3343   71.7703    1.1365 C.3     1  UNL1        0.1761
     34 O          19.8961   73.8438   -1.4558 O.3     1  UNL1       -0.3775
     35 O          20.5949   75.0960    1.0594 O.3     1  UNL1       -0.3794
     36 O          20.6928   72.7893    2.5951 O.3     1  UNL1       -0.3794
     37 O          21.3038   71.0535    0.4581 O.3     1  UNL1       -0.3258
     38 H          19.2840   73.2828   -1.9513 H       1  UNL1        0.2106
     39 H          20.2807   75.6014    0.2991 H       1  UNL1        0.2105
     40 H          20.3656   73.6381    2.9204 H       1  UNL1        0.2105
     41 C          22.8792   70.9146    2.2823 C.3     1  UNL1        0.1693
     42 O          23.4544   69.7195    1.7514 O.3     1  UNL1       -0.3794
     43 H          23.7857   69.2102    2.5038 H       1  UNL1        0.2105
@<TRIPOS>BOND
     1    15    16   ar
     2    15    20   ar
     3    15     6    1
     4    16    17   ar
     5    16    21    2
     6    17    18   ar
     7    17    23    1
     8    18    19   ar
     9    18    22    2
    10    19    20   ar
    11     6     7    1
    12     6    11    1
    13     7     8    1
    14     7     9    1
    15     8    13    1
    16     9    10    1
    17     9    12    1
    18    10    11    1
    19    10     5    1
    20    12    14    1
    21     5     4    1
    22     4     1    1
    23     1     2    2
    24     1     3    1
    25     1    24    1
    26    24    25    1
    27    25    26    2
    28    25    27    1
    29    25    28    1
    30    28    29    1
    31    29    30    1
    32    29    37    1
    33    30    31    1
    34    30    34    1
    35    31    32    1
    36    31    35    1
    37    32    33    1
    38    32    36    1
    39    33    41    1
    40    33    37    1
    41    41    42    1
    42    34    38    1
    43    35    39    1
    44    36    40    1
    45    42    43    1
@<TRIPOS>MOLECULE
GDU
 43 45 0 0 0
SMALL
GASTEIGER

@<TRIPOS>ATOM
      1 P          22.1536   70.3751   -0.2698 P.3     1  UNL1        0.2189
      2 O          23.0568   69.4456    0.4442 O.2     1  UNL1       -0.5170
      3 O          23.0200   71.5522   -0.9456 O.3     1  UNL1       -0.4371
      4 O          21.3529   69.5746   -1.4121 O.3     1  UNL1       -0.3112
      5 C          21.3192   70.4197   -2.5633 C.3     1  UNL1        0.1811
      6 C          18.6082   70.7280   -4.9048 C.3     1  UNL1        0.2383
      7 C          18.5418   69.2557   -4.4243 C.3     1  UNL1        0.1895
      8 O          17.1957   68.7749   -4.4386 O.3     1  UNL1       -0.3779
      9 C          19.0753   69.3635   -2.9721 C.3     1  UNL1        0.1713
     10 C          19.8661   70.6849   -2.9610 C.3     1  UNL1        0.1764
     11 O          19.8153   71.2284   -4.2915 O.3     1  UNL1       -0.3308
     12 O          17.9901   69.4144   -2.0437 O.3     1  UNL1       -0.3794
     13 H          17.2238   67.8582   -4.1307 H       1  UNL1        0.2106
     14 H          17.5002   68.5865   -2.1400 H       1  UNL1        0.2105
     15 N          18.7060   70.7927   -6.3640 N.ar    1  UNL1       -0.2551
     16 C          17.5896   70.7273   -7.1107 C.ar    1  UNL1        0.3323
     17 N          17.6515   70.7880   -8.4540 N.ar    1  UNL1       -0.2743
     18 C          18.8408   70.9061   -9.0752 C.ar    1  UNL1        0.2626
     19 C          20.0256   70.9703   -8.3017 C.ar    1  UNL1        0.0795
     20 C          19.9346   70.9114   -6.9560 C.ar    1  UNL1        0.0869
     21 O          16.5095   70.6213   -6.5645 O.2     1  UNL1       -0.2464
     22 O          18.8983   70.9563  -10.2912 O.2     1  UNL1       -0.2670
     23 H          16.8353   70.7437   -8.9770 H       1  UNL1        0.1734
     24 O          21.1069   71.0128    0.7744 O.3     1  UNL1       -0.2703
     25 P          21.9415   72.0127    1.7198 P.3     1  UNL1        0.2208
     26 O          22.8415   71.2286    2.5940 O.2     1  UNL1       -0.5170
     27 O          22.8162   73.0098    0.8062 O.3     1  UNL1       -0.4371
     28 O          20.9247   72.8702    2.6259 O.3     1  UNL1       -0.2858
     29 C          21.6985   73.8786    3.2770 C.3     1  UNL1        0.2704
     30 C          21.5232   73.7565    4.7915 C.3     1  UNL1        0.1967
     31 C          20.0382   73.9080    5.1353 C.3     1  UNL1        0.1715
     32 C          19.5243   75.2157    4.5226 C.3     1  UNL1        0.1694
     33 C          19.8497   75.2262    3.0269 C.3     1  UNL1        0.1761
     34 O          21.9884   72.4772    5.2255 O.3     1  UNL1       -0.3775
     35 O          19.8753   73.9434    6.5547 O.3     1  UNL1       -0.3794
     36 O          20.1579   76.3245    5.1622 O.3     1  UNL1       -0.3794
     37 O          21.2631   75.1645    2.8414 O.3     1  UNL1       -0.3258
     38 H          22.9228   72.4231    4.9827 H       1  UNL1        0.2106
     39 H          20.2214   73.1096    6.8970 H       1  UNL1        0.2105
     40 H          19.9308   76.2740    6.0998 H       1  UNL1        0.2105
     41 C          19.3103   76.5130    2.3984 C.3     1  UNL1        0.1693
     42 O          20.3002   77.5389    2.4914 O.3     1  UNL1       -0.3794
     43 H          19.9219   78.3306    2.0845 H       1  UNL1        0.2105
@<TRIPOS>BOND
     1    15    16   ar
     2    15    20   ar
     3    15     6    1
     4    16    17   ar
     5    16    21    2
     6    17    18   ar
     7    17    23    1
     8    18    19   ar
     9    18    22    2
    10    19    20   ar
    11     6     7    1
    12     6    11    1
    13     7     8    1
    14     7     9    1
    15     8    13    1
    16     9    10    1
    17     9    12    1
    18    10    11    1
    19    10     5    1
    20    12    14    1
    21     5     4    1
    22     4     1    1
    23     1     2    2
    24     1     3    1
    25     1    24    1
    26    24    25    1
    27    25    26    2
    28    25    27    1
    29    25    28    1
    30    28    29    1
    31    29    30    1
    32    29    37    1
    33    30    31    1
    34    30    34    1
    35    31    32    1
    36    31    35    1
    37    32    33    1
    38    32    36    1
    39    33    41    1
    40    33    37    1
    41    41    42    1
    42    34    38    1
    43    35    39    1
    44    36    40    1
    45    42    43    1
@<TRIPOS>MOLECULE
GDU
 43 45 0 0 0
SMALL
GASTEIGER

@<TRIPOS>ATOM
      1 P          22.2723   70.4802    0.0886 P.3     1  UNL1        0.2189
      2 O          21.7239   69.1781    0.5282 O.2     1  UNL1       -0.5170
      3 O          23.6536   70.2408   -0.7036 O.3     1  UNL1       -0.4371
      4 O          21.2162   71.2077   -0.8820 O.3     1  UNL1       -0.3112
      5 C          20.5944   70.1830   -1.6591 C.3     1  UNL1        0.1811
      6 C          20.3384   70.9311   -5.1666 C.3     1  UNL1        0.2383
      7 C          20.9776   72.1987   -4.5440 C.3     1  UNL1        0.1895
      8 O          21.8477   72.8422   -5.4779 O.3     1  UNL1       -0.3779
      9 C          21.7809   71.6076   -3.3563 C.3     1  UNL1        0.1713
     10 C          21.1152   70.2435   -3.0962 C.3     1  UNL1        0.1764
     11 O          20.0192   70.1163   -4.0187 O.3     1  UNL1       -0.3308
     12 O          23.1540   71.4413   -3.7154 O.3     1  UNL1       -0.3794
     13 H          22.2107   73.6195   -5.0308 H       1  UNL1        0.2106
     14 H          23.4977   72.3208   -3.9231 H       1  UNL1        0.2105
     15 N          19.1244   71.2745   -5.9090 N.ar    1  UNL1       -0.2551
     16 C          19.1904   71.4812   -7.2361 C.ar    1  UNL1        0.3323
     17 N          18.0884   71.7946   -7.9427 N.ar    1  UNL1       -0.2743
     18 C          16.8971   71.9165   -7.3261 C.ar    1  UNL1        0.2626
     19 C          16.8136   71.7072   -5.9277 C.ar    1  UNL1        0.0795
     20 C          17.9334   71.3898   -5.2439 C.ar    1  UNL1        0.0869
     21 O          20.2579   71.3744   -7.8062 O.2     1  UNL1       -0.2464
     22 O          15.9000   72.2048   -7.9641 O.2     1  UNL1       -0.2670
     23 H          18.1536   71.9362   -8.9005 H       1  UNL1        0.1734
     24 O          22.5474   71.4076    1.3758 O.3     1  UNL1       -0.2703
     25 P          22.2450   72.9245    0.9313 P.3     1  UNL1        0.2208
     26 O          23.1202   73.2892   -0.2045 O.2     1  UNL1       -0.5170
     27 O          20.7033   73.0550    0.4836 O.3     1  UNL1       -0.4371
     28 O          22.5289   73.9141    2.1682 O.3     1  UNL1       -0.2858
     29 C          22.9296   73.0976    3.2694 C.3     1  UNL1        0.2704
     30 C          21.7284   72.8499    4.1832 C.3     1  UNL1        0.1967
     31 C          21.1908   74.1968    4.6761 C.3     1  UNL1        0.1715
     32 C          22.3437   74.9814    5.3125 C.3     1  UNL1        0.1694
     33 C          23.4983   75.0692    4.3115 C.3     1  UNL1        0.1761
     34 O          20.7081   72.1625    3.4568 O.3     1  UNL1       -0.3775
     35 O          20.1632   73.9781    5.6451 O.3     1  UNL1       -0.3794
     36 O          22.7810   74.3122    6.4962 O.3     1  UNL1       -0.3794
     37 O          23.9632   73.7574    3.9967 O.3     1  UNL1       -0.3258
     38 H          21.0921   71.3260    3.1603 H       1  UNL1        0.2106
     39 H          19.4673   73.4731    5.2058 H       1  UNL1        0.2105
     40 H          22.0223   74.2751    7.0932 H       1  UNL1        0.2105
     41 C          24.6420   75.8804    4.9246 C.3     1  UNL1        0.1693
     42 O          25.4226   76.4655    3.8809 O.3     1  UNL1       -0.3794
     43 H          26.1303   76.9673    4.3084 H       1  UNL1        0.2105
@<TRIPOS>BOND
     1    15    16   ar
     2    15    20   ar
     3    15     6    1
     4    16    17   ar
     5    16    21    2
     6    17    18   ar
     7    17    23    1
     8    18    19   ar
     9    18    22    2
    10    19    20   ar
    11     6     7    1
    12     6    11    1
    13     7     8    1
    14     7     9    1
    15     8    13    1
    16     9    10    1
    17     9    12    1
    18    10    11    1
    19    10     5    1
    20    12    14    1
    21     5     4    1
    22     4     1    1
    23     1     2    2
    24     1     3    1
    25     1    24    1
    26    24    25    1
    27    25    26    2
    28    25    27    1
    29    25    28    1
    30    28    29    1
    31    29    30    1
    32    29    37    1
    33    30    31    1
    34    30    34    1
    35    31    32    1
    36    31    35    1
    37    32    33    1
    38    32    36    1
    39    33    41    1
    40    33    37    1
    41    41    42    1
    42    34    38    1
    43    35    39    1
    44    36    40    1
    45    42    43    1
@<TRIPOS>MOLECULE
GDU
 43 45 0 0 0
SMALL
GASTEIGER

@<TRIPOS>ATOM
      1 P          21.9413   74.1883   -6.9234 P.3     1  UNL1        0.2189
      2 O          21.0891   74.4575   -5.7440 O.2     1  UNL1       -0.5170
      3 O          22.5892   72.7199   -6.7934 O.3     1  UNL1       -0.4371
      4 O          21.0489   74.2647   -8.2594 O.3     1  UNL1       -0.3112
      5 C          21.3656   73.1078   -9.0352 C.3     1  UNL1        0.1811
      6 C          18.6202   71.1575   -7.7759 C.3     1  UNL1        0.2383
      7 C          18.0305   72.5774   -7.9732 C.3     1  UNL1        0.1895
      8 O          16.6404   72.5115   -8.2996 O.3     1  UNL1       -0.3779
      9 C          18.8559   73.1080   -9.1742 C.3     1  UNL1        0.1713
     10 C          20.1209   72.2297   -9.1760 C.3     1  UNL1        0.1764
     11 O          20.0253   71.3345   -8.0546 O.3     1  UNL1       -0.3308
     12 O          18.1258   72.9477  -10.3920 O.3     1  UNL1       -0.3794
     13 H          16.3359   73.4232   -8.4084 H       1  UNL1        0.2106
     14 H          17.3189   73.4733  -10.3061 H       1  UNL1        0.2105
     15 N          18.4209   70.7006   -6.3995 N.ar    1  UNL1       -0.2551
     16 C          17.2791   70.0748   -6.0633 C.ar    1  UNL1        0.3323
     17 N          17.0723   69.6417   -4.8058 N.ar    1  UNL1       -0.2743
     18 C          18.0074   69.8383   -3.8565 C.ar    1  UNL1        0.2626
     19 C          19.2126   70.5011   -4.1948 C.ar    1  UNL1        0.0795
     20 C          19.3961   70.9214   -5.4645 C.ar    1  UNL1        0.0869
     21 O          16.4265   69.8899   -6.9090 O.2     1  UNL1       -0.2464
     22 O          17.8191   69.4508   -2.7168 O.2     1  UNL1       -0.2670
     23 H          16.2441   69.1882   -4.5818 H       1  UNL1        0.1734
     24 O          23.1159   75.2870   -6.9976 O.3     1  UNL1       -0.2703
     25 P          23.5343   75.6258   -5.4809 P.3     1  UNL1        0.2208
     26 O          22.5828   76.6070   -4.9144 O.2     1  UNL1       -0.5170
     27 O          23.5010   74.2771   -4.6012 O.3     1  UNL1       -0.4371
     28 O          25.0204   76.2433   -5.4582 O.3     1  UNL1       -0.2858
     29 C          25.5922   75.9021   -4.1948 C.3     1  UNL1        0.2704
     30 C          25.9534   77.1808   -3.4374 C.3     1  UNL1        0.1967
     31 C          26.9429   77.9949   -4.2768 C.3     1  UNL1        0.1715
     32 C          28.1297   77.0966   -4.6432 C.3     1  UNL1        0.1694
     33 C          27.6030   75.8241   -5.3115 C.3     1  UNL1        0.1761
     34 O          24.7720   77.9507   -3.2073 O.3     1  UNL1       -0.3775
     35 O          27.4028   79.1178   -3.5218 O.3     1  UNL1       -0.3794
     36 O          28.8543   76.7561   -3.4604 O.3     1  UNL1       -0.3794
     37 O          26.7629   75.1151   -4.4019 O.3     1  UNL1       -0.3258
     38 H          24.1766   77.3979   -2.6831 H       1  UNL1        0.2106
     39 H          26.6246   79.6463   -3.3040 H       1  UNL1        0.2105
     40 H          29.1609   77.5855   -3.0715 H       1  UNL1        0.2105
     41 C          28.7824   74.9352   -5.7125 C.3     1  UNL1        0.1693
     42 O          29.1601   74.1175   -4.6036 O.3     1  UNL1       -0.3794
     43 H          29.9038   73.5735   -4.8974 H       1  UNL1        0.2105
@<TRIPOS>BOND
     1    15    16   ar
     2    15    20   ar
     3    15     6    1
     4    16    17   ar
     5    16    21    2
     6    17    18   ar
     7    17    23    1
     8    18    19   ar
     9    18    22    2
    10    19    20   ar
    11     6     7    1
    12     6    11    1
    13     7     8    1
    14     7     9    1
    15     8    13    1
    16     9    10    1
    17     9    12    1
    18    10    11    1
    19    10     5    1
    20    12    14    1
    21     5     4    1
    22     4     1    1
    23     1     2    2
    24     1     3    1
    25     1    24    1
    26    24    25    1
    27    25    26    2
    28    25    27    1
    29    25    28    1
    30    28    29    1
    31    29    30    1
    32    29    37    1
    33    30    31    1
    34    30    34    1
    35    31    32    1
    36    31    35    1
    37    32    33    1
    38    32    36    1
    39    33    41    1
    40    33    37    1
    41    41    42    1
    42    34    38    1
    43    35    39    1
    44    36    40    1
    45    42    43    1
@<TRIPOS>MOLECULE
GDU
 43 45 0 0 0
SMALL
GASTEIGER

@<TRIPOS>ATOM
      1 P          22.0187   70.9098   -2.8863 P.3     1  UNL1        0.2189
      2 O          23.4767   70.7592   -3.0892 O.2     1  UNL1       -0.5170
      3 O          21.5001   69.7806   -1.8621 O.3     1  UNL1       -0.4371
      4 O          21.7084   72.3670   -2.2806 O.3     1  UNL1       -0.3112
      5 C          22.2520   72.3905   -0.9598 C.3     1  UNL1        0.1811
      6 C          22.3227   74.8502    1.6617 C.3     1  UNL1        0.2383
      7 C          23.7887   74.7692    1.1645 C.3     1  UNL1        0.1895
      8 O          24.4478   76.0288    1.3130 O.3     1  UNL1       -0.3779
      9 C          23.6044   74.4146   -0.3340 C.3     1  UNL1        0.1713
     10 C          22.1879   73.8147   -0.4052 C.3     1  UNL1        0.1764
     11 O          21.6609   73.7946    0.9327 O.3     1  UNL1       -0.3308
     12 O          23.6982   75.5903   -1.1408 O.3     1  UNL1       -0.3794
     13 H          25.3512   75.9109    0.9875 H       1  UNL1        0.2106
     14 H          24.5853   75.9511   -1.0079 H       1  UNL1        0.2105
     15 N          22.2503   74.6054    3.1031 N.ar    1  UNL1       -0.2551
     16 C          22.5289   73.3819    3.5866 C.ar    1  UNL1        0.3323
     17 N          22.4732   73.1314    4.9079 N.ar    1  UNL1       -0.2743
     18 C          22.1259   74.1056    5.7707 C.ar    1  UNL1        0.2626
     19 C          21.8242   75.3978    5.2752 C.ar    1  UNL1        0.0795
     20 C          21.8919   75.6230    3.9459 C.ar    1  UNL1        0.0869
     21 O          22.8441   72.4932    2.8206 O.2     1  UNL1       -0.2464
     22 O          22.0706   73.8785    6.9665 O.2     1  UNL1       -0.2670
     23 H          22.6816   72.2436    5.2398 H       1  UNL1        0.1734
     24 O          21.2614   70.7412   -4.2971 O.3     1  UNL1       -0.2703
     25 P          19.7502   70.2981   -3.9655 P.3     1  UNL1        0.2208
     26 O          19.7377   68.8906   -3.5098 O.2     1  UNL1       -0.5170
     27 O          19.1569   71.2430   -2.8038 O.3     1  UNL1       -0.4371
     28 O          18.8447   70.4431   -5.2881 O.3     1  UNL1       -0.2858
     29 C          19.1886   71.6910   -5.8917 C.3     1  UNL1        0.2704
     30 C          17.9335   72.5546   -6.0260 C.3     1  UNL1        0.1967
     31 C          16.9030   71.8074   -6.8782 C.3     1  UNL1        0.1715
     32 C          17.5619   71.4039   -8.2021 C.3     1  UNL1        0.1694
     33 C          18.8452   70.6252   -7.9023 C.3     1  UNL1        0.1761
     34 O          17.3890   72.8124   -4.7306 O.3     1  UNL1       -0.3775
     35 O          15.7847   72.6591   -7.1357 O.3     1  UNL1       -0.3794
     36 O          17.8735   72.5754   -8.9573 O.3     1  UNL1       -0.3794
     37 O          19.7536   71.4544   -7.1791 O.3     1  UNL1       -0.3258
     38 H          18.0724   73.2762   -4.2279 H       1  UNL1        0.2106
     39 H          15.4103   72.8966   -6.2779 H       1  UNL1        0.2105
     40 H          17.0392   73.0355   -9.1171 H       1  UNL1        0.2105
     41 C          19.4933   70.1877   -9.2178 C.3     1  UNL1        0.1693
     42 O          18.5147   70.2039  -10.2585 O.3     1  UNL1       -0.3794
     43 H          18.9627   69.9235  -11.0684 H       1  UNL1        0.2105
@<TRIPOS>BOND
     1    15    16   ar
     2    15    20   ar
     3    15     6    1
     4    16    17   ar
     5    16    21    2
     6    17    18   ar
     7    17    23    1
     8    18    19   ar
     9    18    22    2
    10    19    20   ar
    11     6     7    1
    12     6    11    1
    13     7     8    1
    14     7     9    1
    15     8    13    1
    16     9    10    1
    17     9    12    1
    18    10    11    1
    19    10     5    1
    20    12    14    1
    21     5     4    1
    22     4     1    1
    23     1     2    2
    24     1     3    1
    25     1    24    1
    26    24    25    1
    27    25    26    2
    28    25    27    1
    29    25    28    1
    30    28    29    1
    31    29    30    1
    32    29    37    1
    33    30    31    1
    34    30    34    1
    35    31    32    1
    36    31    35    1
    37    32    33    1
    38    32    36    1
    39    33    41    1
    40    33    37    1
    41    41    42    1
    42    34    38    1
    43    35    39    1
    44    36    40    1
    45    42    43    1
@<TRIPOS>MOLECULE
GDU
 43 45 0 0 0
SMALL
GASTEIGER

@<TRIPOS>ATOM
      1 P          22.5733   70.5741   -0.2528 P.3     1  UNL1        0.2189
      2 O          23.7671   69.7856    0.1247 O.2     1  UNL1       -0.5170
      3 O          21.2559   69.8798    0.3596 O.3     1  UNL1       -0.4371
      4 O          22.7112   72.0681    0.3266 O.3     1  UNL1       -0.3112
      5 C          22.2537   72.0311    1.6793 C.3     1  UNL1        0.1811
      6 C          21.2987   74.7045    3.8858 C.3     1  UNL1        0.2383
      7 C          22.3253   73.8760    4.6999 C.3     1  UNL1        0.1895
      8 O          23.0519   74.7110    5.6044 O.3     1  UNL1       -0.3779
      9 C          23.2548   73.3262    3.5867 C.3     1  UNL1        0.1713
     10 C          22.4019   73.4179    2.3078 C.3     1  UNL1        0.1764
     11 O          21.1099   73.9229    2.6871 O.3     1  UNL1       -0.3308
     12 O          24.4286   74.1331    3.4723 O.3     1  UNL1       -0.3794
     13 H          23.6703   74.1373    6.0779 H       1  UNL1        0.2106
     14 H          24.8876   74.0818    4.3216 H       1  UNL1        0.2105
     15 N          20.0392   74.8346    4.6204 N.ar    1  UNL1       -0.2551
     16 C          19.8387   75.8993    5.4170 C.ar    1  UNL1        0.3323
     17 N          18.6883   76.0446    6.1006 N.ar    1  UNL1       -0.2743
     18 C          17.7181   75.1153    6.0044 C.ar    1  UNL1        0.2626
     19 C          17.9177   73.9856    5.1736 C.ar    1  UNL1        0.0795
     20 C          19.0791   73.8667    4.4958 C.ar    1  UNL1        0.0869
     21 O          20.7046   76.7461    5.5134 O.2     1  UNL1       -0.2464
     22 O          16.6784   75.2436    6.6265 O.2     1  UNL1       -0.2670
     23 H          18.5589   76.8216    6.6675 H       1  UNL1        0.1734
     24 O          22.4528   70.6285   -1.8575 O.3     1  UNL1       -0.2703
     25 P          20.8903   70.7996   -2.2026 P.3     1  UNL1        0.2208
     26 O          20.1531   69.5952   -1.7609 O.2     1  UNL1       -0.5170
     27 O          20.3106   72.0934   -1.4382 O.3     1  UNL1       -0.4371
     28 O          20.7079   70.9894   -3.7903 O.3     1  UNL1       -0.2858
     29 C          19.7953   72.0721   -3.9766 C.3     1  UNL1        0.2704
     30 C          18.4553   71.5286   -4.4750 C.3     1  UNL1        0.1967
     31 C          18.6802   70.7781   -5.7913 C.3     1  UNL1        0.1715
     32 C          19.4104   71.7080   -6.7669 C.3     1  UNL1        0.1694
     33 C          20.6800   72.2367   -6.0948 C.3     1  UNL1        0.1761
     34 O          17.9085   70.6372   -3.5015 O.3     1  UNL1       -0.3775
     35 O          17.4206   70.3913   -6.3447 O.3     1  UNL1       -0.3794
     36 O          18.5580   72.7999   -7.1150 O.3     1  UNL1       -0.3794
     37 O          20.3324   72.9852   -4.9308 O.3     1  UNL1       -0.3258
     38 H          17.7907   71.1490   -2.6897 H       1  UNL1        0.2106
     39 H          16.9931   69.8194   -5.6946 H       1  UNL1        0.2105
     40 H          17.7717   72.4203   -7.5283 H       1  UNL1        0.2105
     41 C          21.4347   73.1395   -7.0732 C.3     1  UNL1        0.1693
     42 O          22.7744   72.6657   -7.2206 O.3     1  UNL1       -0.3794
     43 H          23.2144   73.2600   -7.8440 H       1  UNL1        0.2105
@<TRIPOS>BOND
     1    15    16   ar
     2    15    20   ar
     3    15     6    1
     4    16    17   ar
     5    16    21    2
     6    17    18   ar
     7    17    23    1
     8    18    19   ar
     9    18    22    2
    10    19    20   ar
    11     6     7    1
    12     6    11    1
    13     7     8    1
    14     7     9    1
    15     8    13    1
    16     9    10    1
    17     9    12    1
    18    10    11    1
    19    10     5    1
    20    12    14    1
    21     5     4    1
    22     4     1    1
    23     1     2    2
    24     1     3    1
    25     1    24    1
    26    24    25    1
    27    25    26    2
    28    25    27    1
    29    25    28    1
    30    28    29    1
    31    29    30    1
    32    29    37    1
    33    30    31    1
    34    30    34    1
    35    31    32    1
    36    31    35    1
    37    32    33    1
    38    32    36    1
    39    33    41    1
    40    33    37    1
    41    41    42    1
    42    34    38    1
    43    35    39    1
    44    36    40    1
    45    42    43    1
@<TRIPOS>MOLECULE
GDU
 43 45 0 0 0
SMALL
GASTEIGER

@<TRIPOS>ATOM
      1 P          22.7903   72.6193   -3.9838 P.3     1  UNL1        0.2189
      2 O          21.9061   73.4535   -3.1401 O.2     1  UNL1       -0.5170
      3 O          22.1685   72.5064   -5.4649 O.3     1  UNL1       -0.4371
      4 O          24.2484   73.2933   -4.0639 O.3     1  UNL1       -0.3112
      5 C          24.0626   74.7011   -3.9084 C.3     1  UNL1        0.1811
      6 C          27.5647   75.5019   -4.0547 C.3     1  UNL1        0.2383
      7 C          26.8600   76.7167   -4.7110 C.3     1  UNL1        0.1895
      8 O          27.6038   77.9175   -4.4915 O.3     1  UNL1       -0.3779
      9 C          25.5081   76.7570   -3.9522 C.3     1  UNL1        0.1713
     10 C          25.3541   75.3331   -3.3861 C.3     1  UNL1        0.1764
     11 O          26.4873   74.5677   -3.8313 O.3     1  UNL1       -0.3308
     12 O          25.5558   77.7196   -2.8972 O.3     1  UNL1       -0.3794
     13 H          27.1142   78.6315   -4.9231 H       1  UNL1        0.2106
     14 H          25.7126   78.5798   -3.3098 H       1  UNL1        0.2105
     15 N          28.5631   74.9309   -4.9603 N.ar    1  UNL1       -0.2551
     16 C          29.6300   74.2864   -4.4556 C.ar    1  UNL1        0.3323
     17 N          30.5606   73.7492   -5.2664 N.ar    1  UNL1       -0.2743
     18 C          30.4419   73.8581   -6.6036 C.ar    1  UNL1        0.2626
     19 C          29.3263   74.5392   -7.1493 C.ar    1  UNL1        0.0795
     20 C          28.4056   75.0648   -6.3135 C.ar    1  UNL1        0.0869
     21 O          29.7504   74.1798   -3.2514 O.2     1  UNL1       -0.2464
     22 O          31.2862   73.3763   -7.3382 O.2     1  UNL1       -0.2670
     23 H          31.3219   73.2838   -4.8850 H       1  UNL1        0.1734
     24 O          22.9123   71.1482   -3.3409 O.3     1  UNL1       -0.2703
     25 P          21.4947   70.8204   -2.6532 P.3     1  UNL1        0.2208
     26 O          21.5684   69.5088   -1.9726 O.2     1  UNL1       -0.5170
     27 O          21.1441   71.9648   -1.5754 O.3     1  UNL1       -0.4371
     28 O          20.3472   70.7773   -3.7807 O.3     1  UNL1       -0.2858
     29 C          19.1600   71.3018   -3.1848 C.3     1  UNL1        0.2704
     30 C          18.0728   70.2260   -3.1835 C.3     1  UNL1        0.1967
     31 C          17.8050   69.7861   -4.6261 C.3     1  UNL1        0.1715
     32 C          17.4920   71.0287   -5.4673 C.3     1  UNL1        0.1694
     33 C          18.6251   72.0436   -5.2968 C.3     1  UNL1        0.1761
     34 O          18.5097   69.1050   -2.4130 O.3     1  UNL1       -0.3775
     35 O          16.6919   68.8902   -4.6561 O.3     1  UNL1       -0.3794
     36 O          16.2596   71.6034   -5.0304 O.3     1  UNL1       -0.3794
     37 O          18.7183   72.4355   -3.9280 O.3     1  UNL1       -0.3258
     38 H          18.6728   69.4291   -1.5167 H       1  UNL1        0.2106
     39 H          16.9278   68.1323   -4.1064 H       1  UNL1        0.2105
     40 H          15.5782   70.9291   -5.1503 H       1  UNL1        0.2105
     41 C          18.3391   73.2746   -6.1598 C.3     1  UNL1        0.1693
     42 O          17.6061   72.8812   -7.3212 O.3     1  UNL1       -0.3794
     43 H          17.4460   73.6839   -7.8363 H       1  UNL1        0.2105
@<TRIPOS>BOND
     1    15    16   ar
     2    15    20   ar
     3    15     6    1
     4    16    17   ar
     5    16    21    2
     6    17    18   ar
     7    17    23    1
     8    18    19   ar
     9    18    22    2
    10    19    20   ar
    11     6     7    1
    12     6    11    1
    13     7     8    1
    14     7     9    1
    15     8    13    1
    16     9    10    1
    17     9    12    1
    18    10    11    1
    19    10     5    1
    20    12    14    1
    21     5     4    1
    22     4     1    1
    23     1     2    2
    24     1     3    1
    25     1    24    1
    26    24    25    1
    27    25    26    2
    28    25    27    1
    29    25    28    1
    30    28    29    1
    31    29    30    1
    32    29    37    1
    33    30    31    1
    34    30    34    1
    35    31    32    1
    36    31    35    1
    37    32    33    1
    38    32    36    1
    39    33    41    1
    40    33    37    1
    41    41    42    1
    42    34    38    1
    43    35    39    1
    44    36    40    1
    45    42    43    1
@<TRIPOS>MOLECULE
GDU
 43 45 0 0 0
SMALL
GASTEIGER

@<TRIPOS>ATOM
      1 P          22.0201   70.2343   -0.1993 P.3     1  UNL1        0.2189
      2 O          23.0966   71.0966   -0.7352 O.2     1  UNL1       -0.5170
      3 O          22.6507   68.8427    0.3095 O.3     1  UNL1       -0.4371
      4 O          21.2985   70.9779    1.0307 O.3     1  UNL1       -0.3112
      5 C          22.0682   72.1468    1.3167 C.3     1  UNL1        0.1811
      6 C          21.3111   74.9085    3.4910 C.3     1  UNL1        0.2383
      7 C          21.7720   75.5704    2.1673 C.3     1  UNL1        0.1895
      8 O          21.1179   76.8260    1.9702 O.3     1  UNL1       -0.3779
      9 C          21.3118   74.5348    1.1086 C.3     1  UNL1        0.1713
     10 C          21.1591   73.2265    1.9065 C.3     1  UNL1        0.1764
     11 O          21.5456   73.5024    3.2640 O.3     1  UNL1       -0.3308
     12 O          20.0632   74.9276    0.5353 O.3     1  UNL1       -0.3794
     13 H          21.4472   77.1838    1.1339 H       1  UNL1        0.2106
     14 H          20.2096   75.7792    0.1018 H       1  UNL1        0.2105
     15 N          22.1126   75.3898    4.6174 N.ar    1  UNL1       -0.2551
     16 C          23.3391   74.8806    4.8289 C.ar    1  UNL1        0.3323
     17 N          24.0978   75.3083    5.8551 N.ar    1  UNL1       -0.2743
     18 C          23.6336   76.2516    6.6971 C.ar    1  UNL1        0.2626
     19 C          22.3412   76.7929    6.4899 C.ar    1  UNL1        0.0795
     20 C          21.6030   76.3491    5.4505 C.ar    1  UNL1        0.0869
     21 O          23.7715   74.0294    4.0775 O.2     1  UNL1       -0.2464
     22 O          24.3178   76.6360    7.6291 O.2     1  UNL1       -0.2670
     23 H          24.9824   74.9328    5.9903 H       1  UNL1        0.1734
     24 O          20.9416   69.9412   -1.3583 O.3     1  UNL1       -0.2703
     25 P          21.3236   70.8888   -2.6017 P.3     1  UNL1        0.2208
     26 O          21.3406   72.3004   -2.1589 O.2     1  UNL1       -0.5170
     27 O          22.7802   70.4836   -3.1572 O.3     1  UNL1       -0.4371
     28 O          20.2343   70.7055   -3.7721 O.3     1  UNL1       -0.2858
     29 C          19.0167   71.2837   -3.2999 C.3     1  UNL1        0.2704
     30 C          17.9195   70.2182   -3.2843 C.3     1  UNL1        0.1967
     31 C          17.7416   69.6650   -4.7016 C.3     1  UNL1        0.1715
     32 C          17.4986   70.8376   -5.6585 C.3     1  UNL1        0.1694
     33 C          18.6297   71.8559   -5.4952 C.3     1  UNL1        0.1761
     34 O          18.2922   69.1603   -2.3993 O.3     1  UNL1       -0.3775
     35 O          16.6227   68.7765   -4.7333 O.3     1  UNL1       -0.3794
     36 O          16.2469   71.4532   -5.3515 O.3     1  UNL1       -0.3794
     37 O          18.6376   72.3564   -4.1590 O.3     1  UNL1       -0.3258
     38 H          18.4000   69.5546   -1.5231 H       1  UNL1        0.2106
     39 H          16.8134   68.0639   -4.1103 H       1  UNL1        0.2105
     40 H          15.5672   70.7756   -5.4618 H       1  UNL1        0.2105
     41 C          18.4148   73.0150   -6.4710 C.3     1  UNL1        0.1693
     42 O          18.8721   72.6342   -7.7698 O.3     1  UNL1       -0.3794
     43 H          18.7186   73.3899   -8.3533 H       1  UNL1        0.2105
@<TRIPOS>BOND
     1    15    16   ar
     2    15    20   ar
     3    15     6    1
     4    16    17   ar
     5    16    21    2
     6    17    18   ar
     7    17    23    1
     8    18    19   ar
     9    18    22    2
    10    19    20   ar
    11     6     7    1
    12     6    11    1
    13     7     8    1
    14     7     9    1
    15     8    13    1
    16     9    10    1
    17     9    12    1
    18    10    11    1
    19    10     5    1
    20    12    14    1
    21     5     4    1
    22     4     1    1
    23     1     2    2
    24     1     3    1
    25     1    24    1
    26    24    25    1
    27    25    26    2
    28    25    27    1
    29    25    28    1
    30    28    29    1
    31    29    30    1
    32    29    37    1
    33    30    31    1
    34    30    34    1
    35    31    32    1
    36    31    35    1
    37    32    33    1
    38    32    36    1
    39    33    41    1
    40    33    37    1
    41    41    42    1
    42    34    38    1
    43    35    39    1
    44    36    40    1
    45    42    43    1
@<TRIPOS>MOLECULE
GDU
 43 45 0 0 0
SMALL
GASTEIGER

@<TRIPOS>ATOM
      1 P          21.6955   70.8907   -2.8181 P.3     1  UNL1        0.2189
      2 O          21.5041   69.4260   -2.7326 O.2     1  UNL1       -0.5170
      3 O          23.2405   71.2121   -3.1384 O.3     1  UNL1       -0.4371
      4 O          20.7694   71.4859   -3.9906 O.3     1  UNL1       -0.3112
      5 C          21.5423   72.4810   -4.6636 C.3     1  UNL1        0.1811
      6 C          19.7011   72.8220   -7.7330 C.3     1  UNL1        0.2383
      7 C          20.5416   74.1209   -7.6371 C.3     1  UNL1        0.1895
      8 O          20.8810   74.6059   -8.9382 O.3     1  UNL1       -0.3779
      9 C          21.8055   73.6350   -6.8810 C.3     1  UNL1        0.1713
     10 C          21.3465   72.3458   -6.1747 C.3     1  UNL1        0.1764
     11 O          19.9512   72.1650   -6.4723 O.3     1  UNL1       -0.3308
     12 O          22.8634   73.3597   -7.8014 O.3     1  UNL1       -0.3794
     13 H          21.4006   75.4116   -8.8087 H       1  UNL1        0.2106
     14 H          23.0649   74.1905   -8.2530 H       1  UNL1        0.2105
     15 N          18.2785   73.1351   -7.8782 N.ar    1  UNL1       -0.2551
     16 C          17.7531   73.2966   -9.1054 C.ar    1  UNL1        0.3323
     17 N          16.4475   73.5815   -9.2666 N.ar    1  UNL1       -0.2743
     18 C          15.6442   73.7197   -8.1944 C.ar    1  UNL1        0.2626
     19 C          16.1850   73.5580   -6.8953 C.ar    1  UNL1        0.0795
     20 C          17.4969   73.2684   -6.7622 C.ar    1  UNL1        0.0869
     21 O          18.4653   73.1745  -10.0822 O.2     1  UNL1       -0.2464
     22 O          14.4633   73.9822   -8.3391 O.2     1  UNL1       -0.2670
     23 H          16.0843   73.6905  -10.1599 H       1  UNL1        0.1734
     24 O          21.2879   71.5670   -1.4149 O.3     1  UNL1       -0.2703
     25 P          22.1524   70.8317   -0.2739 P.3     1  UNL1        0.2208
     26 O          21.3618   69.7241    0.3067 O.2     1  UNL1       -0.5170
     27 O          23.5047   70.2433   -0.9212 O.3     1  UNL1       -0.4371
     28 O          22.5272   71.8879    0.8812 O.3     1  UNL1       -0.2858
     29 C          21.8363   73.0999    0.5753 C.3     1  UNL1        0.2704
     30 C          22.8129   74.2748    0.6480 C.3     1  UNL1        0.1967
     31 C          23.4155   74.3360    2.0549 C.3     1  UNL1        0.1715
     32 C          22.2730   74.3733    3.0762 C.3     1  UNL1        0.1694
     33 C          21.3378   73.1888    2.8204 C.3     1  UNL1        0.1761
     34 O          23.8543   74.0917   -0.3128 O.3     1  UNL1       -0.3775
     35 O          24.2162   75.5128    2.1835 O.3     1  UNL1       -0.3794
     36 O          21.5498   75.5974    2.9397 O.3     1  UNL1       -0.3794
     37 O          20.7784   73.2911    1.5117 O.3     1  UNL1       -0.3258
     38 H          23.4294   74.0517   -1.1805 H       1  UNL1        0.2106
     39 H          24.9119   75.4521    1.5167 H       1  UNL1        0.2105
     40 H          22.1778   76.3131    3.1031 H       1  UNL1        0.2105
     41 C          20.2118   73.1971    3.8567 C.3     1  UNL1        0.1693
     42 O          20.7646   73.4034    5.1578 O.3     1  UNL1       -0.3794
     43 H          20.0241   73.4027    5.7798 H       1  UNL1        0.2105
@<TRIPOS>BOND
     1    15    16   ar
     2    15    20   ar
     3    15     6    1
     4    16    17   ar
     5    16    21    2
     6    17    18   ar
     7    17    23    1
     8    18    19   ar
     9    18    22    2
    10    19    20   ar
    11     6     7    1
    12     6    11    1
    13     7     8    1
    14     7     9    1
    15     8    13    1
    16     9    10    1
    17     9    12    1
    18    10    11    1
    19    10     5    1
    20    12    14    1
    21     5     4    1
    22     4     1    1
    23     1     2    2
    24     1     3    1
    25     1    24    1
    26    24    25    1
    27    25    26    2
    28    25    27    1
    29    25    28    1
    30    28    29    1
    31    29    30    1
    32    29    37    1
    33    30    31    1
    34    30    34    1
    35    31    32    1
    36    31    35    1
    37    32    33    1
    38    32    36    1
    39    33    41    1
    40    33    37    1
    41    41    42    1
    42    34    38    1
    43    35    39    1
    44    36    40    1
    45    42    43    1
@<TRIPOS>MOLECULE
GDU
 43 45 0 0 0
SMALL
GASTEIGER

@<TRIPOS>ATOM
      1 P          22.2372   71.6815   -2.7068 P.3     1  UNL1        0.2189
      2 O          23.5246   71.9026   -3.4018 O.2     1  UNL1       -0.5170
      3 O          22.4123   70.5145   -1.6112 O.3     1  UNL1       -0.4371
      4 O          21.7813   73.0397   -1.9758 O.3     1  UNL1       -0.3112
      5 C          22.5222   73.1226   -0.7574 C.3     1  UNL1        0.1811
      6 C          25.0106   75.5679   -1.6266 C.3     1  UNL1        0.2383
      7 C          23.8216   75.8688   -2.5746 C.3     1  UNL1        0.1895
      8 O          23.7626   77.2612   -2.8924 O.3     1  UNL1       -0.3779
      9 C          22.6037   75.4462   -1.7124 C.3     1  UNL1        0.1713
     10 C          23.2015   74.4901   -0.6635 C.3     1  UNL1        0.1764
     11 O          24.6046   74.3592   -0.9501 O.3     1  UNL1       -0.3308
     12 O          22.0174   76.5871   -1.0827 O.3     1  UNL1       -0.3794
     13 H          23.0053   77.3807   -3.4824 H       1  UNL1        0.2106
     14 H          21.7161   77.1734   -1.7899 H       1  UNL1        0.2105
     15 N          26.2387   75.3435   -2.3911 N.ar    1  UNL1       -0.2551
     16 C          26.1636   74.8996   -3.6582 C.ar    1  UNL1        0.3323
     17 N          27.2774   74.6885   -4.3840 N.ar    1  UNL1       -0.2743
     18 C          28.4920   74.9107   -3.8459 C.ar    1  UNL1        0.2626
     19 C          28.5865   75.3729   -2.5104 C.ar    1  UNL1        0.0795
     20 C          27.4536   75.5804   -1.8062 C.ar    1  UNL1        0.0869
     21 O          25.0750   74.6952   -4.1573 O.2     1  UNL1       -0.2464
     22 O          29.5008   74.7153   -4.5006 O.2     1  UNL1       -0.2670
     23 H          27.2044   74.3721   -5.2985 H       1  UNL1        0.1734
     24 O          21.1176   71.2457   -3.7788 O.3     1  UNL1       -0.2703
     25 P          21.1255   72.3592   -4.9407 P.3     1  UNL1        0.2208
     26 O          20.4711   73.5911   -4.4474 O.2     1  UNL1       -0.5170
     27 O          22.6460   72.6896   -5.3567 O.3     1  UNL1       -0.4371
     28 O          20.3282   71.8035   -6.2235 O.3     1  UNL1       -0.2858
     29 C          19.1922   72.6500   -6.4046 C.3     1  UNL1        0.2704
     30 C          17.9399   71.9387   -5.8898 C.3     1  UNL1        0.1967
     31 C          17.7627   70.6242   -6.6560 C.3     1  UNL1        0.1715
     32 C          17.7690   70.9280   -8.1584 C.3     1  UNL1        0.1694
     33 C          19.0363   71.7149   -8.5017 C.3     1  UNL1        0.1761
     34 O          18.0840   71.6656   -4.4948 O.3     1  UNL1       -0.3775
     35 O          16.5201   70.0196   -6.2912 O.3     1  UNL1       -0.3794
     36 O          16.6155   71.7002   -8.4946 O.3     1  UNL1       -0.3794
     37 O          19.0426   72.9516   -7.7900 O.3     1  UNL1       -0.3258
     38 H          18.1999   72.5184   -4.0541 H       1  UNL1        0.2106
     39 H          16.5561   69.8579   -5.3400 H       1  UNL1        0.2105
     40 H          15.8442   71.1694   -8.2566 H       1  UNL1        0.2105
     41 C          19.0695   71.9939  -10.0061 C.3     1  UNL1        0.1693
     42 O          18.1643   73.0558  -10.3128 O.3     1  UNL1       -0.3794
     43 H          18.2159   73.2005  -11.2676 H       1  UNL1        0.2105
@<TRIPOS>BOND
     1    15    16   ar
     2    15    20   ar
     3    15     6    1
     4    16    17   ar
     5    16    21    2
     6    17    18   ar
     7    17    23    1
     8    18    19   ar
     9    18    22    2
    10    19    20   ar
    11     6     7    1
    12     6    11    1
    13     7     8    1
    14     7     9    1
    15     8    13    1
    16     9    10    1
    17     9    12    1
    18    10    11    1
    19    10     5    1
    20    12    14    1
    21     5     4    1
    22     4     1    1
    23     1     2    2
    24     1     3    1
    25     1    24    1
    26    24    25    1
    27    25    26    2
    28    25    27    1
    29    25    28    1
    30    28    29    1
    31    29    30    1
    32    29    37    1
    33    30    31    1
    34    30    34    1
    35    31    32    1
    36    31    35    1
    37    32    33    1
    38    32    36    1
    39    33    41    1
    40    33    37    1
    41    41    42    1
    42    34    38    1
    43    35    39    1
    44    36    40    1
    45    42    43    1
@<TRIPOS>MOLECULE
GDU
 43 45 0 0 0
SMALL
GASTEIGER

@<TRIPOS>ATOM
      1 P          22.5120   71.7927   -3.1395 P.3     1  UNL1        0.2189
      2 O          23.4417   72.7534   -3.7736 O.2     1  UNL1       -0.5170
      3 O          23.3511   70.5753   -2.5017 O.3     1  UNL1       -0.4371
      4 O          21.6797   72.5357   -1.9810 O.3     1  UNL1       -0.3112
      5 C          22.6124   73.3286   -1.2449 C.3     1  UNL1        0.1811
      6 C          22.7177   73.3424    2.3490 C.3     1  UNL1        0.2383
      7 C          21.2970   72.8276    2.0033 C.3     1  UNL1        0.1895
      8 O          20.8251   71.9225    3.0040 O.3     1  UNL1       -0.3779
      9 C          21.5364   72.0908    0.6598 C.3     1  UNL1        0.1713
     10 C          22.8483   72.6978    0.1287 C.3     1  UNL1        0.1764
     11 O          23.2657   73.7070    1.0644 O.3     1  UNL1       -0.3308
     12 O          21.6800   70.6861    0.8790 O.3     1  UNL1       -0.3794
     13 H          19.9409   71.6408    2.7306 H       1  UNL1        0.2106
     14 H          20.8498   70.3766    1.2658 H       1  UNL1        0.2105
     15 N          22.6455   74.5099    3.2291 N.ar    1  UNL1       -0.2551
     16 C          23.6109   74.7175    4.1419 C.ar    1  UNL1        0.3323
     17 N          23.5702   75.7851    4.9609 N.ar    1  UNL1       -0.2743
     18 C          22.5506   76.6619    4.8849 C.ar    1  UNL1        0.2626
     19 C          21.5236   76.4528    3.9320 C.ar    1  UNL1        0.0795
     20 C          21.5912   75.3764    3.1202 C.ar    1  UNL1        0.0869
     21 O          24.5372   73.9355    4.2219 O.2     1  UNL1       -0.2464
     22 O          22.5104   77.6259    5.6289 O.2     1  UNL1       -0.2670
     23 H          24.2777   75.9216    5.6109 H       1  UNL1        0.1734
     24 O          21.4956   71.2191   -4.2487 O.3     1  UNL1       -0.2703
     25 P          21.2446   72.4037   -5.3087 P.3     1  UNL1        0.2208
     26 O          20.6955   73.5850   -4.6071 O.2     1  UNL1       -0.5170
     27 O          22.6387   72.7981   -6.0124 O.3     1  UNL1       -0.4371
     28 O          20.2001   71.9103   -6.4292 O.3     1  UNL1       -0.2858
     29 C          19.0020   72.6645   -6.2405 C.3     1  UNL1        0.2704
     30 C          17.8872   71.7366   -5.7554 C.3     1  UNL1        0.1967
     31 C          17.6722   70.6306   -6.7932 C.3     1  UNL1        0.1715
     32 C          17.4308   71.2812   -8.1599 C.3     1  UNL1        0.1694
     33 C          18.5822   72.2430   -8.4637 C.3     1  UNL1        0.1761
     34 O          18.2588   71.1553   -4.5043 O.3     1  UNL1       -0.3775
     35 O          16.5377   69.8424   -6.4268 O.3     1  UNL1       -0.3794
     36 O          16.1961   71.9989   -8.1361 O.3     1  UNL1       -0.3794
     37 O          18.6248   73.2705   -7.4746 O.3     1  UNL1       -0.3258
     38 H          18.3904   71.8863   -3.8852 H       1  UNL1        0.2106
     39 H          16.7283   69.4639   -5.5593 H       1  UNL1        0.2105
     40 H          15.5028   71.3564   -7.9362 H       1  UNL1        0.2105
     41 C          18.3684   72.8726   -9.8420 C.3     1  UNL1        0.1693
     42 O          17.6188   74.0807   -9.7018 O.3     1  UNL1       -0.3794
     43 H          17.5068   74.4454  -10.5905 H       1  UNL1        0.2105
@<TRIPOS>BOND
     1    15    16   ar
     2    15    20   ar
     3    15     6    1
     4    16    17   ar
     5    16    21    2
     6    17    18   ar
     7    17    23    1
     8    18    19   ar
     9    18    22    2
    10    19    20   ar
    11     6     7    1
    12     6    11    1
    13     7     8    1
    14     7     9    1
    15     8    13    1
    16     9    10    1
    17     9    12    1
    18    10    11    1
    19    10     5    1
    20    12    14    1
    21     5     4    1
    22     4     1    1
    23     1     2    2
    24     1     3    1
    25     1    24    1
    26    24    25    1
    27    25    26    2
    28    25    27    1
    29    25    28    1
    30    28    29    1
    31    29    30    1
    32    29    37    1
    33    30    31    1
    34    30    34    1
    35    31    32    1
    36    31    35    1
    37    32    33    1
    38    32    36    1
    39    33    41    1
    40    33    37    1
    41    41    42    1
    42    34    38    1
    43    35    39    1
    44    36    40    1
    45    42    43    1
