@<TRIPOS>MOLECULE
UD2
 46 48 0 0 0
SMALL
GASTEIGER

@<TRIPOS>ATOM
      1 P          22.0871   70.9878   -2.7188 P.3     1  UNL1        0.2189
      2 O          21.5674   69.4658   -2.7885 O.3     1  UNL1       -0.4371
      3 O          23.3938   71.0954   -3.4043 O.2     1  UNL1       -0.5170
      4 O          21.0201   71.9528   -3.4427 O.3     1  UNL1       -0.3112
      5 C          19.9970   72.6519   -2.7316 C.3     1  UNL1        0.1811
      6 C          17.8426   71.4653   -5.3559 C.3     1  UNL1        0.2383
      7 C          18.0225   70.2449   -4.4177 C.3     1  UNL1        0.1895
      8 O          16.8602   69.4139   -4.4332 O.3     1  UNL1       -0.3779
      9 C          18.2002   70.9204   -3.0358 C.3     1  UNL1        0.1713
     10 C          18.6386   72.3583   -3.3731 C.3     1  UNL1        0.1764
     11 O          18.7434   72.4493   -4.8029 O.3     1  UNL1       -0.3308
     12 O          16.9629   70.9287   -2.3218 O.3     1  UNL1       -0.3794
     13 H          16.9245   68.6365   -3.8620 H       1  UNL1        0.2106
     14 H          16.6101   70.0485   -2.1344 H       1  UNL1        0.2105
     15 N          18.2294   71.1237   -6.7266 N.ar    1  UNL1       -0.2551
     16 C          17.2899   70.7352   -7.6070 C.ar    1  UNL1        0.3323
     17 N          17.6169   70.4151   -8.8730 N.ar    1  UNL1       -0.2743
     18 C          18.9008   70.4819   -9.2799 C.ar    1  UNL1        0.2626
     19 C          19.9000   70.8903   -8.3640 C.ar    1  UNL1        0.0795
     20 C          19.5431   71.2094   -7.1021 C.ar    1  UNL1        0.0869
     21 O          16.1282   70.6706   -7.2540 O.2     1  UNL1       -0.2464
     22 O          19.1981   70.1929  -10.4256 O.2     1  UNL1       -0.2670
     23 H          16.9272   70.1357   -9.4946 H       1  UNL1        0.1734
     24 O          22.2506   71.4294   -1.1788 O.3     1  UNL1       -0.2703
     25 P          22.5379   70.6296    0.1889 P.3     1  UNL1        0.2208
     26 O          21.3511   69.5732    0.4517 O.3     1  UNL1       -0.4371
     27 O          23.8244   69.9078    0.0778 O.2     1  UNL1       -0.5170
     28 O          22.6107   71.6715    1.4145 O.3     1  UNL1       -0.2865
     29 C          21.7803   72.8309    1.5010 C.3     1  UNL1        0.2611
     30 C          22.6048   74.0763    1.1668 C.3     1  UNL1        0.1582
     31 C          23.7254   74.2287    2.2001 C.3     1  UNL1        0.1625
     32 C          23.1084   74.2993    3.5996 C.3     1  UNL1        0.1686
     33 C          22.2643   73.0448    3.8401 C.3     1  UNL1        0.1760
     34 O          24.4554   75.4295    1.9388 O.3     1  UNL1       -0.3801
     35 O          22.2801   75.4592    3.6985 O.3     1  UNL1       -0.3794
     36 O          21.2610   72.9464    2.8274 O.3     1  UNL1       -0.3263
     37 H          25.1825   75.5895    2.5560 H       1  UNL1        0.2105
     38 H          21.8551   75.5674    4.5609 H       1  UNL1        0.2105
     39 C          23.1546   74.9672   -1.0336 C.2     1  UNL1        0.2231
     40 C          23.7535   74.8210   -2.4079 C.3     1  UNL1        0.0946
     41 N          23.1874   73.9333   -0.1698 N.am    1  UNL1       -0.2994
     42 O          22.6420   76.0162   -0.7036 O.2     1  UNL1       -0.2751
     43 H          23.5963   73.0941   -0.4337 H       1  UNL1        0.1496
     44 C          21.5962   73.1355    5.2134 C.3     1  UNL1        0.1693
     45 O          22.5507   73.5793    6.1800 O.3     1  UNL1       -0.3794
     46 H          22.1958   73.6599    7.0758 H       1  UNL1        0.2105
@<TRIPOS>BOND
     1    29    30    1
     2    30    41    1
     3    30    31    1
     4    31    34    1
     5    31    32    1
     6    32    35    1
     7    32    33    1
     8    33    36    1
     9    33    44    1
    10    39    40    1
    11    39    42    2
    12    39    41   am
    13    41    43    1
    14    29    28    1
    15    34    37    1
    16    35    38    1
    17    29    36    1
    18    44    45    1
    19    45    46    1
    20    15     6    1
    21    15    16   ar
    22    16    21    2
    23    16    17   ar
    24    17    23    1
    25    17    18   ar
    26    18    19   ar
    27    19    20   ar
    28    15    20   ar
    29    18    22    2
    30     6     7    1
    31     6    11    1
    32     7     9    1
    33     7     8    1
    34     8    13    1
    35     9    10    1
    36     9    12    1
    37    10     5    1
    38    10    11    1
    39    12    14    1
    40     5     4    1
    41     4     1    1
    42     1     2    1
    43     1    24    1
    44     1     3    2
    45    24    25    1
    46    28    25    1
    47    25    26    1
    48    25    27    2
@<TRIPOS>MOLECULE
UD2
 46 48 0 0 0
SMALL
GASTEIGER

@<TRIPOS>ATOM
      1 P          22.0095   70.4836   -0.3011 P.3     1  UNL1        0.2189
      2 O          22.0284   69.3426    0.8343 O.3     1  UNL1       -0.4371
      3 O          23.3237   70.5274   -0.9792 O.2     1  UNL1       -0.5170
      4 O          20.8603   70.1490   -1.3787 O.3     1  UNL1       -0.3112
      5 C          20.9635   70.5013   -2.7595 C.3     1  UNL1        0.1811
      6 C          18.4199   70.9632   -5.2602 C.3     1  UNL1        0.2383
      7 C          18.0560   69.6202   -4.5777 C.3     1  UNL1        0.1895
      8 O          16.6432   69.4071   -4.5919 O.3     1  UNL1       -0.3779
      9 C          18.5669   69.8407   -3.1328 C.3     1  UNL1        0.1713
     10 C          19.5998   70.9758   -3.2677 C.3     1  UNL1        0.1764
     11 O          19.6874   71.3111   -4.6618 O.3     1  UNL1       -0.3308
     12 O          17.4930   70.2399   -2.2794 O.3     1  UNL1       -0.3794
     13 H          16.3658   68.5793   -4.1767 H       1  UNL1        0.2106
     14 H          16.7849   69.5861   -2.2049 H       1  UNL1        0.2105
     15 N          18.5637   70.7844   -6.7067 N.ar    1  UNL1       -0.2551
     16 C          17.4697   70.7740   -7.4889 C.ar    1  UNL1        0.3323
     17 N          17.5721   70.6113   -8.8213 N.ar    1  UNL1       -0.2743
     18 C          18.7827   70.4571   -9.3951 C.ar    1  UNL1        0.2626
     19 C          19.9429   70.4671   -8.5839 C.ar    1  UNL1        0.0795
     20 C          19.8109   70.6363   -7.2514 C.ar    1  UNL1        0.0869
     21 O          16.3717   70.9122   -6.9852 O.2     1  UNL1       -0.2464
     22 O          18.8769   70.3102  -10.6010 O.2     1  UNL1       -0.2670
     23 H          16.7731   70.6051   -9.3705 H       1  UNL1        0.1734
     24 O          21.7077   71.9121    0.3782 O.3     1  UNL1       -0.2703
     25 P          21.4187   73.3866   -0.2009 P.3     1  UNL1        0.2208
     26 O          21.9470   73.4792   -1.7195 O.3     1  UNL1       -0.4371
     27 O          19.9640   73.6533   -0.1683 O.2     1  UNL1       -0.5170
     28 O          22.1852   74.4774    0.7019 O.3     1  UNL1       -0.2865
     29 C          23.5684   74.3716    1.0438 C.3     1  UNL1        0.2611
     30 C          23.8180   75.0657    2.3849 C.3     1  UNL1        0.1582
     31 C          23.4851   76.5547    2.2492 C.3     1  UNL1        0.1625
     32 C          24.3272   77.1542    1.1198 C.3     1  UNL1        0.1686
     33 C          24.0578   76.3795   -0.1730 C.3     1  UNL1        0.1760
     34 O          23.7851   77.2244    3.4759 O.3     1  UNL1       -0.3801
     35 O          25.7129   77.0585    1.4546 O.3     1  UNL1       -0.3794
     36 O          24.3583   74.9973    0.0305 O.3     1  UNL1       -0.3263
     37 H          23.5974   78.1730    3.4617 H       1  UNL1        0.2105
     38 H          26.3067   77.4195    0.7815 H       1  UNL1        0.2105
     39 C          23.4661   74.2019    4.6361 C.2     1  UNL1        0.2231
     40 C          22.5894   73.5845    5.6938 C.3     1  UNL1        0.0946
     41 N          22.9647   74.4648    3.4132 N.am    1  UNL1       -0.2994
     42 O          24.6246   74.4630    4.8847 O.2     1  UNL1       -0.2751
     43 H          22.0387   74.2554    3.2136 H       1  UNL1        0.1496
     44 C          24.9401   76.9341   -1.2930 C.3     1  UNL1        0.1693
     45 O          24.2522   77.9931   -1.9621 O.3     1  UNL1       -0.3794
     46 H          24.7534   78.3928   -2.6860 H       1  UNL1        0.2105
@<TRIPOS>BOND
     1    29    30    1
     2    30    41    1
     3    30    31    1
     4    31    34    1
     5    31    32    1
     6    32    35    1
     7    32    33    1
     8    33    36    1
     9    33    44    1
    10    39    40    1
    11    39    42    2
    12    39    41   am
    13    41    43    1
    14    29    28    1
    15    34    37    1
    16    35    38    1
    17    29    36    1
    18    44    45    1
    19    45    46    1
    20    15     6    1
    21    15    16   ar
    22    16    21    2
    23    16    17   ar
    24    17    23    1
    25    17    18   ar
    26    18    19   ar
    27    19    20   ar
    28    15    20   ar
    29    18    22    2
    30     6     7    1
    31     6    11    1
    32     7     9    1
    33     7     8    1
    34     8    13    1
    35     9    10    1
    36     9    12    1
    37    10     5    1
    38    10    11    1
    39    12    14    1
    40     5     4    1
    41     4     1    1
    42     1     2    1
    43     1    24    1
    44     1     3    2
    45    24    25    1
    46    28    25    1
    47    25    26    1
    48    25    27    2
@<TRIPOS>MOLECULE
UD2
 46 48 0 0 0
SMALL
GASTEIGER

@<TRIPOS>ATOM
      1 P          22.9262   72.0969   -3.2568 P.3     1  UNL1        0.2189
      2 O          23.4092   70.5613   -3.2637 O.3     1  UNL1       -0.4371
      3 O          23.6620   72.8507   -4.2956 O.2     1  UNL1       -0.5170
      4 O          21.3465   72.1638   -3.5626 O.3     1  UNL1       -0.3112
      5 C          20.3511   71.9105   -2.5694 C.3     1  UNL1        0.1811
      6 C          18.0333   71.3498   -5.2619 C.3     1  UNL1        0.2383
      7 C          17.9810   70.0464   -4.4249 C.3     1  UNL1        0.1895
      8 O          16.6866   69.4456   -4.4968 O.3     1  UNL1       -0.3779
      9 C          18.2702   70.5661   -2.9953 C.3     1  UNL1        0.1713
     10 C          18.9662   71.9218   -3.2211 C.3     1  UNL1        0.1764
     11 O          19.0952   72.1055   -4.6399 O.3     1  UNL1       -0.3308
     12 O          17.0507   70.7436   -2.2728 O.3     1  UNL1       -0.3794
     13 H          16.6040   68.6267   -3.9896 H       1  UNL1        0.2106
     14 H          16.5417   69.9305   -2.1529 H       1  UNL1        0.2105
     15 N          18.3601   71.0532   -6.6584 N.ar    1  UNL1       -0.2551
     16 C          17.3709   70.8205   -7.5394 C.ar    1  UNL1        0.3323
     17 N          17.6421   70.5453   -8.8289 N.ar    1  UNL1       -0.2743
     18 C          18.9194   70.5006   -9.2592 C.ar    1  UNL1        0.2626
     19 C          19.9706   70.7446   -8.3429 C.ar    1  UNL1        0.0795
     20 C          19.6694   71.0222   -7.0569 C.ar    1  UNL1        0.0869
     21 O          16.2145   70.8577   -7.1654 O.2     1  UNL1       -0.2464
     22 O          19.1662   70.2520  -10.4262 O.2     1  UNL1       -0.2670
     23 H          16.9170   70.3787   -9.4506 H       1  UNL1        0.1734
     24 O          23.2205   72.7458   -1.8126 O.3     1  UNL1       -0.2703
     25 P          23.0641   74.2266   -1.1996 P.3     1  UNL1        0.2208
     26 O          24.5233   74.8454   -0.9136 O.3     1  UNL1       -0.4371
     27 O          22.3447   75.0868   -2.1645 O.2     1  UNL1       -0.5170
     28 O          22.2329   74.1523    0.1774 O.3     1  UNL1       -0.2865
     29 C          22.8275   74.3697    1.4582 C.3     1  UNL1        0.2611
     30 C          22.4836   73.2021    2.3862 C.3     1  UNL1        0.1582
     31 C          20.9654   73.1465    2.5816 C.3     1  UNL1        0.1625
     32 C          20.4832   74.4898    3.1359 C.3     1  UNL1        0.1686
     33 C          20.9042   75.6081    2.1786 C.3     1  UNL1        0.1760
     34 O          20.6410   72.1047    3.5051 O.3     1  UNL1       -0.3801
     35 O          21.0679   74.7143    4.4200 O.3     1  UNL1       -0.3794
     36 O          22.3238   75.5849    2.0167 O.3     1  UNL1       -0.3263
     37 H          19.6936   72.0118    3.6757 H       1  UNL1        0.2105
     38 H          20.8062   75.5499    4.8314 H       1  UNL1        0.2105
     39 C          22.1070   71.2111    1.0328 C.2     1  UNL1        0.2231
     40 C          22.5822   69.9218    0.4160 C.3     1  UNL1        0.0946
     41 N          22.9465   71.9479    1.7868 N.am    1  UNL1       -0.2994
     42 O          20.9678   71.5870    0.8511 O.2     1  UNL1       -0.2751
     43 H          23.8571   71.6473    1.9331 H       1  UNL1        0.1496
     44 C          20.4783   76.9597    2.7550 C.3     1  UNL1        0.1693
     45 O          20.0617   77.8210    1.6934 O.3     1  UNL1       -0.3794
     46 H          19.7773   78.6977    1.9861 H       1  UNL1        0.2105
@<TRIPOS>BOND
     1    29    30    1
     2    30    41    1
     3    30    31    1
     4    31    34    1
     5    31    32    1
     6    32    35    1
     7    32    33    1
     8    33    36    1
     9    33    44    1
    10    39    40    1
    11    39    42    2
    12    39    41   am
    13    41    43    1
    14    29    28    1
    15    34    37    1
    16    35    38    1
    17    29    36    1
    18    44    45    1
    19    45    46    1
    20    15     6    1
    21    15    16   ar
    22    16    21    2
    23    16    17   ar
    24    17    23    1
    25    17    18   ar
    26    18    19   ar
    27    19    20   ar
    28    15    20   ar
    29    18    22    2
    30     6     7    1
    31     6    11    1
    32     7     9    1
    33     7     8    1
    34     8    13    1
    35     9    10    1
    36     9    12    1
    37    10     5    1
    38    10    11    1
    39    12    14    1
    40     5     4    1
    41     4     1    1
    42     1     2    1
    43     1    24    1
    44     1     3    2
    45    24    25    1
    46    28    25    1
    47    25    26    1
    48    25    27    2
@<TRIPOS>MOLECULE
UD2
 46 48 0 0 0
SMALL
GASTEIGER

@<TRIPOS>ATOM
      1 P          22.1428   70.2934   -0.2351 P.3     1  UNL1        0.2189
      2 O          21.2854   70.8016    1.0290 O.3     1  UNL1       -0.4371
      3 O          23.0474   69.2019    0.1883 O.2     1  UNL1       -0.5170
      4 O          21.1450   69.7511   -1.3770 O.3     1  UNL1       -0.3112
      5 C          21.2065   70.1902   -2.7353 C.3     1  UNL1        0.1811
      6 C          18.5903   70.8201   -5.1217 C.3     1  UNL1        0.2383
      7 C          18.2429   69.4351   -4.5191 C.3     1  UNL1        0.1895
      8 O          16.8295   69.2252   -4.5046 O.3     1  UNL1       -0.3779
      9 C          18.7977   69.5586   -3.0788 C.3     1  UNL1        0.1713
     10 C          19.8297   70.6989   -3.1694 C.3     1  UNL1        0.1764
     11 O          19.8763   71.1260   -4.5401 O.3     1  UNL1       -0.3308
     12 O          17.7513   69.9015   -2.1688 O.3     1  UNL1       -0.3794
     13 H          16.5622   68.3719   -4.1370 H       1  UNL1        0.2106
     14 H          17.0437   69.2450   -2.1164 H       1  UNL1        0.2105
     15 N          18.6899   70.7376   -6.5806 N.ar    1  UNL1       -0.2551
     16 C          17.5706   70.7412   -7.3262 C.ar    1  UNL1        0.3323
     17 N          17.6323   70.6663   -8.6689 N.ar    1  UNL1       -0.2743
     18 C          18.8266   70.5877   -9.2901 C.ar    1  UNL1        0.2626
     19 C          20.0130   70.5840   -8.5176 C.ar    1  UNL1        0.0795
     20 C          19.9216   70.6644   -7.1735 C.ar    1  UNL1        0.0869
     21 O          16.4868   70.8118   -6.7796 O.2     1  UNL1       -0.2464
     22 O          18.8839   70.5202  -10.5053 O.2     1  UNL1       -0.2670
     23 H          16.8155   70.6688   -9.1913 H       1  UNL1        0.1734
     24 O          23.0130   71.5157   -0.8200 O.3     1  UNL1       -0.2703
     25 P          22.7243   73.0827   -1.0527 P.3     1  UNL1        0.2208
     26 O          23.4199   73.5579   -2.4253 O.3     1  UNL1       -0.4371
     27 O          21.2647   73.3086   -1.1361 O.2     1  UNL1       -0.5170
     28 O          23.3293   73.9281    0.1768 O.3     1  UNL1       -0.2865
     29 C          22.5297   74.7654    1.0140 C.3     1  UNL1        0.2611
     30 C          23.4033   75.8667    1.6194 C.3     1  UNL1        0.1582
     31 C          24.4824   75.2256    2.4975 C.3     1  UNL1        0.1625
     32 C          23.8083   74.3646    3.5692 C.3     1  UNL1        0.1686
     33 C          22.9189   73.3208    2.8884 C.3     1  UNL1        0.1760
     34 O          25.2573   76.2497    3.1254 O.3     1  UNL1       -0.3801
     35 O          23.0102   75.1937    4.4158 O.3     1  UNL1       -0.3794
     36 O          21.9575   73.9819    2.0633 O.3     1  UNL1       -0.3263
     37 H          25.9615   75.9146    3.6972 H       1  UNL1        0.2105
     38 H          22.5518   74.7131    5.1193 H       1  UNL1        0.2105
     39 C          25.2678   76.2939    0.1097 C.2     1  UNL1        0.2231
     40 C          25.9212   77.0817   -0.9952 C.3     1  UNL1        0.0946
     41 N          24.0384   76.6338    0.5448 N.am    1  UNL1       -0.2994
     42 O          25.8481   75.3524    0.6088 O.2     1  UNL1       -0.2751
     43 H          23.5745   77.3869    0.1467 H       1  UNL1        0.1496
     44 C          22.1953   72.4949    3.9536 C.3     1  UNL1        0.1693
     45 O          20.9246   72.0763    3.4510 O.3     1  UNL1       -0.3794
     46 H          20.4094   71.5467    4.0748 H       1  UNL1        0.2105
@<TRIPOS>BOND
     1    29    30    1
     2    30    41    1
     3    30    31    1
     4    31    34    1
     5    31    32    1
     6    32    35    1
     7    32    33    1
     8    33    36    1
     9    33    44    1
    10    39    40    1
    11    39    42    2
    12    39    41   am
    13    41    43    1
    14    29    28    1
    15    34    37    1
    16    35    38    1
    17    29    36    1
    18    44    45    1
    19    45    46    1
    20    15     6    1
    21    15    16   ar
    22    16    21    2
    23    16    17   ar
    24    17    23    1
    25    17    18   ar
    26    18    19   ar
    27    19    20   ar
    28    15    20   ar
    29    18    22    2
    30     6     7    1
    31     6    11    1
    32     7     9    1
    33     7     8    1
    34     8    13    1
    35     9    10    1
    36     9    12    1
    37    10     5    1
    38    10    11    1
    39    12    14    1
    40     5     4    1
    41     4     1    1
    42     1     2    1
    43     1    24    1
    44     1     3    2
    45    24    25    1
    46    28    25    1
    47    25    26    1
    48    25    27    2
@<TRIPOS>MOLECULE
UD2
 46 48 0 0 0
SMALL
GASTEIGER

@<TRIPOS>ATOM
      1 P          22.9093   72.1786   -3.3580 P.3     1  UNL1        0.2189
      2 O          23.4526   70.6646   -3.2942 O.3     1  UNL1       -0.4371
      3 O          23.6173   72.9128   -4.4297 O.2     1  UNL1       -0.5170
      4 O          21.3289   72.1688   -3.6677 O.3     1  UNL1       -0.3112
      5 C          20.3381   72.0239   -2.6485 C.3     1  UNL1        0.1811
      6 C          18.0261   71.3387   -5.3173 C.3     1  UNL1        0.2383
      7 C          18.0283   70.0461   -4.4621 C.3     1  UNL1        0.1895
      8 O          16.7570   69.3961   -4.5169 O.3     1  UNL1       -0.3779
      9 C          18.3066   70.5963   -3.0418 C.3     1  UNL1        0.1713
     10 C          18.9496   71.9740   -3.2909 C.3     1  UNL1        0.1764
     11 O          19.0627   72.1425   -4.7130 O.3     1  UNL1       -0.3308
     12 O          17.0858   70.7379   -2.3135 O.3     1  UNL1       -0.3794
     13 H          16.7085   68.5819   -3.9979 H       1  UNL1        0.2106
     14 H          16.6086   69.9080   -2.1790 H       1  UNL1        0.2105
     15 N          18.3551   71.0352   -6.7118 N.ar    1  UNL1       -0.2551
     16 C          17.3686   70.7710   -7.5869 C.ar    1  UNL1        0.3323
     17 N          17.6418   70.4886   -8.8744 N.ar    1  UNL1       -0.2743
     18 C          18.9184   70.4683   -9.3087 C.ar    1  UNL1        0.2626
     19 C          19.9667   70.7455   -8.3985 C.ar    1  UNL1        0.0795
     20 C          19.6635   71.0296   -7.1145 C.ar    1  UNL1        0.0869
     21 O          16.2129   70.7859   -7.2094 O.2     1  UNL1       -0.2464
     22 O          19.1671   70.2133  -10.4739 O.2     1  UNL1       -0.2670
     23 H          16.9186   70.2993   -9.4919 H       1  UNL1        0.1734
     24 O          23.1739   72.9041   -1.9448 O.3     1  UNL1       -0.2703
     25 P          23.1962   74.4407   -1.4640 P.3     1  UNL1        0.2208
     26 O          24.6013   75.1111   -1.8760 O.3     1  UNL1       -0.4371
     27 O          22.0897   75.1771   -2.1133 O.2     1  UNL1       -0.5170
     28 O          23.0188   74.5051    0.1351 O.3     1  UNL1       -0.2865
     29 C          21.7691   74.2785    0.7895 C.3     1  UNL1        0.2611
     30 C          21.9504   74.4241    2.3023 C.3     1  UNL1        0.1582
     31 C          22.9335   73.3577    2.7950 C.3     1  UNL1        0.1625
     32 C          22.4073   71.9740    2.4040 C.3     1  UNL1        0.1686
     33 C          22.2084   71.9229    0.8868 C.3     1  UNL1        0.1760
     34 O          23.0525   73.4391    4.2172 O.3     1  UNL1       -0.3801
     35 O          21.1598   71.7351    3.0581 O.3     1  UNL1       -0.3794
     36 O          21.3079   72.9593    0.4909 O.3     1  UNL1       -0.3263
     37 H          23.6614   72.7915    4.5981 H       1  UNL1        0.2105
     38 H          20.7669   70.8746    2.8549 H       1  UNL1        0.2105
     39 C          23.8102   75.9437    2.7143 C.2     1  UNL1        0.2231
     40 C          24.3556   77.3127    3.0259 C.3     1  UNL1        0.0946
     41 N          22.4801   75.7560    2.6057 N.am    1  UNL1       -0.2994
     42 O          24.5684   75.0090    2.5608 O.2     1  UNL1       -0.2751
     43 H          21.8735   76.5028    2.7293 H       1  UNL1        0.1496
     44 C          21.6263   70.5635    0.4946 C.3     1  UNL1        0.1693
     45 O          22.4356   69.5216    1.0439 O.3     1  UNL1       -0.3794
     46 H          22.1251   68.6300    0.8348 H       1  UNL1        0.2105
@<TRIPOS>BOND
     1    29    30    1
     2    30    41    1
     3    30    31    1
     4    31    34    1
     5    31    32    1
     6    32    35    1
     7    32    33    1
     8    33    36    1
     9    33    44    1
    10    39    40    1
    11    39    42    2
    12    39    41   am
    13    41    43    1
    14    29    28    1
    15    34    37    1
    16    35    38    1
    17    29    36    1
    18    44    45    1
    19    45    46    1
    20    15     6    1
    21    15    16   ar
    22    16    21    2
    23    16    17   ar
    24    17    23    1
    25    17    18   ar
    26    18    19   ar
    27    19    20   ar
    28    15    20   ar
    29    18    22    2
    30     6     7    1
    31     6    11    1
    32     7     9    1
    33     7     8    1
    34     8    13    1
    35     9    10    1
    36     9    12    1
    37    10     5    1
    38    10    11    1
    39    12    14    1
    40     5     4    1
    41     4     1    1
    42     1     2    1
    43     1    24    1
    44     1     3    2
    45    24    25    1
    46    28    25    1
    47    25    26    1
    48    25    27    2
@<TRIPOS>MOLECULE
UD2
 46 48 0 0 0
SMALL
GASTEIGER

@<TRIPOS>ATOM
      1 P          22.0915   70.8697   -0.3933 P.3     1  UNL1        0.2189
      2 O          23.4602   70.0644   -0.1295 O.3     1  UNL1       -0.4371
      3 O          21.0072   69.9124   -0.7041 O.2     1  UNL1       -0.5170
      4 O          21.7027   71.7123    0.9229 O.3     1  UNL1       -0.3112
      5 C          22.2720   71.4537    2.2076 C.3     1  UNL1        0.1811
      6 C          23.4527   74.6215    3.4353 C.3     1  UNL1        0.2383
      7 C          22.5323   74.9844    2.2423 C.3     1  UNL1        0.1895
      8 O          21.9066   76.2525    2.4481 O.3     1  UNL1       -0.3779
      9 C          21.4886   73.8413    2.2772 C.3     1  UNL1        0.1713
     10 C          22.1870   72.7177    3.0667 C.3     1  UNL1        0.1764
     11 O          23.5085   73.1792    3.3892 O.3     1  UNL1       -0.3308
     12 O          20.3047   74.2672    2.9538 O.3     1  UNL1       -0.3794
     13 H          21.3211   76.5239    1.7283 H       1  UNL1        0.2106
     14 H          19.8560   75.0123    2.5319 H       1  UNL1        0.2105
     15 N          24.7872   75.1960    3.2506 N.ar    1  UNL1       -0.2551
     16 C          25.5693   75.4222    4.3211 C.ar    1  UNL1        0.3323
     17 N          26.8000   75.9495    4.1810 N.ar    1  UNL1       -0.2743
     18 C          27.2703   76.2589    2.9555 C.ar    1  UNL1        0.2626
     19 C          26.4581   76.0251    1.8198 C.ar    1  UNL1        0.0795
     20 C          25.2300   75.4916    1.9894 C.ar    1  UNL1        0.0869
     21 O          25.1583   75.1479    5.4321 O.2     1  UNL1       -0.2464
     22 O          28.3841   76.7358    2.8273 O.2     1  UNL1       -0.2670
     23 H          27.3504   76.1072    4.9635 H       1  UNL1        0.1734
     24 O          22.2914   71.8763   -1.6344 O.3     1  UNL1       -0.2703
     25 P          22.8410   71.7018   -3.1379 P.3     1  UNL1        0.2208
     26 O          23.7902   72.9485   -3.5098 O.3     1  UNL1       -0.4371
     27 O          23.6158   70.4456   -3.2375 O.2     1  UNL1       -0.5170
     28 O          21.5984   71.6490   -4.1605 O.3     1  UNL1       -0.2865
     29 C          20.7077   72.7481   -4.3608 C.3     1  UNL1        0.2611
     30 C          19.3372   72.2229   -4.7948 C.3     1  UNL1        0.1582
     31 C          19.4808   71.4910   -6.1327 C.3     1  UNL1        0.1625
     32 C          20.0889   72.4469   -7.1627 C.3     1  UNL1        0.1686
     33 C          21.4309   72.9635   -6.6372 C.3     1  UNL1        0.1760
     34 O          18.1937   71.0608   -6.5819 O.3     1  UNL1       -0.3801
     35 O          19.2027   73.5474   -7.3746 O.3     1  UNL1       -0.3794
     36 O          21.2315   73.6061   -5.3765 O.3     1  UNL1       -0.3263
     37 H          18.2097   70.5881   -7.4254 H       1  UNL1        0.2105
     38 H          19.5255   74.1951   -8.0166 H       1  UNL1        0.2105
     39 C          19.0774   69.9765   -3.8871 C.2     1  UNL1        0.2231
     40 C          18.5516   69.0232   -2.8463 C.3     1  UNL1        0.0946
     41 N          18.8251   71.2962   -3.7822 N.am    1  UNL1       -0.2994
     42 O          19.7286   69.5566   -4.8208 O.2     1  UNL1       -0.2751
     43 H          18.3037   71.6322   -3.0363 H       1  UNL1        0.1496
     44 C          22.0169   73.9654   -7.6337 C.3     1  UNL1        0.1693
     45 O          23.1176   73.3666   -8.3210 O.3     1  UNL1       -0.3794
     46 H          23.5390   73.9462   -8.9702 H       1  UNL1        0.2105
@<TRIPOS>BOND
     1    29    30    1
     2    30    41    1
     3    30    31    1
     4    31    34    1
     5    31    32    1
     6    32    35    1
     7    32    33    1
     8    33    36    1
     9    33    44    1
    10    39    40    1
    11    39    42    2
    12    39    41   am
    13    41    43    1
    14    29    28    1
    15    34    37    1
    16    35    38    1
    17    29    36    1
    18    44    45    1
    19    45    46    1
    20    15     6    1
    21    15    16   ar
    22    16    21    2
    23    16    17   ar
    24    17    23    1
    25    17    18   ar
    26    18    19   ar
    27    19    20   ar
    28    15    20   ar
    29    18    22    2
    30     6     7    1
    31     6    11    1
    32     7     9    1
    33     7     8    1
    34     8    13    1
    35     9    10    1
    36     9    12    1
    37    10     5    1
    38    10    11    1
    39    12    14    1
    40     5     4    1
    41     4     1    1
    42     1     2    1
    43     1    24    1
    44     1     3    2
    45    24    25    1
    46    28    25    1
    47    25    26    1
    48    25    27    2
@<TRIPOS>MOLECULE
UD2
 46 48 0 0 0
SMALL
GASTEIGER

@<TRIPOS>ATOM
      1 P          21.8750   70.6848   -0.6938 P.3     1  UNL1        0.2189
      2 O          21.5732   69.3398    0.1377 O.3     1  UNL1       -0.4371
      3 O          22.9009   70.4092   -1.7236 O.2     1  UNL1       -0.5170
      4 O          20.5218   71.1902   -1.4060 O.3     1  UNL1       -0.3112
      5 C          20.5129   71.8786   -2.6580 C.3     1  UNL1        0.1811
      6 C          18.0964   71.2557   -5.2481 C.3     1  UNL1        0.2383
      7 C          18.1255   69.9464   -4.4193 C.3     1  UNL1        0.1895
      8 O          16.8500   69.3026   -4.4376 O.3     1  UNL1       -0.3779
      9 C          18.4611   70.4671   -3.0003 C.3     1  UNL1        0.1713
     10 C          19.1004   71.8469   -3.2470 C.3     1  UNL1        0.1764
     11 O          19.1593   72.0432   -4.6688 O.3     1  UNL1       -0.3308
     12 O          17.2700   70.5990   -2.2227 O.3     1  UNL1       -0.3794
     13 H          16.8178   68.4784   -3.9333 H       1  UNL1        0.2106
     14 H          16.7945   69.7685   -2.0861 H       1  UNL1        0.2105
     15 N          18.3698   70.9786   -6.6600 N.ar    1  UNL1       -0.2551
     16 C          17.3466   70.8073   -7.5159 C.ar    1  UNL1        0.3323
     17 N          17.5685   70.5513   -8.8187 N.ar    1  UNL1       -0.2743
     18 C          18.8297   70.4641   -9.2880 C.ar    1  UNL1        0.2626
     19 C          19.9163   70.6433   -8.3985 C.ar    1  UNL1        0.0795
     20 C          19.6646   70.9030   -7.0983 C.ar    1  UNL1        0.0869
     21 O          16.2041   70.8833   -7.1067 O.2     1  UNL1       -0.2464
     22 O          19.0319   70.2329  -10.4671 O.2     1  UNL1       -0.2670
     23 H          16.8192   70.4292   -9.4219 H       1  UNL1        0.1734
     24 O          22.4121   71.8260    0.3075 O.3     1  UNL1       -0.2703
     25 P          21.7413   72.6695    1.5039 P.3     1  UNL1        0.2208
     26 O          20.7369   73.7675    0.8882 O.3     1  UNL1       -0.4371
     27 O          20.9885   71.7554    2.3905 O.2     1  UNL1       -0.5170
     28 O          22.8937   73.4103    2.3499 O.3     1  UNL1       -0.2865
     29 C          22.7799   74.7599    2.8047 C.3     1  UNL1        0.2611
     30 C          24.1590   75.2770    3.2211 C.3     1  UNL1        0.1582
     31 C          24.6792   74.4346    4.3900 C.3     1  UNL1        0.1625
     32 C          23.6668   74.4926    5.5372 C.3     1  UNL1        0.1686
     33 C          22.3064   74.0055    5.0314 C.3     1  UNL1        0.1760
     34 O          25.9338   74.9567    4.8333 O.3     1  UNL1       -0.3801
     35 O          23.5498   75.8380    6.0035 O.3     1  UNL1       -0.3794
     36 O          21.8947   74.8114    3.9255 O.3     1  UNL1       -0.3263
     37 H          26.3227   74.4699    5.5728 H       1  UNL1        0.2105
     38 H          22.9228   75.9495    6.7318 H       1  UNL1        0.2105
     39 C          25.9690   76.1559    1.8466 C.2     1  UNL1        0.2231
     40 C          26.9204   76.0457    0.6842 C.3     1  UNL1        0.0946
     41 N          25.0840   75.1692    2.0900 N.am    1  UNL1       -0.2994
     42 O          25.9989   77.1336    2.5646 O.2     1  UNL1       -0.2751
     43 H          25.0591   74.3878    1.5157 H       1  UNL1        0.1496
     44 C          21.2749   74.1166    6.1558 C.3     1  UNL1        0.1693
     45 O          21.9413   74.0836    7.4196 O.3     1  UNL1       -0.3794
     46 H          21.3475   74.1497    8.1798 H       1  UNL1        0.2105
@<TRIPOS>BOND
     1    29    30    1
     2    30    41    1
     3    30    31    1
     4    31    34    1
     5    31    32    1
     6    32    35    1
     7    32    33    1
     8    33    36    1
     9    33    44    1
    10    39    40    1
    11    39    42    2
    12    39    41   am
    13    41    43    1
    14    29    28    1
    15    34    37    1
    16    35    38    1
    17    29    36    1
    18    44    45    1
    19    45    46    1
    20    15     6    1
    21    15    16   ar
    22    16    21    2
    23    16    17   ar
    24    17    23    1
    25    17    18   ar
    26    18    19   ar
    27    19    20   ar
    28    15    20   ar
    29    18    22    2
    30     6     7    1
    31     6    11    1
    32     7     9    1
    33     7     8    1
    34     8    13    1
    35     9    10    1
    36     9    12    1
    37    10     5    1
    38    10    11    1
    39    12    14    1
    40     5     4    1
    41     4     1    1
    42     1     2    1
    43     1    24    1
    44     1     3    2
    45    24    25    1
    46    28    25    1
    47    25    26    1
    48    25    27    2
@<TRIPOS>MOLECULE
UD2
 46 48 0 0 0
SMALL
GASTEIGER

@<TRIPOS>ATOM
      1 P          21.9861   70.8468   -0.2505 P.3     1  UNL1        0.2189
      2 O          21.5579   69.5504    0.6024 O.3     1  UNL1       -0.4371
      3 O          23.1531   70.5170   -1.0980 O.2     1  UNL1       -0.5170
      4 O          20.7566   71.3047   -1.1845 O.3     1  UNL1       -0.3112
      5 C          20.7939   71.2288   -2.6108 C.3     1  UNL1        0.1811
      6 C          18.2763   71.1281   -5.1775 C.3     1  UNL1        0.2383
      7 C          18.1159   69.7847   -4.4214 C.3     1  UNL1        0.1895
      8 O          16.7568   69.3443   -4.4466 O.3     1  UNL1       -0.3779
      9 C          18.5460   70.1671   -2.9840 C.3     1  UNL1        0.1713
     10 C          19.3855   71.4455   -3.1697 C.3     1  UNL1        0.1764
     11 O          19.4548   71.7108   -4.5798 O.3     1  UNL1       -0.3308
     12 O          17.3996   70.4342   -2.1746 O.3     1  UNL1       -0.3794
     13 H          16.6057   68.5073   -3.9869 H       1  UNL1        0.2106
     14 H          16.8045   69.6792   -2.0727 H       1  UNL1        0.2105
     15 N          18.4853   70.8931   -6.6079 N.ar    1  UNL1       -0.2551
     16 C          17.4242   70.7663   -7.4245 C.ar    1  UNL1        0.3323
     17 N          17.5867   70.5497   -8.7431 N.ar    1  UNL1       -0.2743
     18 C          18.8254   70.4579   -9.2683 C.ar    1  UNL1        0.2626
     19 C          19.9514   70.5905   -8.4205 C.ar    1  UNL1        0.0795
     20 C          19.7590   70.8114   -7.1030 C.ar    1  UNL1        0.0869
     21 O          16.3015   70.8471   -6.9648 O.2     1  UNL1       -0.2464
     22 O          18.9739   70.2623  -10.4617 O.2     1  UNL1       -0.2670
     23 H          16.8108   70.4594   -9.3175 H       1  UNL1        0.1734
     24 O          22.3726   72.0458    0.7527 O.3     1  UNL1       -0.2703
     25 P          21.5346   72.9523    1.7866 P.3     1  UNL1        0.2208
     26 O          20.3708   73.7335    0.9935 O.3     1  UNL1       -0.4371
     27 O          20.9295   72.0875    2.8231 O.2     1  UNL1       -0.5170
     28 O          22.5184   74.0190    2.4844 O.3     1  UNL1       -0.2865
     29 C          23.1944   73.7643    3.7171 C.3     1  UNL1        0.2611
     30 C          22.5996   74.6459    4.8179 C.3     1  UNL1        0.1582
     31 C          22.8254   76.1179    4.4591 C.3     1  UNL1        0.1625
     32 C          24.3249   76.3612    4.2674 C.3     1  UNL1        0.1686
     33 C          24.8533   75.4133    3.1874 C.3     1  UNL1        0.1760
     34 O          22.3384   76.9470    5.5168 O.3     1  UNL1       -0.3801
     35 O          25.0098   76.1146    5.4967 O.3     1  UNL1       -0.3794
     36 O          24.5840   74.0626    3.5683 O.3     1  UNL1       -0.3263
     37 H          22.4486   77.8942    5.3560 H       1  UNL1        0.2105
     38 H          25.9667   76.2490    5.4485 H       1  UNL1        0.2105
     39 C          20.6234   74.0896    6.1305 C.2     1  UNL1        0.2231
     40 C          19.1460   73.8209    6.2478 C.3     1  UNL1        0.0946
     41 N          21.1624   74.3844    4.9311 N.am    1  UNL1       -0.2994
     42 O          21.3291   74.0407    7.1163 O.2     1  UNL1       -0.2751
     43 H          20.5987   74.4226    4.1426 H       1  UNL1        0.1496
     44 C          26.3626   75.6085    3.0319 C.3     1  UNL1        0.1693
     45 O          26.6520   76.0521    1.7045 O.3     1  UNL1       -0.3794
     46 H          27.5927   76.1968    1.5339 H       1  UNL1        0.2105
@<TRIPOS>BOND
     1    29    30    1
     2    30    41    1
     3    30    31    1
     4    31    34    1
     5    31    32    1
     6    32    35    1
     7    32    33    1
     8    33    36    1
     9    33    44    1
    10    39    40    1
    11    39    42    2
    12    39    41   am
    13    41    43    1
    14    29    28    1
    15    34    37    1
    16    35    38    1
    17    29    36    1
    18    44    45    1
    19    45    46    1
    20    15     6    1
    21    15    16   ar
    22    16    21    2
    23    16    17   ar
    24    17    23    1
    25    17    18   ar
    26    18    19   ar
    27    19    20   ar
    28    15    20   ar
    29    18    22    2
    30     6     7    1
    31     6    11    1
    32     7     9    1
    33     7     8    1
    34     8    13    1
    35     9    10    1
    36     9    12    1
    37    10     5    1
    38    10    11    1
    39    12    14    1
    40     5     4    1
    41     4     1    1
    42     1     2    1
    43     1    24    1
    44     1     3    2
    45    24    25    1
    46    28    25    1
    47    25    26    1
    48    25    27    2
@<TRIPOS>MOLECULE
UD2
 46 48 0 0 0
SMALL
GASTEIGER

@<TRIPOS>ATOM
      1 P          21.9375   74.1053   -6.1548 P.3     1  UNL1        0.2189
      2 O          23.1623   75.1495   -6.1866 O.3     1  UNL1       -0.4371
      3 O          20.6610   74.8363   -6.3124 O.2     1  UNL1       -0.5170
      4 O          22.1027   73.0478   -7.3582 O.3     1  UNL1       -0.3112
      5 C          21.5026   73.2313   -8.6418 C.3     1  UNL1        0.1811
      6 C          18.8830   71.0602   -7.4752 C.3     1  UNL1        0.2383
      7 C          18.1699   72.4018   -7.7813 C.3     1  UNL1        0.1895
      8 O          16.8212   72.1792   -8.1974 O.3     1  UNL1       -0.3779
      9 C          19.0214   72.9646   -8.9455 C.3     1  UNL1        0.1713
     10 C          20.3657   72.2223   -8.8219 C.3     1  UNL1        0.1764
     11 O          20.2801   71.3714   -7.6677 O.3     1  UNL1       -0.3308
     12 O          18.4035   72.6756  -10.2007 O.3     1  UNL1       -0.3794
     13 H          16.3330   72.9888   -8.3999 H       1  UNL1        0.2106
     14 H          17.5275   73.0698  -10.3087 H       1  UNL1        0.2105
     15 N          18.6320   70.6462   -6.0929 N.ar    1  UNL1       -0.2551
     16 C          17.4732   70.0401   -5.7788 C.ar    1  UNL1        0.3323
     17 N          17.2158   69.6491   -4.5167 N.ar    1  UNL1       -0.2743
     18 C          18.1239   69.8598   -3.5423 C.ar    1  UNL1        0.2626
     19 C          19.3483   70.4959   -3.8590 C.ar    1  UNL1        0.0795
     20 C          19.5817   70.8735   -5.1335 C.ar    1  UNL1        0.0869
     21 O          16.6453   69.8435   -6.6473 O.2     1  UNL1       -0.2464
     22 O          17.8923   69.5061   -2.3996 O.2     1  UNL1       -0.2670
     23 H          16.3747   69.2145   -4.3072 H       1  UNL1        0.1734
     24 O          21.9371   73.3209   -4.7483 O.3     1  UNL1       -0.2703
     25 P          23.0844   72.9185   -3.6925 P.3     1  UNL1        0.2208
     26 O          23.2959   71.3221   -3.7130 O.3     1  UNL1       -0.4371
     27 O          24.3510   73.5881   -4.0608 O.2     1  UNL1       -0.5170
     28 O          22.6411   73.3826   -2.2157 O.3     1  UNL1       -0.2865
     29 C          21.4079   72.9866   -1.6126 C.3     1  UNL1        0.2611
     30 C          21.0983   73.9075   -0.4299 C.3     1  UNL1        0.1582
     31 C          22.2002   73.7591    0.6238 C.3     1  UNL1        0.1625
     32 C          22.2968   72.2894    1.0423 C.3     1  UNL1        0.1686
     33 C          22.5603   71.4306   -0.1975 C.3     1  UNL1        0.1760
     34 O          21.8813   74.5603    1.7638 O.3     1  UNL1       -0.3801
     35 O          21.0697   71.8848    1.6521 O.3     1  UNL1       -0.3794
     36 O          21.5156   71.6387   -1.1500 O.3     1  UNL1       -0.3263
     37 H          22.5382   74.5149    2.4721 H       1  UNL1        0.2105
     38 H          21.0595   70.9618    1.9421 H       1  UNL1        0.2105
     39 C          19.8584   75.8775   -1.1506 C.2     1  UNL1        0.2231
     40 C          19.8044   77.3059   -1.6255 C.3     1  UNL1        0.0946
     41 N          21.0467   75.2969   -0.8921 N.am    1  UNL1       -0.2994
     42 O          18.8315   75.2488   -1.0006 O.2     1  UNL1       -0.2751
     43 H          21.8679   75.7989   -1.0128 H       1  UNL1        0.1496
     44 C          22.5989   69.9548    0.2035 C.3     1  UNL1        0.1693
     45 O          23.2341   69.8228    1.4768 O.3     1  UNL1       -0.3794
     46 H          23.2938   68.9115    1.7946 H       1  UNL1        0.2105
@<TRIPOS>BOND
     1    29    30    1
     2    30    41    1
     3    30    31    1
     4    31    34    1
     5    31    32    1
     6    32    35    1
     7    32    33    1
     8    33    36    1
     9    33    44    1
    10    39    40    1
    11    39    42    2
    12    39    41   am
    13    41    43    1
    14    29    28    1
    15    34    37    1
    16    35    38    1
    17    29    36    1
    18    44    45    1
    19    45    46    1
    20    15     6    1
    21    15    16   ar
    22    16    21    2
    23    16    17   ar
    24    17    23    1
    25    17    18   ar
    26    18    19   ar
    27    19    20   ar
    28    15    20   ar
    29    18    22    2
    30     6     7    1
    31     6    11    1
    32     7     9    1
    33     7     8    1
    34     8    13    1
    35     9    10    1
    36     9    12    1
    37    10     5    1
    38    10    11    1
    39    12    14    1
    40     5     4    1
    41     4     1    1
    42     1     2    1
    43     1    24    1
    44     1     3    2
    45    24    25    1
    46    28    25    1
    47    25    26    1
    48    25    27    2
@<TRIPOS>MOLECULE
UD2
 46 48 0 0 0
SMALL
GASTEIGER

@<TRIPOS>ATOM
      1 P          21.9172   70.7662   -0.4857 P.3     1  UNL1        0.2189
      2 O          21.5929   69.4679    0.4090 O.3     1  UNL1       -0.4371
      3 O          23.0144   70.4551   -1.4281 O.2     1  UNL1       -0.5170
      4 O          20.6022   71.1893   -1.3136 O.3     1  UNL1       -0.3112
      5 C          20.6470   71.6257   -2.6734 C.3     1  UNL1        0.1811
      6 C          18.1657   71.1884   -5.2403 C.3     1  UNL1        0.2383
      7 C          18.1474   69.8556   -4.4494 C.3     1  UNL1        0.1895
      8 O          16.8436   69.2712   -4.4651 O.3     1  UNL1       -0.3779
      9 C          18.5278   70.3192   -3.0219 C.3     1  UNL1        0.1713
     10 C          19.2258   71.6752   -3.2399 C.3     1  UNL1        0.1764
     11 O          19.2722   71.9098   -4.6563 O.3     1  UNL1       -0.3308
     12 O          17.3558   70.4824   -2.2215 O.3     1  UNL1       -0.3794
     13 H          16.7813   68.4350   -3.9838 H       1  UNL1        0.2106
     14 H          16.8449   69.6707   -2.1007 H       1  UNL1        0.2105
     15 N          18.4049   70.9403   -6.6638 N.ar    1  UNL1       -0.2551
     16 C          17.3614   70.7689   -7.4948 C.ar    1  UNL1        0.3323
     17 N          17.5518   70.5392   -8.8075 N.ar    1  UNL1       -0.2743
     18 C          18.8010   70.4791   -9.3119 C.ar    1  UNL1        0.2626
     19 C          19.9085   70.6588   -8.4487 C.ar    1  UNL1        0.0795
     20 C          19.6882   70.8918   -7.1377 C.ar    1  UNL1        0.0869
     21 O          16.2295   70.8207   -7.0539 O.2     1  UNL1       -0.2464
     22 O          18.9746   70.2717  -10.5000 O.2     1  UNL1       -0.2670
     23 H          16.7883   70.4166   -9.3926 H       1  UNL1        0.1734
     24 O          22.3610   71.9817    0.4730 O.3     1  UNL1       -0.2703
     25 P          21.6019   72.8596    1.5892 P.3     1  UNL1        0.2208
     26 O          20.3703   73.6432    0.9087 O.3     1  UNL1       -0.4371
     27 O          21.0912   71.9691    2.6543 O.2     1  UNL1       -0.5170
     28 O          22.6296   73.9235    2.2254 O.3     1  UNL1       -0.2865
     29 C          22.6383   75.3068    1.8682 C.3     1  UNL1        0.2611
     30 C          23.9728   75.6550    1.2043 C.3     1  UNL1        0.1582
     31 C          25.1073   75.4265    2.2078 C.3     1  UNL1        0.1625
     32 C          24.8446   76.2684    3.4595 C.3     1  UNL1        0.1686
     33 C          23.4762   75.8964    4.0366 C.3     1  UNL1        0.1760
     34 O          26.3501   75.8189    1.6205 O.3     1  UNL1       -0.3801
     35 O          24.8570   77.6547    3.1140 O.3     1  UNL1       -0.3794
     36 O          22.4700   76.1028    3.0431 O.3     1  UNL1       -0.3263
     37 H          27.1140   75.7003    2.2015 H       1  UNL1        0.2105
     38 H          24.6961   78.2483    3.8608 H       1  UNL1        0.2105
     39 C          24.1850   75.3365   -1.2021 C.2     1  UNL1        0.2231
     40 C          24.3930   74.4563   -2.4066 C.3     1  UNL1        0.0946
     41 N          24.1750   74.7981    0.0332 N.am    1  UNL1       -0.2994
     42 O          24.0262   76.5310   -1.3437 O.2     1  UNL1       -0.2751
     43 H          24.3009   73.8430    0.1468 H       1  UNL1        0.1496
     44 C          23.1800   76.7754    5.2532 C.3     1  UNL1        0.1693
     45 O          21.8112   77.1849    5.2240 O.3     1  UNL1       -0.3794
     46 H          21.5521   77.7465    5.9673 H       1  UNL1        0.2105
@<TRIPOS>BOND
     1    29    30    1
     2    30    41    1
     3    30    31    1
     4    31    34    1
     5    31    32    1
     6    32    35    1
     7    32    33    1
     8    33    36    1
     9    33    44    1
    10    39    40    1
    11    39    42    2
    12    39    41   am
    13    41    43    1
    14    29    28    1
    15    34    37    1
    16    35    38    1
    17    29    36    1
    18    44    45    1
    19    45    46    1
    20    15     6    1
    21    15    16   ar
    22    16    21    2
    23    16    17   ar
    24    17    23    1
    25    17    18   ar
    26    18    19   ar
    27    19    20   ar
    28    15    20   ar
    29    18    22    2
    30     6     7    1
    31     6    11    1
    32     7     9    1
    33     7     8    1
    34     8    13    1
    35     9    10    1
    36     9    12    1
    37    10     5    1
    38    10    11    1
    39    12    14    1
    40     5     4    1
    41     4     1    1
    42     1     2    1
    43     1    24    1
    44     1     3    2
    45    24    25    1
    46    28    25    1
    47    25    26    1
    48    25    27    2
@<TRIPOS>MOLECULE
UD2
 46 48 0 0 0
SMALL
GASTEIGER

@<TRIPOS>ATOM
      1 P          22.0747   70.8620   -2.6638 P.3     1  UNL1        0.2189
      2 O          23.5443   70.7024   -3.3011 O.3     1  UNL1       -0.4371
      3 O          21.2954   69.6276   -2.9042 O.2     1  UNL1       -0.5170
      4 O          22.2020   71.1163   -1.0786 O.3     1  UNL1       -0.3112
      5 C          21.0990   71.5201   -0.2652 C.3     1  UNL1        0.1811
      6 C          21.6655   74.2622    1.9923 C.3     1  UNL1        0.2383
      7 C          23.0678   73.9316    1.4211 C.3     1  UNL1        0.1895
      8 O          23.8817   75.1043    1.3565 O.3     1  UNL1       -0.3779
      9 C          22.7275   73.4165    0.0012 C.3     1  UNL1        0.1713
     10 C          21.2473   73.0001    0.0964 C.3     1  UNL1        0.1764
     11 O          20.8286   73.2159    1.4535 O.3     1  UNL1       -0.3308
     12 O          22.8932   74.4595   -0.9609 O.3     1  UNL1       -0.3794
     13 H          24.7692   74.9486    1.0061 H       1  UNL1        0.2106
     14 H          23.7956   74.8009   -1.0205 H       1  UNL1        0.2105
     15 N          21.6793   74.2101    3.4559 N.ar    1  UNL1       -0.2551
     16 C          21.8638   73.0326    4.0791 C.ar    1  UNL1        0.3323
     17 N          21.8808   72.9551    5.4229 N.ar    1  UNL1       -0.2743
     18 C          21.7137   74.0660    6.1690 C.ar    1  UNL1        0.2626
     19 C          21.5196   75.3123    5.5262 C.ar    1  UNL1        0.0795
     20 C          21.5112   75.3612    4.1775 C.ar    1  UNL1        0.0869
     21 O          22.0160   72.0228    3.4191 O.2     1  UNL1       -0.2464
     22 O          21.7293   73.9973    7.3853 O.2     1  UNL1       -0.2670
     23 H          22.0138   72.0979    5.8562 H       1  UNL1        0.1734
     24 O          21.3253   72.1121   -3.3486 O.3     1  UNL1       -0.2703
     25 P          21.3438   72.7543   -4.8252 P.3     1  UNL1        0.2208
     26 O          21.0388   74.3327   -4.7272 O.3     1  UNL1       -0.4371
     27 O          22.6745   72.5467   -5.4371 O.2     1  UNL1       -0.5170
     28 O          20.2186   72.0452   -5.7328 O.3     1  UNL1       -0.2865
     29 C          19.2036   72.7743   -6.4253 C.3     1  UNL1        0.2611
     30 C          17.8252   72.2825   -5.9774 C.3     1  UNL1        0.1582
     31 C          17.6735   70.8048   -6.3515 C.3     1  UNL1        0.1625
     32 C          17.8843   70.6469   -7.8598 C.3     1  UNL1        0.1686
     33 C          19.2610   71.2018   -8.2351 C.3     1  UNL1        0.1760
     34 O          16.3616   70.3566   -6.0031 O.3     1  UNL1       -0.3801
     35 O          16.8704   71.3681   -8.5619 O.3     1  UNL1       -0.3794
     36 O          19.3471   72.5702   -7.8324 O.3     1  UNL1       -0.3263
     37 H          16.1957   69.4270   -6.2117 H       1  UNL1        0.2105
     38 H          16.9427   71.3126   -9.5251 H       1  UNL1        0.2105
     39 C          17.9822   71.3999   -3.7116 C.2     1  UNL1        0.2231
     40 C          17.8528   71.5565   -2.2192 C.3     1  UNL1        0.0946
     41 N          17.6988   72.4356   -4.5258 N.am    1  UNL1       -0.2994
     42 O          18.3417   70.3406   -4.1816 O.2     1  UNL1       -0.2751
     43 H          17.4104   73.2824   -4.1506 H       1  UNL1        0.1496
     44 C          19.4552   71.1023   -9.7493 C.3     1  UNL1        0.1693
     45 O          18.7234   72.1469  -10.3939 O.3     1  UNL1       -0.3794
     46 H          18.8007   72.1452  -11.3577 H       1  UNL1        0.2105
@<TRIPOS>BOND
     1    29    30    1
     2    30    41    1
     3    30    31    1
     4    31    34    1
     5    31    32    1
     6    32    35    1
     7    32    33    1
     8    33    36    1
     9    33    44    1
    10    39    40    1
    11    39    42    2
    12    39    41   am
    13    41    43    1
    14    29    28    1
    15    34    37    1
    16    35    38    1
    17    29    36    1
    18    44    45    1
    19    45    46    1
    20    15     6    1
    21    15    16   ar
    22    16    21    2
    23    16    17   ar
    24    17    23    1
    25    17    18   ar
    26    18    19   ar
    27    19    20   ar
    28    15    20   ar
    29    18    22    2
    30     6     7    1
    31     6    11    1
    32     7     9    1
    33     7     8    1
    34     8    13    1
    35     9    10    1
    36     9    12    1
    37    10     5    1
    38    10    11    1
    39    12    14    1
    40     5     4    1
    41     4     1    1
    42     1     2    1
    43     1    24    1
    44     1     3    2
    45    24    25    1
    46    28    25    1
    47    25    26    1
    48    25    27    2
@<TRIPOS>MOLECULE
UD2
 46 48 0 0 0
SMALL
GASTEIGER

@<TRIPOS>ATOM
      1 P          22.8058   71.9659   -3.2480 P.3     1  UNL1        0.2189
      2 O          23.0191   72.6724   -1.8174 O.3     1  UNL1       -0.4371
      3 O          23.4755   70.6466   -3.2521 O.2     1  UNL1       -0.5170
      4 O          21.2306   71.7691   -3.5196 O.3     1  UNL1       -0.3112
      5 C          20.2268   72.1342   -2.5707 C.3     1  UNL1        0.1811
      6 C          17.9636   71.3870   -5.2644 C.3     1  UNL1        0.2383
      7 C          17.9810   70.0997   -4.4016 C.3     1  UNL1        0.1895
      8 O          16.7239   69.4236   -4.4687 O.3     1  UNL1       -0.3779
      9 C          18.2299   70.6634   -2.9812 C.3     1  UNL1        0.1713
     10 C          18.8480   72.0525   -3.2304 C.3     1  UNL1        0.1764
     11 O          18.9759   72.2151   -4.6519 O.3     1  UNL1       -0.3308
     12 O          16.9973   70.7843   -2.2694 O.3     1  UNL1       -0.3794
     13 H          16.6854   68.6116   -3.9456 H       1  UNL1        0.2106
     14 H          16.5353   69.9457   -2.1360 H       1  UNL1        0.2105
     15 N          18.3165   71.0823   -6.6528 N.ar    1  UNL1       -0.2551
     16 C          17.3443   70.8370   -7.5491 C.ar    1  UNL1        0.3323
     17 N          17.6396   70.5540   -8.8316 N.ar    1  UNL1       -0.2743
     18 C          18.9244   70.5141   -9.2393 C.ar    1  UNL1        0.2626
     19 C          19.9579   70.7713   -8.3067 C.ar    1  UNL1        0.0795
     20 C          19.6327   71.0564   -7.0283 C.ar    1  UNL1        0.0869
     21 O          16.1814   70.8698   -7.1956 O.2     1  UNL1       -0.2464
     22 O          19.1931   70.2585  -10.4000 O.2     1  UNL1       -0.2670
     23 H          16.9264   70.3785   -9.4646 H       1  UNL1        0.1734
     24 O          23.4373   72.8923   -4.4039 O.3     1  UNL1       -0.2703
     25 P          23.2630   74.4389   -4.8170 P.3     1  UNL1        0.2208
     26 O          23.0966   74.5516   -6.4149 O.3     1  UNL1       -0.4371
     27 O          22.0615   74.9939   -4.1562 O.2     1  UNL1       -0.5170
     28 O          24.5628   75.2681   -4.3525 O.3     1  UNL1       -0.2865
     29 C          25.4604   74.8063   -3.3414 C.3     1  UNL1        0.2611
     30 C          25.6743   75.9114   -2.3042 C.3     1  UNL1        0.1582
     31 C          26.3231   77.1203   -2.9853 C.3     1  UNL1        0.1625
     32 C          27.6339   76.6797   -3.6428 C.3     1  UNL1        0.1686
     33 C          27.3443   75.5448   -4.6287 C.3     1  UNL1        0.1760
     34 O          26.5938   78.1294   -2.0097 O.3     1  UNL1       -0.3801
     35 O          28.5412   76.2212   -2.6389 O.3     1  UNL1       -0.3794
     36 O          26.7136   74.4648   -3.9374 O.3     1  UNL1       -0.3263
     37 H          27.0052   78.9260   -2.3721 H       1  UNL1        0.2105
     38 H          29.3947   75.9249   -2.9849 H       1  UNL1        0.2105
     39 C          24.0094   75.8402   -0.5264 C.2     1  UNL1        0.2231
     40 C          22.6821   76.2443    0.0597 C.3     1  UNL1        0.0946
     41 N          24.3829   76.3048   -1.7349 N.am    1  UNL1       -0.2994
     42 O          24.7432   75.0957    0.0897 O.2     1  UNL1       -0.2751
     43 H          23.7961   76.8992   -2.2282 H       1  UNL1        0.1496
     44 C          28.6569   75.0584   -5.2458 C.3     1  UNL1        0.1693
     45 O          29.2288   74.0463   -4.4146 O.3     1  UNL1       -0.3794
     46 H          30.0651   73.6911   -4.7453 H       1  UNL1        0.2105
@<TRIPOS>BOND
     1    29    30    1
     2    30    41    1
     3    30    31    1
     4    31    34    1
     5    31    32    1
     6    32    35    1
     7    32    33    1
     8    33    36    1
     9    33    44    1
    10    39    40    1
    11    39    42    2
    12    39    41   am
    13    41    43    1
    14    29    28    1
    15    34    37    1
    16    35    38    1
    17    29    36    1
    18    44    45    1
    19    45    46    1
    20    15     6    1
    21    15    16   ar
    22    16    21    2
    23    16    17   ar
    24    17    23    1
    25    17    18   ar
    26    18    19   ar
    27    19    20   ar
    28    15    20   ar
    29    18    22    2
    30     6     7    1
    31     6    11    1
    32     7     9    1
    33     7     8    1
    34     8    13    1
    35     9    10    1
    36     9    12    1
    37    10     5    1
    38    10    11    1
    39    12    14    1
    40     5     4    1
    41     4     1    1
    42     1     2    1
    43     1    24    1
    44     1     3    2
    45    24    25    1
    46    28    25    1
    47    25    26    1
    48    25    27    2
@<TRIPOS>MOLECULE
UD2
 46 48 0 0 0
SMALL
GASTEIGER

@<TRIPOS>ATOM
      1 P          21.8214   70.4777   -2.4579 P.3     1  UNL1        0.2189
      2 O          23.2634   70.6682   -3.1476 O.3     1  UNL1       -0.4371
      3 O          21.9849   69.8113   -1.1472 O.2     1  UNL1       -0.5170
      4 O          21.1338   71.9184   -2.2455 O.3     1  UNL1       -0.3112
      5 C          20.4457   72.2821   -1.0473 C.3     1  UNL1        0.1811
      6 C          21.6749   74.5415    1.4668 C.3     1  UNL1        0.2383
      7 C          22.9500   73.9026    0.8601 C.3     1  UNL1        0.1895
      8 O          24.0494   74.8140    0.9078 O.3     1  UNL1       -0.3779
      9 C          22.5162   73.6364   -0.6023 C.3     1  UNL1        0.1713
     10 C          20.9767   73.6259   -0.5424 C.3     1  UNL1        0.1764
     11 O          20.6007   73.8152    0.8310 O.3     1  UNL1       -0.3308
     12 O          22.9767   74.6838   -1.4577 O.3     1  UNL1       -0.3794
     13 H          24.8704   74.4598    0.5402 H       1  UNL1        0.2106
     14 H          23.9387   74.7742   -1.4872 H       1  UNL1        0.2105
     15 N          21.6413   74.3475    2.9181 N.ar    1  UNL1       -0.2551
     16 C          21.3103   73.1454    3.4222 C.ar    1  UNL1        0.3323
     17 N          21.2711   72.9388    4.7519 N.ar    1  UNL1       -0.2743
     18 C          21.5673   73.9415    5.6036 C.ar    1  UNL1        0.2626
     19 C          21.9184   75.2117    5.0867 C.ar    1  UNL1        0.0795
     20 C          21.9537   75.3895    3.7492 C.ar    1  UNL1        0.0869
     21 O          21.0410   72.2321    2.6660 O.2     1  UNL1       -0.2464
     22 O          21.5326   73.7556    6.8072 O.2     1  UNL1       -0.2670
     23 H          21.0293   72.0662    5.0986 H       1  UNL1        0.1734
     24 O          20.8873   69.5728   -3.4076 O.3     1  UNL1       -0.2703
     25 P          19.3082   69.2608   -3.4527 P.3     1  UNL1        0.2208
     26 O          19.0796   67.6867   -3.7049 O.3     1  UNL1       -0.4371
     27 O          18.6916   69.6481   -2.1650 O.2     1  UNL1       -0.5170
     28 O          18.6293   70.1003   -4.6474 O.3     1  UNL1       -0.2865
     29 C          19.2055   71.2910   -5.1873 C.3     1  UNL1        0.2611
     30 C          18.1842   72.4291   -5.1200 C.3     1  UNL1        0.1582
     31 C          16.9713   72.0668   -5.9826 C.3     1  UNL1        0.1625
     32 C          17.4402   71.7915   -7.4139 C.3     1  UNL1        0.1686
     33 C          18.4904   70.6777   -7.3927 C.3     1  UNL1        0.1760
     34 O          16.0449   73.1553   -5.9846 O.3     1  UNL1       -0.3801
     35 O          18.0132   72.9784   -7.9654 O.3     1  UNL1       -0.3794
     36 O          19.5765   71.0652   -6.5488 O.3     1  UNL1       -0.3263
     37 H          15.2504   72.9942   -6.5119 H       1  UNL1        0.2105
     38 H          18.3333   72.8766   -8.8727 H       1  UNL1        0.2105
     39 C          16.6463   72.0108   -3.2768 C.2     1  UNL1        0.2231
     40 C          16.2072   72.2087   -1.8497 C.3     1  UNL1        0.0946
     41 N          17.7576   72.6223   -3.7318 N.am    1  UNL1       -0.2994
     42 O          15.9993   71.3005   -4.0178 O.2     1  UNL1       -0.2751
     43 H          18.2747   73.1911   -3.1400 H       1  UNL1        0.1496
     44 C          19.0077   70.4377   -8.8123 C.3     1  UNL1        0.1693
     45 O          20.2682   69.7667   -8.7538 O.3     1  UNL1       -0.3794
     46 H          20.6565   69.5817   -9.6198 H       1  UNL1        0.2105
@<TRIPOS>BOND
     1    29    30    1
     2    30    41    1
     3    30    31    1
     4    31    34    1
     5    31    32    1
     6    32    35    1
     7    32    33    1
     8    33    36    1
     9    33    44    1
    10    39    40    1
    11    39    42    2
    12    39    41   am
    13    41    43    1
    14    29    28    1
    15    34    37    1
    16    35    38    1
    17    29    36    1
    18    44    45    1
    19    45    46    1
    20    15     6    1
    21    15    16   ar
    22    16    21    2
    23    16    17   ar
    24    17    23    1
    25    17    18   ar
    26    18    19   ar
    27    19    20   ar
    28    15    20   ar
    29    18    22    2
    30     6     7    1
    31     6    11    1
    32     7     9    1
    33     7     8    1
    34     8    13    1
    35     9    10    1
    36     9    12    1
    37    10     5    1
    38    10    11    1
    39    12    14    1
    40     5     4    1
    41     4     1    1
    42     1     2    1
    43     1    24    1
    44     1     3    2
    45    24    25    1
    46    28    25    1
    47    25    26    1
    48    25    27    2
@<TRIPOS>MOLECULE
UD2
 46 48 0 0 0
SMALL
GASTEIGER

@<TRIPOS>ATOM
      1 P          22.3894   70.8988   -2.2883 P.3     1  UNL1        0.2189
      2 O          23.6177   70.6764   -3.3047 O.3     1  UNL1       -0.4371
      3 O          21.6512   69.6278   -2.1200 O.2     1  UNL1       -0.5170
      4 O          22.9555   71.3838   -0.8607 O.3     1  UNL1       -0.3112
      5 C          22.3679   70.9933    0.3817 C.3     1  UNL1        0.1811
      6 C          20.8129   73.3844    2.5730 C.3     1  UNL1        0.2383
      7 C          21.7262   74.2346    1.6537 C.3     1  UNL1        0.1895
      8 O          21.1760   75.5379    1.4525 O.3     1  UNL1       -0.3779
      9 C          21.7118   73.4196    0.3373 C.3     1  UNL1        0.1713
     10 C          21.2882   72.0046    0.7750 C.3     1  UNL1        0.1764
     11 O          21.1358   72.0262    2.2032 O.3     1  UNL1       -0.3308
     12 O          20.7606   73.9664   -0.5776 O.3     1  UNL1       -0.3794
     13 H          21.7118   76.1078    0.8844 H       1  UNL1        0.2106
     14 H          20.9462   74.8778   -0.8412 H       1  UNL1        0.2105
     15 N          21.1313   73.6255    3.9821 N.ar    1  UNL1       -0.2551
     16 C          20.1387   73.8578    4.8593 C.ar    1  UNL1        0.3323
     17 N          20.4023   74.0827    6.1601 N.ar    1  UNL1       -0.2743
     18 C          21.6750   74.0763    6.6057 C.ar    1  UNL1        0.2626
     19 C          22.7297   73.8321    5.6935 C.ar    1  UNL1        0.0795
     20 C          22.4361   73.6056    4.3958 C.ar    1  UNL1        0.0869
     21 O          18.9863   73.8662    4.4716 O.2     1  UNL1       -0.2464
     22 O          21.9149   74.2793    7.7829 O.2     1  UNL1       -0.2670
     23 H          19.6748   74.2497    6.7790 H       1  UNL1        0.1734
     24 O          21.3983   72.0211   -2.8811 O.3     1  UNL1       -0.2703
     25 P          21.2528   72.7391   -4.3151 P.3     1  UNL1        0.2208
     26 O          21.2911   74.3374   -4.1208 O.3     1  UNL1       -0.4371
     27 O          22.3694   72.3224   -5.1914 O.2     1  UNL1       -0.5170
     28 O          19.8536   72.3134   -4.9888 O.3     1  UNL1       -0.2865
     29 C          19.6336   71.0331   -5.5834 C.3     1  UNL1        0.2611
     30 C          18.3623   71.0763   -6.4345 C.3     1  UNL1        0.1582
     31 C          17.1635   71.3817   -5.5311 C.3     1  UNL1        0.1625
     32 C          17.0872   70.3235   -4.4272 C.3     1  UNL1        0.1686
     33 C          18.4081   70.3093   -3.6532 C.3     1  UNL1        0.1760
     34 O          15.9624   71.3515   -6.3055 O.3     1  UNL1       -0.3801
     35 O          16.8615   69.0393   -5.0113 O.3     1  UNL1       -0.3794
     36 O          19.4848   70.0506   -4.5563 O.3     1  UNL1       -0.3263
     37 H          15.1617   71.5375   -5.7961 H       1  UNL1        0.2105
     38 H          16.8028   68.3188   -4.3683 H       1  UNL1        0.2105
     39 C          18.5874   71.7918   -8.7530 C.2     1  UNL1        0.2231
     40 C          18.7176   72.8684   -9.7982 C.3     1  UNL1        0.0946
     41 N          18.4891   72.1241   -7.4507 N.am    1  UNL1       -0.2994
     42 O          18.5711   70.6244   -9.0831 O.2     1  UNL1       -0.2751
     43 H          18.5032   73.0573   -7.1862 H       1  UNL1        0.1496
     44 C          18.3622   69.2136   -2.5865 C.3     1  UNL1        0.1693
     45 O          18.5856   67.9419   -3.1990 O.3     1  UNL1       -0.3794
     46 H          18.5701   67.1987   -2.5806 H       1  UNL1        0.2105
@<TRIPOS>BOND
     1    29    30    1
     2    30    41    1
     3    30    31    1
     4    31    34    1
     5    31    32    1
     6    32    35    1
     7    32    33    1
     8    33    36    1
     9    33    44    1
    10    39    40    1
    11    39    42    2
    12    39    41   am
    13    41    43    1
    14    29    28    1
    15    34    37    1
    16    35    38    1
    17    29    36    1
    18    44    45    1
    19    45    46    1
    20    15     6    1
    21    15    16   ar
    22    16    21    2
    23    16    17   ar
    24    17    23    1
    25    17    18   ar
    26    18    19   ar
    27    19    20   ar
    28    15    20   ar
    29    18    22    2
    30     6     7    1
    31     6    11    1
    32     7     9    1
    33     7     8    1
    34     8    13    1
    35     9    10    1
    36     9    12    1
    37    10     5    1
    38    10    11    1
    39    12    14    1
    40     5     4    1
    41     4     1    1
    42     1     2    1
    43     1    24    1
    44     1     3    2
    45    24    25    1
    46    28    25    1
    47    25    26    1
    48    25    27    2
@<TRIPOS>MOLECULE
UD2
 46 48 0 0 0
SMALL
GASTEIGER

@<TRIPOS>ATOM
      1 P          22.1863   70.4575   -0.0575 P.3     1  UNL1        0.2189
      2 O          23.4881   69.5670    0.2645 O.3     1  UNL1       -0.4371
      3 O          21.1761   69.6245   -0.7464 O.2     1  UNL1       -0.5170
      4 O          21.5687   71.0220    1.3185 O.3     1  UNL1       -0.3112
      5 C          22.3500   71.7118    2.2958 C.3     1  UNL1        0.1811
      6 C          21.6254   74.8150    3.9636 C.3     1  UNL1        0.2383
      7 C          23.1123   74.9364    3.5433 C.3     1  UNL1        0.1895
      8 O          23.4580   76.2973    3.2784 O.3     1  UNL1       -0.3779
      9 C          23.1532   74.0933    2.2453 C.3     1  UNL1        0.1713
     10 C          21.9177   73.1791    2.3509 C.3     1  UNL1        0.1764
     11 O          21.2872   73.4559    3.6116 O.3     1  UNL1       -0.3308
     12 O          23.0539   74.9387    1.0980 O.3     1  UNL1       -0.3794
     13 H          24.3786   76.4249    3.0122 H       1  UNL1        0.2106
     14 H          23.7763   75.5756    1.0140 H       1  UNL1        0.2105
     15 N          21.4779   75.0270    5.4052 N.ar    1  UNL1       -0.2551
     16 C          21.9536   74.1094    6.2658 C.ar    1  UNL1        0.3323
     17 N          21.8318   74.2781    7.5958 N.ar    1  UNL1       -0.2743
     18 C          21.2280   75.3790    8.0878 C.ar    1  UNL1        0.2626
     19 C          20.7235   76.3535    7.1934 C.ar    1  UNL1        0.0795
     20 C          20.8633   76.1605    5.8650 C.ar    1  UNL1        0.0869
     21 O          22.5005   73.1120    5.8363 O.2     1  UNL1       -0.2464
     22 O          21.1175   75.5331    9.2914 O.2     1  UNL1       -0.2670
     23 H          22.1793   73.6062    8.2023 H       1  UNL1        0.1734
     24 O          22.6011   71.6918   -1.0050 O.3     1  UNL1       -0.2703
     25 P          22.6920   71.8956   -2.5997 P.3     1  UNL1        0.2208
     26 O          23.4485   73.2806   -2.9210 O.3     1  UNL1       -0.4371
     27 O          23.4454   70.7723   -3.1987 O.2     1  UNL1       -0.5170
     28 O          21.2070   71.9382   -3.2207 O.3     1  UNL1       -0.2865
     29 C          20.9317   71.6788   -4.5985 C.3     1  UNL1        0.2611
     30 C          20.2437   72.8964   -5.2204 C.3     1  UNL1        0.1582
     31 C          18.9046   73.1312   -4.5147 C.3     1  UNL1        0.1625
     32 C          18.0526   71.8639   -4.6250 C.3     1  UNL1        0.1686
     33 C          18.8252   70.6857   -4.0258 C.3     1  UNL1        0.1760
     34 O          18.2217   74.2216   -5.1376 O.3     1  UNL1       -0.3801
     35 O          17.7666   71.5987   -5.9994 O.3     1  UNL1       -0.3794
     36 O          20.0734   70.5413   -4.7064 O.3     1  UNL1       -0.3263
     37 H          17.3643   74.4268   -4.7400 H       1  UNL1        0.2105
     38 H          17.2294   70.8072   -6.1445 H       1  UNL1        0.2105
     39 C          21.8506   74.5105   -6.0867 C.2     1  UNL1        0.2231
     40 C          22.7275   75.7237   -5.9202 C.3     1  UNL1        0.0946
     41 N          21.0966   74.0766   -5.0575 N.am    1  UNL1       -0.2994
     42 O          21.8228   73.9230   -7.1480 O.2     1  UNL1       -0.2751
     43 H          21.1193   74.5454   -4.2086 H       1  UNL1        0.1496
     44 C          18.0053   69.4041   -4.1859 C.3     1  UNL1        0.1693
     45 O          16.6125   69.7239   -4.1718 O.3     1  UNL1       -0.3794
     46 H          16.0314   68.9572   -4.2690 H       1  UNL1        0.2105
@<TRIPOS>BOND
     1    29    30    1
     2    30    41    1
     3    30    31    1
     4    31    34    1
     5    31    32    1
     6    32    35    1
     7    32    33    1
     8    33    36    1
     9    33    44    1
    10    39    40    1
    11    39    42    2
    12    39    41   am
    13    41    43    1
    14    29    28    1
    15    34    37    1
    16    35    38    1
    17    29    36    1
    18    44    45    1
    19    45    46    1
    20    15     6    1
    21    15    16   ar
    22    16    21    2
    23    16    17   ar
    24    17    23    1
    25    17    18   ar
    26    18    19   ar
    27    19    20   ar
    28    15    20   ar
    29    18    22    2
    30     6     7    1
    31     6    11    1
    32     7     9    1
    33     7     8    1
    34     8    13    1
    35     9    10    1
    36     9    12    1
    37    10     5    1
    38    10    11    1
    39    12    14    1
    40     5     4    1
    41     4     1    1
    42     1     2    1
    43     1    24    1
    44     1     3    2
    45    24    25    1
    46    28    25    1
    47    25    26    1
    48    25    27    2
@<TRIPOS>MOLECULE
UD2
 46 48 0 0 0
SMALL
GASTEIGER

@<TRIPOS>ATOM
      1 P          22.0513   70.4886   -0.1155 P.3     1  UNL1        0.2189
      2 O          21.2662   70.9386    1.2159 O.3     1  UNL1       -0.4371
      3 O          22.9532   69.3593    0.2009 O.2     1  UNL1       -0.5170
      4 O          20.9889   70.0296   -1.2355 O.3     1  UNL1       -0.3112
      5 C          21.0692   70.4461   -2.5999 C.3     1  UNL1        0.1811
      6 C          18.4804   70.9196   -5.0515 C.3     1  UNL1        0.2383
      7 C          18.1577   69.5491   -4.4036 C.3     1  UNL1        0.1895
      8 O          16.7501   69.3031   -4.4050 O.3     1  UNL1       -0.3779
      9 C          18.6836   69.7399   -2.9599 C.3     1  UNL1        0.1713
     10 C          19.6878   70.9025   -3.0756 C.3     1  UNL1        0.1764
     11 O          19.7478   71.2799   -4.4603 O.3     1  UNL1       -0.3308
     12 O          17.6129   70.0887   -2.0809 O.3     1  UNL1       -0.3794
     13 H          16.4980   68.4573   -4.0105 H       1  UNL1        0.2106
     14 H          16.9214   69.4163   -2.0160 H       1  UNL1        0.2105
     15 N          18.6078   70.7861   -6.5044 N.ar    1  UNL1       -0.2551
     16 C          17.5031   70.7653   -7.2712 C.ar    1  UNL1        0.3323
     17 N          17.5904   70.6434   -8.6090 N.ar    1  UNL1       -0.2743
     18 C          18.7964   70.5415   -9.2039 C.ar    1  UNL1        0.2626
     19 C          19.9676   70.5630   -8.4091 C.ar    1  UNL1        0.0795
     20 C          19.8506   70.6905   -7.0706 C.ar    1  UNL1        0.0869
     21 O          16.4091   70.8565   -6.7483 O.2     1  UNL1       -0.2464
     22 O          18.8768   70.4316  -10.4147 O.2     1  UNL1       -0.2670
     23 H          16.7838   70.6290   -9.1468 H       1  UNL1        0.1734
     24 O          22.9166   71.7270   -0.6731 O.3     1  UNL1       -0.2703
     25 P          22.8068   73.3262   -0.5201 P.3     1  UNL1        0.2208
     26 O          21.3576   73.8149   -1.0251 O.3     1  UNL1       -0.4371
     27 O          22.9853   73.6996    0.9001 O.2     1  UNL1       -0.5170
     28 O          23.9506   74.0300   -1.4084 O.3     1  UNL1       -0.2865
     29 C          24.0474   75.4459   -1.5730 C.3     1  UNL1        0.2611
     30 C          24.2915   75.7736   -3.0480 C.3     1  UNL1        0.1582
     31 C          25.6268   75.1624   -3.4837 C.3     1  UNL1        0.1625
     32 C          26.7401   75.6966   -2.5785 C.3     1  UNL1        0.1686
     33 C          26.4015   75.3717   -1.1212 C.3     1  UNL1        0.1760
     34 O          25.8981   75.5254   -4.8394 O.3     1  UNL1       -0.3801
     35 O          26.8491   77.1120   -2.7399 O.3     1  UNL1       -0.3794
     36 O          25.1343   75.9429   -0.7895 O.3     1  UNL1       -0.3263
     37 H          26.7300   75.1710   -5.1821 H       1  UNL1        0.2105
     38 H          27.5365   77.5190   -2.1941 H       1  UNL1        0.2105
     39 C          23.3144   73.9643   -4.3554 C.2     1  UNL1        0.2231
     40 C          22.2011   73.3870   -5.1897 C.3     1  UNL1        0.0946
     41 N          23.2083   75.2129   -3.8596 N.am    1  UNL1       -0.2994
     42 O          24.3077   73.3051   -4.1294 O.2     1  UNL1       -0.2751
     43 H          22.4147   75.7406   -4.0409 H       1  UNL1        0.1496
     44 C          27.4794   75.9544   -0.2052 C.3     1  UNL1        0.1693
     45 O          26.9937   75.9938    1.1382 O.3     1  UNL1       -0.3794
     46 H          27.6262   76.3530    1.7753 H       1  UNL1        0.2105
@<TRIPOS>BOND
     1    29    30    1
     2    30    41    1
     3    30    31    1
     4    31    34    1
     5    31    32    1
     6    32    35    1
     7    32    33    1
     8    33    36    1
     9    33    44    1
    10    39    40    1
    11    39    42    2
    12    39    41   am
    13    41    43    1
    14    29    28    1
    15    34    37    1
    16    35    38    1
    17    29    36    1
    18    44    45    1
    19    45    46    1
    20    15     6    1
    21    15    16   ar
    22    16    21    2
    23    16    17   ar
    24    17    23    1
    25    17    18   ar
    26    18    19   ar
    27    19    20   ar
    28    15    20   ar
    29    18    22    2
    30     6     7    1
    31     6    11    1
    32     7     9    1
    33     7     8    1
    34     8    13    1
    35     9    10    1
    36     9    12    1
    37    10     5    1
    38    10    11    1
    39    12    14    1
    40     5     4    1
    41     4     1    1
    42     1     2    1
    43     1    24    1
    44     1     3    2
    45    24    25    1
    46    28    25    1
    47    25    26    1
    48    25    27    2
@<TRIPOS>MOLECULE
UD2
 46 48 0 0 0
SMALL
GASTEIGER

@<TRIPOS>ATOM
      1 P          20.0696   70.8177   -3.9903 P.3     1  UNL1        0.2189
      2 O          18.9969   71.4586   -2.9753 O.3     1  UNL1       -0.4371
      3 O          20.6048   69.5637   -3.4161 O.2     1  UNL1       -0.5170
      4 O          19.3538   70.5011   -5.3978 O.3     1  UNL1       -0.3112
      5 C          17.9536   70.6838   -5.6160 C.3     1  UNL1        0.1811
      6 C          19.0246   73.2977   -7.8425 C.3     1  UNL1        0.2383
      7 C          18.6641   72.1141   -8.7759 C.3     1  UNL1        0.1895
      8 O          18.1865   72.5863  -10.0371 O.3     1  UNL1       -0.3779
      9 C          17.5341   71.4094   -7.9860 C.3     1  UNL1        0.1713
     10 C          17.7339   71.8878   -6.5353 C.3     1  UNL1        0.1764
     11 O          18.8953   72.7331   -6.5196 O.3     1  UNL1       -0.3308
     12 O          16.2550   71.8156   -8.4755 O.3     1  UNL1       -0.3794
     13 H          17.9485   71.8829  -10.6562 H       1  UNL1        0.2106
     14 H          16.0987   71.5920   -9.4029 H       1  UNL1        0.2105
     15 N          20.3991   73.7432   -8.0817 N.ar    1  UNL1       -0.2551
     16 C          21.4106   72.8614   -7.9915 C.ar    1  UNL1        0.3323
     17 N          22.6836   73.2431   -8.2060 N.ar    1  UNL1       -0.2743
     18 C          22.9645   74.5245   -8.5185 C.ar    1  UNL1        0.2626
     19 C          21.9094   75.4631   -8.6178 C.ar    1  UNL1        0.0795
     20 C          20.6422   75.0518   -8.4017 C.ar    1  UNL1        0.0869
     21 O          21.1721   71.7027   -7.7107 O.2     1  UNL1       -0.2464
     22 O          24.1162   74.8711   -8.7133 O.2     1  UNL1       -0.2670
     23 H          23.4011   72.5947   -8.1358 H       1  UNL1        0.1734
     24 O          21.2757   71.8588   -4.2246 O.3     1  UNL1       -0.2703
     25 P          22.7115   72.0808   -3.5303 P.3     1  UNL1        0.2208
     26 O          23.3565   70.6514   -3.1635 O.3     1  UNL1       -0.4371
     27 O          23.6056   72.7996   -4.4643 O.2     1  UNL1       -0.5170
     28 O          22.5292   72.9486   -2.1863 O.3     1  UNL1       -0.2865
     29 C          21.3632   72.8746   -1.3640 C.3     1  UNL1        0.2611
     30 C          21.2704   74.1305   -0.4942 C.3     1  UNL1        0.1582
     31 C          22.4893   74.1911    0.4316 C.3     1  UNL1        0.1625
     32 C          22.5465   72.9093    1.2671 C.3     1  UNL1        0.1686
     33 C          22.5901   71.7001    0.3291 C.3     1  UNL1        0.1760
     34 O          22.3742   75.3217    1.2987 O.3     1  UNL1       -0.3801
     35 O          21.3869   72.8285    2.0978 O.3     1  UNL1       -0.3794
     36 O          21.4448   71.7204   -0.5252 O.3     1  UNL1       -0.3263
     37 H          23.1141   75.4224    1.9132 H       1  UNL1        0.2105
     38 H          21.3561   72.0387    2.6557 H       1  UNL1        0.2105
     39 C          20.4074   76.3350   -1.0715 C.2     1  UNL1        0.2231
     40 C          20.3828   77.5568   -1.9519 C.3     1  UNL1        0.0946
     41 N          21.2470   75.3186   -1.3512 N.am    1  UNL1       -0.2994
     42 O          19.6710   76.2652   -0.1097 O.2     1  UNL1       -0.2751
     43 H          21.8352   75.3736   -2.1206 H       1  UNL1        0.1496
     44 C          22.5872   70.4130    1.1561 C.3     1  UNL1        0.1693
     45 O          21.6903   69.4693    0.5667 O.3     1  UNL1       -0.3794
     46 H          21.6375   68.6276    1.0398 H       1  UNL1        0.2105
@<TRIPOS>BOND
     1    29    30    1
     2    30    41    1
     3    30    31    1
     4    31    34    1
     5    31    32    1
     6    32    35    1
     7    32    33    1
     8    33    36    1
     9    33    44    1
    10    39    40    1
    11    39    42    2
    12    39    41   am
    13    41    43    1
    14    29    28    1
    15    34    37    1
    16    35    38    1
    17    29    36    1
    18    44    45    1
    19    45    46    1
    20    15     6    1
    21    15    16   ar
    22    16    21    2
    23    16    17   ar
    24    17    23    1
    25    17    18   ar
    26    18    19   ar
    27    19    20   ar
    28    15    20   ar
    29    18    22    2
    30     6     7    1
    31     6    11    1
    32     7     9    1
    33     7     8    1
    34     8    13    1
    35     9    10    1
    36     9    12    1
    37    10     5    1
    38    10    11    1
    39    12    14    1
    40     5     4    1
    41     4     1    1
    42     1     2    1
    43     1    24    1
    44     1     3    2
    45    24    25    1
    46    28    25    1
    47    25    26    1
    48    25    27    2
@<TRIPOS>MOLECULE
UD2
 46 48 0 0 0
SMALL
GASTEIGER

@<TRIPOS>ATOM
      1 P          22.2386   72.1542   -3.7875 P.3     1  UNL1        0.2189
      2 O          22.7099   72.9551   -5.1020 O.3     1  UNL1       -0.4371
      3 O          23.2799   71.1750   -3.4058 O.2     1  UNL1       -0.5170
      4 O          22.0105   73.1938   -2.5788 O.3     1  UNL1       -0.3112
      5 C          21.5361   72.7965   -1.2910 C.3     1  UNL1        0.1811
      6 C          23.2278   72.3002    1.8440 C.3     1  UNL1        0.2383
      7 C          22.5770   70.9289    1.5311 C.3     1  UNL1        0.1895
      8 O          23.3589   69.8593    2.0661 O.3     1  UNL1       -0.3779
      9 C          22.5953   70.9059   -0.0170 C.3     1  UNL1        0.1713
     10 C          22.7227   72.3890   -0.4142 C.3     1  UNL1        0.1764
     11 O          22.7211   73.1584    0.7989 O.3     1  UNL1       -0.3308
     12 O          23.7189   70.1622   -0.4916 O.3     1  UNL1       -0.3794
     13 H          22.9923   68.9808    1.8967 H       1  UNL1        0.2106
     14 H          23.7203   69.2343   -0.2205 H       1  UNL1        0.2105
     15 N          22.8043   72.7839    3.1599 N.ar    1  UNL1       -0.2551
     16 C          21.5405   72.5772    3.5708 C.ar    1  UNL1        0.3323
     17 N          21.1238   73.0109    4.7752 N.ar    1  UNL1       -0.2743
     18 C          21.9749   73.6623    5.5937 C.ar    1  UNL1        0.2626
     19 C          23.3084   73.8859    5.1744 C.ar    1  UNL1        0.0795
     20 C          23.7001   73.4363    3.9636 C.ar    1  UNL1        0.0869
     21 O          20.7622   71.9911    2.8433 O.2     1  UNL1       -0.2464
     22 O          21.5992   74.0550    6.6842 O.2     1  UNL1       -0.2670
     23 H          20.2089   72.8545    5.0554 H       1  UNL1        0.1734
     24 O          20.8606   71.3800   -4.0957 O.3     1  UNL1       -0.2703
     25 P          19.3109   71.8174   -4.1064 P.3     1  UNL1        0.2208
     26 O          18.4626   70.8085   -3.1810 O.3     1  UNL1       -0.4371
     27 O          19.1829   73.1940   -3.5803 O.2     1  UNL1       -0.5170
     28 O          18.7488   71.7642   -5.6144 O.3     1  UNL1       -0.2865
     29 C          18.9926   72.7953   -6.5728 C.3     1  UNL1        0.2611
     30 C          17.6584   73.3607   -7.0660 C.3     1  UNL1        0.1582
     31 C          16.8712   72.2498   -7.7679 C.3     1  UNL1        0.1625
     32 C          17.7185   71.6818   -8.9098 C.3     1  UNL1        0.1686
     33 C          19.0506   71.1809   -8.3454 C.3     1  UNL1        0.1760
     34 O          15.6562   72.7866   -8.2961 O.3     1  UNL1       -0.3801
     35 O          17.9633   72.7041   -9.8773 O.3     1  UNL1       -0.3794
     36 O          19.7178   72.2548   -7.6793 O.3     1  UNL1       -0.3263
     37 H          15.1061   72.1366   -8.7545 H       1  UNL1        0.2105
     38 H          18.4965   72.4141  -10.6306 H       1  UNL1        0.2105
     39 C          15.9906   73.0619   -5.3148 C.2     1  UNL1        0.2231
     40 C          15.1978   73.5757   -4.1417 C.3     1  UNL1        0.0946
     41 N          16.8875   73.8613   -5.9251 N.am    1  UNL1       -0.2994
     42 O          15.8219   71.9275   -5.7110 O.2     1  UNL1       -0.2751
     43 H          17.0220   74.7686   -5.6093 H       1  UNL1        0.1496
     44 C          19.9273   70.6662   -9.4886 C.3     1  UNL1        0.1693
     45 O          19.1064   70.3540  -10.6160 O.3     1  UNL1       -0.3794
     46 H          19.5967   70.0210  -11.3800 H       1  UNL1        0.2105
@<TRIPOS>BOND
     1    29    30    1
     2    30    41    1
     3    30    31    1
     4    31    34    1
     5    31    32    1
     6    32    35    1
     7    32    33    1
     8    33    36    1
     9    33    44    1
    10    39    40    1
    11    39    42    2
    12    39    41   am
    13    41    43    1
    14    29    28    1
    15    34    37    1
    16    35    38    1
    17    29    36    1
    18    44    45    1
    19    45    46    1
    20    15     6    1
    21    15    16   ar
    22    16    21    2
    23    16    17   ar
    24    17    23    1
    25    17    18   ar
    26    18    19   ar
    27    19    20   ar
    28    15    20   ar
    29    18    22    2
    30     6     7    1
    31     6    11    1
    32     7     9    1
    33     7     8    1
    34     8    13    1
    35     9    10    1
    36     9    12    1
    37    10     5    1
    38    10    11    1
    39    12    14    1
    40     5     4    1
    41     4     1    1
    42     1     2    1
    43     1    24    1
    44     1     3    2
    45    24    25    1
    46    28    25    1
    47    25    26    1
    48    25    27    2
@<TRIPOS>MOLECULE
UD2
 46 48 0 0 0
SMALL
GASTEIGER

@<TRIPOS>ATOM
      1 P          21.1210   70.8624   -2.8170 P.3     1  UNL1        0.2189
      2 O          21.5726   69.3275   -2.9951 O.3     1  UNL1       -0.4371
      3 O          21.9298   71.7220   -3.7090 O.2     1  UNL1       -0.5170
      4 O          19.5629   71.0106   -3.1968 O.3     1  UNL1       -0.3112
      5 C          19.0136   72.1953   -3.7765 C.3     1  UNL1        0.1811
      6 C          16.4011   72.2221   -6.2485 C.3     1  UNL1        0.2383
      7 C          17.1010   70.8520   -6.4360 C.3     1  UNL1        0.1895
      8 O          16.1758   69.8655   -6.8973 O.3     1  UNL1       -0.3779
      9 C          17.5791   70.5315   -4.9986 C.3     1  UNL1        0.1713
     10 C          17.6038   71.9023   -4.2956 C.3     1  UNL1        0.1764
     11 O          17.2264   72.8891   -5.2689 O.3     1  UNL1       -0.3308
     12 O          16.6575   69.6532   -4.3505 O.3     1  UNL1       -0.3794
     13 H          16.5665   68.9913   -7.0303 H       1  UNL1        0.2106
     14 H          16.5580   68.7957   -4.7856 H       1  UNL1        0.2105
     15 N          16.3869   72.9705   -7.5073 N.ar    1  UNL1       -0.2551
     16 C          17.4272   72.8706   -8.3538 C.ar    1  UNL1        0.3323
     17 N          17.4410   73.5473   -9.5175 N.ar    1  UNL1       -0.2743
     18 C          16.4030   74.3396   -9.8542 C.ar    1  UNL1        0.2626
     19 C          15.3008   74.4533   -8.9731 C.ar    1  UNL1        0.0795
     20 C          15.3118   73.7602   -7.8150 C.ar    1  UNL1        0.0869
     21 O          18.3699   72.1598   -8.0633 O.2     1  UNL1       -0.2464
     22 O          16.4140   74.9523  -10.9073 O.2     1  UNL1       -0.2670
     23 H          18.1996   73.4649  -10.1157 H       1  UNL1        0.1734
     24 O          21.3452   71.3141   -1.2877 O.3     1  UNL1       -0.2703
     25 P          22.2428   70.7501   -0.0756 P.3     1  UNL1        0.2208
     26 O          21.5123   69.4756    0.5847 O.3     1  UNL1       -0.4371
     27 O          23.5693   70.3456   -0.5905 O.2     1  UNL1       -0.5170
     28 O          22.4261   71.8999    1.0366 O.3     1  UNL1       -0.2865
     29 C          21.3597   72.7521    1.4583 C.3     1  UNL1        0.2611
     30 C          21.6623   74.1936    1.0423 C.3     1  UNL1        0.1582
     31 C          22.9388   74.6622    1.7476 C.3     1  UNL1        0.1625
     32 C          22.7541   74.5214    3.2610 C.3     1  UNL1        0.1686
     33 C          22.4094   73.0668    3.5915 C.3     1  UNL1        0.1760
     34 O          23.1885   76.0316    1.4223 O.3     1  UNL1       -0.3801
     35 O          21.6929   75.3745    3.6941 O.3     1  UNL1       -0.3794
     36 O          21.2305   72.6848    2.8800 O.3     1  UNL1       -0.3263
     37 H          23.9841   76.3947    1.8350 H       1  UNL1        0.2105
     38 H          21.5195   75.3358    4.6451 H       1  UNL1        0.2105
     39 C          20.9967   74.9584   -1.1735 C.2     1  UNL1        0.2231
     40 C          21.1935   75.0212   -2.6655 C.3     1  UNL1        0.0946
     41 N          21.8543   74.2541   -0.4089 N.am    1  UNL1       -0.2994
     42 O          20.0655   75.5420   -0.6592 O.2     1  UNL1       -0.2751
     43 H          22.5983   73.7865   -0.8198 H       1  UNL1        0.1496
     44 C          22.1646   72.9300    5.0955 C.3     1  UNL1        0.1693
     45 O          20.7962   73.2238    5.3847 O.3     1  UNL1       -0.3794
     46 H          20.5687   73.1568    6.3221 H       1  UNL1        0.2105
@<TRIPOS>BOND
     1    29    30    1
     2    30    41    1
     3    30    31    1
     4    31    34    1
     5    31    32    1
     6    32    35    1
     7    32    33    1
     8    33    36    1
     9    33    44    1
    10    39    40    1
    11    39    42    2
    12    39    41   am
    13    41    43    1
    14    29    28    1
    15    34    37    1
    16    35    38    1
    17    29    36    1
    18    44    45    1
    19    45    46    1
    20    15     6    1
    21    15    16   ar
    22    16    21    2
    23    16    17   ar
    24    17    23    1
    25    17    18   ar
    26    18    19   ar
    27    19    20   ar
    28    15    20   ar
    29    18    22    2
    30     6     7    1
    31     6    11    1
    32     7     9    1
    33     7     8    1
    34     8    13    1
    35     9    10    1
    36     9    12    1
    37    10     5    1
    38    10    11    1
    39    12    14    1
    40     5     4    1
    41     4     1    1
    42     1     2    1
    43     1    24    1
    44     1     3    2
    45    24    25    1
    46    28    25    1
    47    25    26    1
    48    25    27    2
@<TRIPOS>MOLECULE
UD2
 46 48 0 0 0
SMALL
GASTEIGER

@<TRIPOS>ATOM
      1 P          21.9121   75.1550   -5.1509 P.3     1  UNL1        0.2189
      2 O          23.2754   75.4189   -5.9653 O.3     1  UNL1       -0.4371
      3 O          21.1793   76.4298   -4.9881 O.2     1  UNL1       -0.5170
      4 O          20.9958   74.1091   -5.9634 O.3     1  UNL1       -0.3112
      5 C          21.5394   73.0801   -6.7924 C.3     1  UNL1        0.1811
      6 C          18.2717   72.1355   -7.9615 C.3     1  UNL1        0.2383
      7 C          19.1669   72.0876   -9.2258 C.3     1  UNL1        0.1895
      8 O          18.7012   71.0960  -10.1432 O.3     1  UNL1       -0.3779
      9 C          20.5425   71.6916   -8.6356 C.3     1  UNL1        0.1713
     10 C          20.4389   72.0772   -7.1476 C.3     1  UNL1        0.1764
     11 O          19.1487   72.6770   -6.9499 O.3     1  UNL1       -0.3308
     12 O          20.7591   70.2865   -8.7747 O.3     1  UNL1       -0.3794
     13 H          19.2285   71.0283  -10.9507 H       1  UNL1        0.2106
     14 H          20.7742   69.9788   -9.6910 H       1  UNL1        0.2105
     15 N          17.1232   73.0187   -8.1757 N.ar    1  UNL1       -0.2551
     16 C          16.0097   72.8543   -7.4397 C.ar    1  UNL1        0.3323
     17 N          14.9391   73.6514   -7.6153 N.ar    1  UNL1       -0.2743
     18 C          14.9691   74.6347   -8.5377 C.ar    1  UNL1        0.2626
     19 C          16.1352   74.8197   -9.3188 C.ar    1  UNL1        0.0795
     20 C          17.1952   74.0087   -9.1185 C.ar    1  UNL1        0.0869
     21 O          15.9686   71.9719   -6.6042 O.2     1  UNL1       -0.2464
     22 O          14.0010   75.3570   -8.6974 O.2     1  UNL1       -0.2670
     23 H          14.1438   73.5183   -7.0770 H       1  UNL1        0.1734
     24 O          22.2617   74.5475   -3.7011 O.3     1  UNL1       -0.2703
     25 P          23.4898   73.6852   -3.1168 P.3     1  UNL1        0.2208
     26 O          24.0382   72.6912   -4.2591 O.3     1  UNL1       -0.4371
     27 O          24.5756   74.5965   -2.6938 O.2     1  UNL1       -0.5170
     28 O          22.9874   72.8247   -1.8520 O.3     1  UNL1       -0.2865
     29 C          21.6204   72.7721   -1.4397 C.3     1  UNL1        0.2611
     30 C          21.4888   71.8546   -0.2217 C.3     1  UNL1        0.1582
     31 C          21.9111   70.4355   -0.6143 C.3     1  UNL1        0.1625
     32 C          21.0512   69.9655   -1.7907 C.3     1  UNL1        0.1686
     33 C          21.1998   70.9561   -2.9486 C.3     1  UNL1        0.1760
     34 O          21.7216   69.5566    0.4970 O.3     1  UNL1       -0.3801
     35 O          19.6820   69.9039   -1.3870 O.3     1  UNL1       -0.3794
     36 O          20.8204   72.2615   -2.5082 O.3     1  UNL1       -0.3263
     37 H          21.9702   68.6391    0.3191 H       1  UNL1        0.2105
     38 H          19.0782   69.6133   -2.0848 H       1  UNL1        0.2105
     39 C          21.9382   72.2813    2.1349 C.2     1  UNL1        0.2231
     40 C          22.8276   72.7830    3.2420 C.3     1  UNL1        0.0946
     41 N          22.3544   72.3430    0.8546 N.am    1  UNL1       -0.2994
     42 O          20.8461   71.8213    2.3953 O.2     1  UNL1       -0.2751
     43 H          23.2271   72.7117    0.6459 H       1  UNL1        0.1496
     44 C          20.2974   70.5258   -4.1066 C.3     1  UNL1        0.1693
     45 O          19.1034   71.3110   -4.0981 O.3     1  UNL1       -0.3794
     46 H          18.4829   71.0921   -4.8067 H       1  UNL1        0.2105
@<TRIPOS>BOND
     1    29    30    1
     2    30    41    1
     3    30    31    1
     4    31    34    1
     5    31    32    1
     6    32    35    1
     7    32    33    1
     8    33    36    1
     9    33    44    1
    10    39    40    1
    11    39    42    2
    12    39    41   am
    13    41    43    1
    14    29    28    1
    15    34    37    1
    16    35    38    1
    17    29    36    1
    18    44    45    1
    19    45    46    1
    20    15     6    1
    21    15    16   ar
    22    16    21    2
    23    16    17   ar
    24    17    23    1
    25    17    18   ar
    26    18    19   ar
    27    19    20   ar
    28    15    20   ar
    29    18    22    2
    30     6     7    1
    31     6    11    1
    32     7     9    1
    33     7     8    1
    34     8    13    1
    35     9    10    1
    36     9    12    1
    37    10     5    1
    38    10    11    1
    39    12    14    1
    40     5     4    1
    41     4     1    1
    42     1     2    1
    43     1    24    1
    44     1     3    2
    45    24    25    1
    46    28    25    1
    47    25    26    1
    48    25    27    2
