@<TRIPOS>MOLECULE
UD1
 46 48 0 0 0
SMALL
GASTEIGER

@<TRIPOS>ATOM
      1 P          21.9822   70.6424   -0.3562 P.3     1  UNL1        0.2189
      2 O          23.1278   69.7247   -0.1716 O.2     1  UNL1       -0.5170
      3 O          21.3270   70.9779    1.0759 O.3     1  UNL1       -0.4371
      4 O          20.8803   69.9416   -1.2983 O.3     1  UNL1       -0.3112
      5 C          21.0214   70.5164   -2.5983 C.3     1  UNL1        0.1811
      6 C          18.4726   70.9797   -5.0916 C.3     1  UNL1        0.2383
      7 C          18.1153   69.6316   -4.4170 C.3     1  UNL1        0.1895
      8 O          16.7045   69.4109   -4.4315 O.3     1  UNL1       -0.3779
      9 C          18.6269   69.8464   -2.9688 C.3     1  UNL1        0.1713
     10 C          19.6553   70.9864   -3.1003 C.3     1  UNL1        0.1764
     11 O          19.7385   71.3313   -4.4936 O.3     1  UNL1       -0.3308
     12 O          17.5511   70.2310   -2.1100 O.3     1  UNL1       -0.3794
     13 H          16.5497   68.5595   -3.9995 H       1  UNL1        0.2106
     14 H          16.9148   69.5036   -2.1166 H       1  UNL1        0.2105
     15 N          18.6134   70.8151   -6.5388 N.ar    1  UNL1       -0.2551
     16 C          17.5164   70.7786   -7.3151 C.ar    1  UNL1        0.3323
     17 N          17.6161   70.6322   -8.6495 N.ar    1  UNL1       -0.2743
     18 C          18.8264   70.5097   -9.2311 C.ar    1  UNL1        0.2626
     19 C          19.9892   70.5404   -8.4251 C.ar    1  UNL1        0.0795
     20 C          19.8606   70.6938   -7.0897 C.ar    1  UNL1        0.0869
     21 O          16.4178   70.8879   -6.8053 O.2     1  UNL1       -0.2464
     22 O          18.9175   70.3725  -10.4370 O.2     1  UNL1       -0.2670
     23 H          16.8145   70.6128   -9.1947 H       1  UNL1        0.1734
     24 O          22.4908   72.0037   -1.0468 O.3     1  UNL1       -0.2703
     25 P          21.7701   73.2157   -0.2717 P.3     1  UNL1        0.2208
     26 O          20.3027   73.0855   -0.4087 O.2     1  UNL1       -0.5170
     27 O          22.2451   74.6173   -0.9059 O.3     1  UNL1       -0.4371
     28 O          22.1695   73.1708    1.2868 O.3     1  UNL1       -0.2865
     29 C          22.0802   74.5100    1.7764 C.3     1  UNL1        0.2611
     30 C          23.3612   74.8560    2.5373 C.3     1  UNL1        0.1582
     31 C          23.5391   73.8674    3.6951 C.3     1  UNL1        0.1625
     32 C          22.2599   73.8654    4.5388 C.3     1  UNL1        0.1686
     33 C          21.0621   73.5909    3.6271 C.3     1  UNL1        0.1760
     34 O          24.6480   74.2690    4.5017 O.3     1  UNL1       -0.3801
     35 O          22.3467   72.8458    5.5361 O.3     1  UNL1       -0.3794
     36 O          20.9561   74.6224    2.6466 O.3     1  UNL1       -0.3263
     37 H          24.7234   73.6209    5.2156 H       1  UNL1        0.2105
     38 H          21.5228   72.8790    6.0425 H       1  UNL1        0.2105
     39 C          25.2151   75.8678    1.3233 C.2     1  UNL1        0.2231
     40 C          26.3960   75.7720    0.3914 C.3     1  UNL1        0.0946
     41 N          24.5088   74.7634    1.6324 N.am    1  UNL1       -0.2994
     42 O          24.9002   76.9397    1.7947 O.2     1  UNL1       -0.2751
     43 H          24.7605   73.9055    1.2552 H       1  UNL1        0.1496
     44 C          19.7825   73.5546    4.4653 C.3     1  UNL1        0.1693
     45 O          19.9319   74.4094    5.6007 O.3     1  UNL1       -0.3794
     46 H          19.1062   74.3573    6.1008 H       1  UNL1        0.2105
@<TRIPOS>BOND
     1    29    30    1
     2    29    28    1
     3    29    36    1
     4    30    31    1
     5    30    41    1
     6    31    32    1
     7    31    34    1
     8    32    33    1
     9    32    35    1
    10    33    44    1
    11    33    36    1
    12    44    45    1
    13    39    40    1
    14    39    41   am
    15    39    42    2
    16    41    43    1
    17    28    25    1
    18    34    37    1
    19    35    38    1
    20    45    46    1
    21    15    16   ar
    22    15    20   ar
    23    15     6    1
    24    16    17   ar
    25    16    21    2
    26    17    18   ar
    27    17    23    1
    28    18    19   ar
    29    18    22    2
    30    19    20   ar
    31     6     7    1
    32     6    11    1
    33     7     8    1
    34     7     9    1
    35     8    13    1
    36     9    10    1
    37     9    12    1
    38    10    11    1
    39    10     5    1
    40    12    14    1
    41     5     4    1
    42     4     1    1
    43     1     2    2
    44     1     3    1
    45     1    24    1
    46    24    25    1
    47    25    26    2
    48    25    27    1
@<TRIPOS>MOLECULE
UD1
 46 48 0 0 0
SMALL
GASTEIGER

@<TRIPOS>ATOM
      1 P          20.8969   70.1748   -2.4747 P.3     1  UNL1        0.2189
      2 O          22.2772   70.2796   -2.9969 O.2     1  UNL1       -0.5170
      3 O          20.0604   69.1338   -3.3743 O.3     1  UNL1       -0.4371
      4 O          20.1907   71.6207   -2.5325 O.3     1  UNL1       -0.3112
      5 C          18.7937   71.3917   -2.7231 C.3     1  UNL1        0.1811
      6 C          17.9627   72.5719   -6.0161 C.3     1  UNL1        0.2383
      7 C          16.6673   71.8892   -5.5100 C.3     1  UNL1        0.1895
      8 O          15.5096   72.5138   -6.0659 O.3     1  UNL1       -0.3779
      9 C          16.7469   72.1330   -3.9805 C.3     1  UNL1        0.1713
     10 C          18.2409   72.4088   -3.7226 C.3     1  UNL1        0.1764
     11 O          18.9250   72.2796   -4.9806 O.3     1  UNL1       -0.3308
     12 O          15.9521   73.2622   -3.6117 O.3     1  UNL1       -0.3794
     13 H          14.7412   72.0439   -5.7133 H       1  UNL1        0.2106
     14 H          15.0399   73.0521   -3.8521 H       1  UNL1        0.2105
     15 N          18.3878   71.9973   -7.2929 N.ar    1  UNL1       -0.2551
     16 C          17.9685   72.5495   -8.4447 C.ar    1  UNL1        0.3323
     17 N          18.3469   72.0443   -9.6338 N.ar    1  UNL1       -0.2743
     18 C          19.1508   70.9632   -9.6879 C.ar    1  UNL1        0.2626
     19 C          19.5948   70.3683   -8.4830 C.ar    1  UNL1        0.0795
     20 C          19.2043   70.8986   -7.3042 C.ar    1  UNL1        0.0869
     21 O          17.2432   73.5249   -8.4123 O.2     1  UNL1       -0.2464
     22 O          19.4897   70.5028  -10.7624 O.2     1  UNL1       -0.2670
     23 H          18.0388   72.4583  -10.4547 H       1  UNL1        0.1734
     24 O          20.9371   69.6579   -0.9516 O.3     1  UNL1       -0.2703
     25 P          21.9851   70.5959   -0.1698 P.3     1  UNL1        0.2208
     26 O          23.3646   70.1997   -0.5286 O.2     1  UNL1       -0.5170
     27 O          21.7754   70.4289    1.4178 O.3     1  UNL1       -0.4371
     28 O          21.7436   72.1327   -0.5828 O.3     1  UNL1       -0.2865
     29 C          22.9262   72.8492   -0.2232 C.3     1  UNL1        0.2611
     30 C          22.5363   74.1177    0.5376 C.3     1  UNL1        0.1582
     31 C          21.6319   74.9779   -0.3523 C.3     1  UNL1        0.1625
     32 C          22.3407   75.2121   -1.6905 C.3     1  UNL1        0.1686
     33 C          22.7427   73.8605   -2.2847 C.3     1  UNL1        0.1760
     34 O          21.3830   76.2311    0.2873 O.3     1  UNL1       -0.3801
     35 O          21.4567   75.8864   -2.5879 O.3     1  UNL1       -0.3794
     36 O          23.6473   73.1962   -1.4034 O.3     1  UNL1       -0.3263
     37 H          20.8117   76.7386   -0.3055 H       1  UNL1        0.2105
     38 H          21.9415   76.0128   -3.4159 H       1  UNL1        0.2105
     39 C          22.4843   73.6429    2.9263 C.2     1  UNL1        0.2231
     40 C          21.7448   73.2680    4.1853 C.3     1  UNL1        0.0946
     41 N          21.8182   73.7542    1.7609 N.am    1  UNL1       -0.2994
     42 O          23.6796   73.8437    2.9623 O.2     1  UNL1       -0.2751
     43 H          20.8618   73.5933    1.7318 H       1  UNL1        0.1496
     44 C          23.4227   74.0816   -3.6374 C.3     1  UNL1        0.1693
     45 O          23.7809   72.8190   -4.2029 O.3     1  UNL1       -0.3794
     46 H          24.2055   73.0029   -5.0517 H       1  UNL1        0.2105
@<TRIPOS>BOND
     1    29    30    1
     2    29    28    1
     3    29    36    1
     4    30    31    1
     5    30    41    1
     6    31    32    1
     7    31    34    1
     8    32    33    1
     9    32    35    1
    10    33    44    1
    11    33    36    1
    12    44    45    1
    13    39    40    1
    14    39    41   am
    15    39    42    2
    16    41    43    1
    17    28    25    1
    18    34    37    1
    19    35    38    1
    20    45    46    1
    21    15    16   ar
    22    15    20   ar
    23    15     6    1
    24    16    17   ar
    25    16    21    2
    26    17    18   ar
    27    17    23    1
    28    18    19   ar
    29    18    22    2
    30    19    20   ar
    31     6     7    1
    32     6    11    1
    33     7     8    1
    34     7     9    1
    35     8    13    1
    36     9    10    1
    37     9    12    1
    38    10    11    1
    39    10     5    1
    40    12    14    1
    41     5     4    1
    42     4     1    1
    43     1     2    2
    44     1     3    1
    45     1    24    1
    46    24    25    1
    47    25    26    2
    48    25    27    1
@<TRIPOS>MOLECULE
UD1
 46 48 0 0 0
SMALL
GASTEIGER

@<TRIPOS>ATOM
      1 P          21.7779   70.4063   -0.4589 P.3     1  UNL1        0.2189
      2 O          23.0896   70.8104   -1.0109 O.2     1  UNL1       -0.5170
      3 O          21.9810   69.1802    0.5648 O.3     1  UNL1       -0.4371
      4 O          20.8094   69.9463   -1.6603 O.3     1  UNL1       -0.3112
      5 C          20.8998   70.9503   -2.6723 C.3     1  UNL1        0.1811
      6 C          18.3536   71.0597   -5.2084 C.3     1  UNL1        0.2383
      7 C          18.1192   69.7121   -4.4810 C.3     1  UNL1        0.1895
      8 O          16.7369   69.3544   -4.5003 O.3     1  UNL1       -0.3779
      9 C          18.5871   70.0353   -3.0381 C.3     1  UNL1        0.1713
     10 C          19.5018   71.2637   -3.2074 C.3     1  UNL1        0.1764
     11 O          19.5708   71.5574   -4.6132 O.3     1  UNL1       -0.3308
     12 O          17.4670   70.3481   -2.2072 O.3     1  UNL1       -0.3794
     13 H          16.6593   68.5105   -4.0342 H       1  UNL1        0.2106
     14 H          16.9044   69.5625   -2.1894 H       1  UNL1        0.2105
     15 N          18.5301   70.8502   -6.6459 N.ar    1  UNL1       -0.2551
     16 C          17.4518   70.7647   -7.4442 C.ar    1  UNL1        0.3323
     17 N          17.5843   70.5762   -8.7705 N.ar    1  UNL1       -0.2743
     18 C          18.8096   70.4601   -9.3212 C.ar    1  UNL1        0.2626
     19 C          19.9532   70.5421   -8.4916 C.ar    1  UNL1        0.0795
     20 C          19.7916   70.7370   -7.1652 C.ar    1  UNL1        0.0869
     21 O          16.3400   70.8676   -6.9624 O.2     1  UNL1       -0.2464
     22 O          18.9305   70.2848  -10.5195 O.2     1  UNL1       -0.2670
     23 H          16.7957   70.5217   -9.3319 H       1  UNL1        0.1734
     24 O          21.1159   71.6506    0.3173 O.3     1  UNL1       -0.2703
     25 P          21.8981   71.7954    1.7160 P.3     1  UNL1        0.2208
     26 O          22.6359   70.5449    2.0002 O.2     1  UNL1       -0.5170
     27 O          20.8399   72.0736    2.8972 O.3     1  UNL1       -0.4371
     28 O          22.9360   73.0224    1.6273 O.3     1  UNL1       -0.2865
     29 C          22.2406   74.1868    2.0765 C.3     1  UNL1        0.2611
     30 C          22.5947   75.3674    1.1705 C.3     1  UNL1        0.1582
     31 C          24.1103   75.5931    1.2107 C.3     1  UNL1        0.1625
     32 C          24.5454   75.7397    2.6727 C.3     1  UNL1        0.1686
     33 C          24.0466   74.5293    3.4648 C.3     1  UNL1        0.1760
     34 O          24.4366   76.7823    0.4890 O.3     1  UNL1       -0.3801
     35 O          25.9710   75.8041    2.7429 O.3     1  UNL1       -0.3794
     36 O          22.6212   74.4775    3.4196 O.3     1  UNL1       -0.3263
     37 H          25.3969   76.8852    0.5398 H       1  UNL1        0.2105
     38 H          26.2012   75.8951    3.6784 H       1  UNL1        0.2105
     39 C          23.0506   74.5208   -1.0677 C.2     1  UNL1        0.2231
     40 C          22.6221   74.2188   -2.4810 C.3     1  UNL1        0.0946
     41 N          22.1788   75.0734   -0.2024 N.am    1  UNL1       -0.2994
     42 O          24.1808   74.2668   -0.7095 O.2     1  UNL1       -0.2751
     43 H          21.2743   75.2769   -0.4889 H       1  UNL1        0.1496
     44 C          24.5039   74.6499    4.9199 C.3     1  UNL1        0.1693
     45 O          25.8587   74.2094    5.0320 O.3     1  UNL1       -0.3794
     46 H          26.1067   74.3012    5.9619 H       1  UNL1        0.2105
@<TRIPOS>BOND
     1    29    30    1
     2    29    28    1
     3    29    36    1
     4    30    31    1
     5    30    41    1
     6    31    32    1
     7    31    34    1
     8    32    33    1
     9    32    35    1
    10    33    44    1
    11    33    36    1
    12    44    45    1
    13    39    40    1
    14    39    41   am
    15    39    42    2
    16    41    43    1
    17    28    25    1
    18    34    37    1
    19    35    38    1
    20    45    46    1
    21    15    16   ar
    22    15    20   ar
    23    15     6    1
    24    16    17   ar
    25    16    21    2
    26    17    18   ar
    27    17    23    1
    28    18    19   ar
    29    18    22    2
    30    19    20   ar
    31     6     7    1
    32     6    11    1
    33     7     8    1
    34     7     9    1
    35     8    13    1
    36     9    10    1
    37     9    12    1
    38    10    11    1
    39    10     5    1
    40    12    14    1
    41     5     4    1
    42     4     1    1
    43     1     2    2
    44     1     3    1
    45     1    24    1
    46    24    25    1
    47    25    26    2
    48    25    27    1
@<TRIPOS>MOLECULE
UD1
 46 48 0 0 0
SMALL
GASTEIGER

@<TRIPOS>ATOM
      1 P          22.5214   72.9905   -3.2160 P.3     1  UNL1        0.2189
      2 O          21.7881   74.2465   -3.4870 O.2     1  UNL1       -0.5170
      3 O          23.9295   73.0119   -3.9967 O.3     1  UNL1       -0.4371
      4 O          21.6460   71.7383   -3.7244 O.3     1  UNL1       -0.3112
      5 C          20.6848   71.4637   -2.7041 C.3     1  UNL1        0.1811
      6 C          18.2136   71.1656   -5.2986 C.3     1  UNL1        0.2383
      7 C          18.1183   69.8316   -4.5166 C.3     1  UNL1        0.1895
      8 O          16.7881   69.3131   -4.5505 O.3     1  UNL1       -0.3779
      9 C          18.5055   70.2681   -3.0797 C.3     1  UNL1        0.1713
     10 C          19.2749   71.5875   -3.2837 C.3     1  UNL1        0.1764
     11 O          19.3476   71.8278   -4.6994 O.3     1  UNL1       -0.3308
     12 O          17.3343   70.4815   -2.2888 O.3     1  UNL1       -0.3794
     13 H          16.7969   68.4863   -4.0487 H       1  UNL1        0.2106
     14 H          16.8670   69.6365   -2.2482 H       1  UNL1        0.2105
     15 N          18.4526   70.9180   -6.7209 N.ar    1  UNL1       -0.2551
     16 C          17.4095   70.7611   -7.5544 C.ar    1  UNL1        0.3323
     17 N          17.5996   70.5361   -8.8679 N.ar    1  UNL1       -0.2743
     18 C          18.8485   70.4549   -9.3696 C.ar    1  UNL1        0.2626
     19 C          19.9557   70.6122   -8.5023 C.ar    1  UNL1        0.0795
     20 C          19.7363   70.8423   -7.1900 C.ar    1  UNL1        0.0869
     21 O          16.2771   70.8317   -7.1169 O.2     1  UNL1       -0.2464
     22 O          19.0216   70.2468  -10.5563 O.2     1  UNL1       -0.2670
     23 H          16.8356   70.4301   -9.4555 H       1  UNL1        0.1734
     24 O          22.7855   72.8536   -1.6347 O.3     1  UNL1       -0.2703
     25 P          23.0295   74.3419   -1.0737 P.3     1  UNL1        0.2208
     26 O          22.4584   75.3254   -2.0198 O.2     1  UNL1       -0.5170
     27 O          24.6102   74.6046   -0.9168 O.3     1  UNL1       -0.4371
     28 O          22.3158   74.4999    0.3603 O.3     1  UNL1       -0.2865
     29 C          23.1715   73.8771    1.3200 C.3     1  UNL1        0.2611
     30 C          22.4236   72.7227    1.9895 C.3     1  UNL1        0.1582
     31 C          21.1603   73.2685    2.6645 C.3     1  UNL1        0.1625
     32 C          21.5602   74.4152    3.5989 C.3     1  UNL1        0.1686
     33 C          22.3708   75.4436    2.8071 C.3     1  UNL1        0.1760
     34 O          20.5329   72.2291    3.4179 O.3     1  UNL1       -0.3801
     35 O          20.3852   75.0341    4.1261 O.3     1  UNL1       -0.3794
     36 O          23.5590   74.8356    2.3021 O.3     1  UNL1       -0.3263
     37 H          19.7447   72.6153    3.8241 H       1  UNL1        0.2105
     38 H          20.6822   75.7491    4.7068 H       1  UNL1        0.2105
     39 C          22.5477   70.4798    1.0471 C.2     1  UNL1        0.2231
     40 C          22.1637   69.4582    0.0073 C.3     1  UNL1        0.0946
     41 N          22.0505   71.7298    0.9799 N.am    1  UNL1       -0.2994
     42 O          23.3051   70.1767    1.9441 O.2     1  UNL1       -0.2751
     43 H          21.4445   71.9726    0.2620 H       1  UNL1        0.1496
     44 C          22.7476   76.6093    3.7237 C.3     1  UNL1        0.1693
     45 O          21.6771   77.5554    3.7564 O.3     1  UNL1       -0.3794
     46 H          21.9548   78.2719    4.3431 H       1  UNL1        0.2105
@<TRIPOS>BOND
     1    29    30    1
     2    29    28    1
     3    29    36    1
     4    30    31    1
     5    30    41    1
     6    31    32    1
     7    31    34    1
     8    32    33    1
     9    32    35    1
    10    33    44    1
    11    33    36    1
    12    44    45    1
    13    39    40    1
    14    39    41   am
    15    39    42    2
    16    41    43    1
    17    28    25    1
    18    34    37    1
    19    35    38    1
    20    45    46    1
    21    15    16   ar
    22    15    20   ar
    23    15     6    1
    24    16    17   ar
    25    16    21    2
    26    17    18   ar
    27    17    23    1
    28    18    19   ar
    29    18    22    2
    30    19    20   ar
    31     6     7    1
    32     6    11    1
    33     7     8    1
    34     7     9    1
    35     8    13    1
    36     9    10    1
    37     9    12    1
    38    10    11    1
    39    10     5    1
    40    12    14    1
    41     5     4    1
    42     4     1    1
    43     1     2    2
    44     1     3    1
    45     1    24    1
    46    24    25    1
    47    25    26    2
    48    25    27    1
@<TRIPOS>MOLECULE
UD1
 46 48 0 0 0
SMALL
GASTEIGER

@<TRIPOS>ATOM
      1 P          21.4925   71.0299   -0.5204 P.3     1  UNL1        0.2189
      2 O          21.2347   69.6166   -0.1667 O.2     1  UNL1       -0.5170
      3 O          23.0013   71.1810   -1.0619 O.3     1  UNL1       -0.4371
      4 O          21.2966   71.9533    0.7840 O.3     1  UNL1       -0.3112
      5 C          22.3786   71.6560    1.6679 C.3     1  UNL1        0.1811
      6 C          22.8145   73.9523    4.4000 C.3     1  UNL1        0.2383
      7 C          21.6761   74.5711    3.5507 C.3     1  UNL1        0.1895
      8 O          20.7663   75.3040    4.3719 O.3     1  UNL1       -0.3779
      9 C          20.9932   73.3126    2.9551 C.3     1  UNL1        0.1713
     10 C          22.0723   72.2173    3.0573 C.3     1  UNL1        0.1764
     11 O          23.2519   72.8266    3.6094 O.3     1  UNL1       -0.3308
     12 O          19.8391   72.9598    3.7208 O.3     1  UNL1       -0.3794
     13 H          20.0856   75.6621    3.7854 H       1  UNL1        0.2106
     14 H          19.2287   73.7072    3.6664 H       1  UNL1        0.2105
     15 N          23.9059   74.9100    4.5824 N.ar    1  UNL1       -0.2551
     16 C          23.9647   75.6473    5.7051 C.ar    1  UNL1        0.3323
     17 N          24.9593   76.5330    5.9014 N.ar    1  UNL1       -0.2743
     18 C          25.9135   76.7020    4.9639 C.ar    1  UNL1        0.2626
     19 C          25.8603   75.9366    3.7746 C.ar    1  UNL1        0.0795
     20 C          24.8546   75.0515    3.6059 C.ar    1  UNL1        0.0869
     21 O          23.1115   75.5062    6.5599 O.2     1  UNL1       -0.2464
     22 O          26.8105   77.5059    5.1382 O.2     1  UNL1       -0.2670
     23 H          24.9887   77.0530    6.7192 H       1  UNL1        0.1734
     24 O          20.4615   71.4932   -1.6655 O.3     1  UNL1       -0.2703
     25 P          21.0057   70.8882   -3.0536 P.3     1  UNL1        0.2208
     26 O          21.5848   69.5479   -2.8141 O.2     1  UNL1       -0.5170
     27 O          22.1380   71.8611   -3.6567 O.3     1  UNL1       -0.4371
     28 O          19.7900   70.7679   -4.1015 O.3     1  UNL1       -0.2865
     29 C          19.6208   72.0588   -4.6899 C.3     1  UNL1        0.2611
     30 C          18.1579   72.4862   -4.5579 C.3     1  UNL1        0.1582
     31 C          17.2685   71.4519   -5.2571 C.3     1  UNL1        0.1625
     32 C          17.7670   71.2685   -6.6944 C.3     1  UNL1        0.1686
     33 C          19.2590   70.9299   -6.6651 C.3     1  UNL1        0.1760
     34 O          15.9166   71.9142   -5.2710 O.3     1  UNL1       -0.3801
     35 O          17.0461   70.2041   -7.3182 O.3     1  UNL1       -0.3794
     36 O          19.9852   72.0031   -6.0674 O.3     1  UNL1       -0.3263
     37 H          15.3936   71.2348   -5.7185 H       1  UNL1        0.2105
     38 H          17.3913   70.1225   -8.2186 H       1  UNL1        0.2105
     39 C          17.0304   73.5803   -2.6963 C.2     1  UNL1        0.2231
     40 C          16.6593   73.6623   -1.2375 C.3     1  UNL1        0.0946
     41 N          17.7968   72.5659   -3.1410 N.am    1  UNL1       -0.2994
     42 O          16.6395   74.4283   -3.4698 O.2     1  UNL1       -0.2751
     43 H          18.1100   71.8873   -2.5221 H       1  UNL1        0.1496
     44 C          19.7596   70.7127   -8.0945 C.3     1  UNL1        0.1693
     45 O          20.9769   71.4357   -8.2884 O.3     1  UNL1       -0.3794
     46 H          21.2573   71.2725   -9.1991 H       1  UNL1        0.2105
@<TRIPOS>BOND
     1    29    30    1
     2    29    28    1
     3    29    36    1
     4    30    31    1
     5    30    41    1
     6    31    32    1
     7    31    34    1
     8    32    33    1
     9    32    35    1
    10    33    44    1
    11    33    36    1
    12    44    45    1
    13    39    40    1
    14    39    41   am
    15    39    42    2
    16    41    43    1
    17    28    25    1
    18    34    37    1
    19    35    38    1
    20    45    46    1
    21    15    16   ar
    22    15    20   ar
    23    15     6    1
    24    16    17   ar
    25    16    21    2
    26    17    18   ar
    27    17    23    1
    28    18    19   ar
    29    18    22    2
    30    19    20   ar
    31     6     7    1
    32     6    11    1
    33     7     8    1
    34     7     9    1
    35     8    13    1
    36     9    10    1
    37     9    12    1
    38    10    11    1
    39    10     5    1
    40    12    14    1
    41     5     4    1
    42     4     1    1
    43     1     2    2
    44     1     3    1
    45     1    24    1
    46    24    25    1
    47    25    26    2
    48    25    27    1
@<TRIPOS>MOLECULE
UD1
 46 48 0 0 0
SMALL
GASTEIGER

@<TRIPOS>ATOM
      1 P          22.1563   74.3557   -5.0597 P.3     1  UNL1        0.2189
      2 O          23.3552   75.0287   -5.6061 O.2     1  UNL1       -0.5170
      3 O          22.1705   72.8034   -5.4872 O.3     1  UNL1       -0.4371
      4 O          20.8322   75.0604   -5.6454 O.3     1  UNL1       -0.3112
      5 C          19.9079   75.1700   -4.5619 C.3     1  UNL1        0.1811
      6 C          18.1519   72.5331   -6.2620 C.3     1  UNL1        0.2383
      7 C          18.8246   71.8352   -5.0534 C.3     1  UNL1        0.1895
      8 O          18.0447   70.7265   -4.6043 O.3     1  UNL1       -0.3779
      9 C          18.8412   72.9660   -3.9922 C.3     1  UNL1        0.1713
     10 C          18.7072   74.2586   -4.8204 C.3     1  UNL1        0.1764
     11 O          18.6711   73.8788   -6.2066 O.3     1  UNL1       -0.3308
     12 O          17.7397   72.8242   -3.0926 O.3     1  UNL1       -0.3794
     13 H          18.5163   70.3376   -3.8547 H       1  UNL1        0.2106
     14 H          17.8490   71.9722   -2.6495 H       1  UNL1        0.2105
     15 N          18.5347   71.8834   -7.5160 N.ar    1  UNL1       -0.2551
     16 C          17.7419   70.9345   -8.0439 C.ar    1  UNL1        0.3323
     17 N          18.0671   70.3229   -9.1982 N.ar    1  UNL1       -0.2743
     18 C          19.2059   70.6486   -9.8424 C.ar    1  UNL1        0.2626
     19 C          20.0526   71.6415   -9.2948 C.ar    1  UNL1        0.0795
     20 C          19.6997   72.2429   -8.1384 C.ar    1  UNL1        0.0869
     21 O          16.7115   70.6299   -7.4746 O.2     1  UNL1       -0.2464
     22 O          19.5032   70.0929  -10.8836 O.2     1  UNL1       -0.2670
     23 H          17.4811   69.6441   -9.5670 H       1  UNL1        0.1734
     24 O          22.1604   74.4714   -3.4549 O.3     1  UNL1       -0.2703
     25 P          23.4842   73.7168   -2.9377 P.3     1  UNL1        0.2208
     26 O          24.5511   74.7101   -2.6852 O.2     1  UNL1       -0.5170
     27 O          23.9792   72.6717   -4.0579 O.3     1  UNL1       -0.4371
     28 O          23.1547   72.9252   -1.5756 O.3     1  UNL1       -0.2865
     29 C          21.7574   73.0905   -1.3278 C.3     1  UNL1        0.2611
     30 C          21.4957   72.9887    0.1759 C.3     1  UNL1        0.1582
     31 C          21.9762   71.6220    0.6769 C.3     1  UNL1        0.1625
     32 C          21.3204   70.5297   -0.1745 C.3     1  UNL1        0.1686
     33 C          21.5980   70.8155   -1.6519 C.3     1  UNL1        0.1760
     34 O          21.6027   71.4555    2.0459 O.3     1  UNL1       -0.3801
     35 O          21.8657   69.2570    0.1782 O.3     1  UNL1       -0.3794
     36 O          21.0308   72.0738   -2.0144 O.3     1  UNL1       -0.3263
     37 H          21.9241   70.5852    2.3193 H       1  UNL1        0.2105
     38 H          21.4269   68.6000   -0.3807 H       1  UNL1        0.2105
     39 C          21.5489   75.0114    1.5324 C.2     1  UNL1        0.2231
     40 C          22.2994   76.1046    2.2494 C.3     1  UNL1        0.0946
     41 N          22.2243   74.0505    0.8730 N.am    1  UNL1       -0.2994
     42 O          20.3366   74.9971    1.5485 O.2     1  UNL1       -0.2751
     43 H          23.1945   74.0619    0.8599 H       1  UNL1        0.1496
     44 C          20.9747   69.7122   -2.5094 C.3     1  UNL1        0.1693
     45 O          19.6133   69.5180   -2.1206 O.3     1  UNL1       -0.3794
     46 H          19.2589   68.8164   -2.6835 H       1  UNL1        0.2105
@<TRIPOS>BOND
     1    29    30    1
     2    29    28    1
     3    29    36    1
     4    30    31    1
     5    30    41    1
     6    31    32    1
     7    31    34    1
     8    32    33    1
     9    32    35    1
    10    33    44    1
    11    33    36    1
    12    44    45    1
    13    39    40    1
    14    39    41   am
    15    39    42    2
    16    41    43    1
    17    28    25    1
    18    34    37    1
    19    35    38    1
    20    45    46    1
    21    15    16   ar
    22    15    20   ar
    23    15     6    1
    24    16    17   ar
    25    16    21    2
    26    17    18   ar
    27    17    23    1
    28    18    19   ar
    29    18    22    2
    30    19    20   ar
    31     6     7    1
    32     6    11    1
    33     7     8    1
    34     7     9    1
    35     8    13    1
    36     9    10    1
    37     9    12    1
    38    10    11    1
    39    10     5    1
    40    12    14    1
    41     5     4    1
    42     4     1    1
    43     1     2    2
    44     1     3    1
    45     1    24    1
    46    24    25    1
    47    25    26    2
    48    25    27    1
@<TRIPOS>MOLECULE
UD1
 46 48 0 0 0
SMALL
GASTEIGER

@<TRIPOS>ATOM
      1 P          20.3957   69.9783   -2.9343 P.3     1  UNL1        0.2189
      2 O          21.8198   70.0117   -3.3337 O.2     1  UNL1       -0.5170
      3 O          19.6450   68.7917   -3.7222 O.3     1  UNL1       -0.4371
      4 O          19.7034   71.3856   -3.2995 O.3     1  UNL1       -0.3112
      5 C          18.3476   71.1017   -3.6480 C.3     1  UNL1        0.1811
      6 C          18.9028   72.9972   -6.6523 C.3     1  UNL1        0.2383
      7 C          18.4492   71.6025   -7.1516 C.3     1  UNL1        0.1895
      8 O          17.7468   71.7066   -8.3905 O.3     1  UNL1       -0.3779
      9 C          17.5002   71.1424   -6.0145 C.3     1  UNL1        0.1713
     10 C          17.9184   72.0031   -4.8067 C.3     1  UNL1        0.1764
     11 O          19.0239   72.8218   -5.2247 O.3     1  UNL1       -0.3308
     12 O          16.1381   71.3926   -6.3676 O.3     1  UNL1       -0.3794
     13 H          17.4937   70.8086   -8.6454 H       1  UNL1        0.2106
     14 H          15.9557   70.8734   -7.1621 H       1  UNL1        0.2105
     15 N          20.1923   73.3645   -7.2385 N.ar    1  UNL1       -0.2551
     16 C          20.9924   72.4082   -7.7411 C.ar    1  UNL1        0.3323
     17 N          22.1821   72.7175   -8.2898 N.ar    1  UNL1       -0.2743
     18 C          22.5965   73.9997   -8.3356 C.ar    1  UNL1        0.2626
     19 C          21.7668   75.0159   -7.8047 C.ar    1  UNL1        0.0795
     20 C          20.5760   74.6783   -7.2649 C.ar    1  UNL1        0.0869
     21 O          20.6326   71.2471   -7.7073 O.2     1  UNL1       -0.2464
     22 O          23.6741   74.2800   -8.8272 O.2     1  UNL1       -0.2670
     23 H          22.7443   72.0153   -8.6519 H       1  UNL1        0.1734
     24 O          20.2886   69.7232   -1.3493 O.3     1  UNL1       -0.2703
     25 P          21.5720   70.4241   -0.6778 P.3     1  UNL1        0.2208
     26 O          22.8024   69.9377   -1.3400 O.2     1  UNL1       -0.5170
     27 O          21.6261   70.0579    0.8890 O.3     1  UNL1       -0.4371
     28 O          21.4650   72.0207   -0.8509 O.3     1  UNL1       -0.2865
     29 C          22.7990   72.5313   -0.8204 C.3     1  UNL1        0.2611
     30 C          22.8315   73.8097    0.0191 C.3     1  UNL1        0.1582
     31 C          21.8729   74.8366   -0.5943 C.3     1  UNL1        0.1625
     32 C          22.2304   75.0184   -2.0733 C.3     1  UNL1        0.1686
     33 C          22.2403   73.6489   -2.7557 C.3     1  UNL1        0.1760
     34 O          22.0049   76.0836    0.0905 O.3     1  UNL1       -0.3801
     35 O          21.2597   75.8591   -2.6997 O.3     1  UNL1       -0.3794
     36 O          23.2281   72.8157   -2.1502 O.3     1  UNL1       -0.3263
     37 H          21.3856   76.6982   -0.3265 H       1  UNL1        0.2105
     38 H          21.5219   75.9463   -3.6272 H       1  UNL1        0.2105
     39 C          23.0905   74.0273    2.4315 C.2     1  UNL1        0.2231
     40 C          22.6608   73.7145    3.8421 C.3     1  UNL1        0.0946
     41 N          22.4142   73.5065    1.3896 N.am    1  UNL1       -0.2994
     42 O          24.0458   74.7475    2.2343 O.2     1  UNL1       -0.2751
     43 H          21.6498   72.9299    1.5471 H       1  UNL1        0.1496
     44 C          22.5645   73.8229   -4.2408 C.3     1  UNL1        0.1693
     45 O          23.4747   72.8011   -4.6530 O.3     1  UNL1       -0.3794
     46 H          23.6526   72.9470   -5.5920 H       1  UNL1        0.2105
@<TRIPOS>BOND
     1    29    30    1
     2    29    28    1
     3    29    36    1
     4    30    31    1
     5    30    41    1
     6    31    32    1
     7    31    34    1
     8    32    33    1
     9    32    35    1
    10    33    44    1
    11    33    36    1
    12    44    45    1
    13    39    40    1
    14    39    41   am
    15    39    42    2
    16    41    43    1
    17    28    25    1
    18    34    37    1
    19    35    38    1
    20    45    46    1
    21    15    16   ar
    22    15    20   ar
    23    15     6    1
    24    16    17   ar
    25    16    21    2
    26    17    18   ar
    27    17    23    1
    28    18    19   ar
    29    18    22    2
    30    19    20   ar
    31     6     7    1
    32     6    11    1
    33     7     8    1
    34     7     9    1
    35     8    13    1
    36     9    10    1
    37     9    12    1
    38    10    11    1
    39    10     5    1
    40    12    14    1
    41     5     4    1
    42     4     1    1
    43     1     2    2
    44     1     3    1
    45     1    24    1
    46    24    25    1
    47    25    26    2
    48    25    27    1
@<TRIPOS>MOLECULE
UD1
 46 48 0 0 0
SMALL
GASTEIGER

@<TRIPOS>ATOM
      1 P          22.7911   73.1845   -3.4168 P.3     1  UNL1        0.2189
      2 O          23.5992   72.0546   -3.9257 O.2     1  UNL1       -0.5170
      3 O          23.4062   74.5708   -3.9576 O.3     1  UNL1       -0.4371
      4 O          22.8163   73.1793   -1.8068 O.3     1  UNL1       -0.3112
      5 C          22.1080   72.0126   -1.3855 C.3     1  UNL1        0.1811
      6 C          21.3727   73.4019    1.8481 C.3     1  UNL1        0.2383
      7 C          21.0802   74.5544    0.8548 C.3     1  UNL1        0.1895
      8 O          20.0406   75.4012    1.3462 O.3     1  UNL1       -0.3779
      9 C          20.6161   73.7849   -0.4092 C.3     1  UNL1        0.1713
     10 C          21.1887   72.3674   -0.2158 C.3     1  UNL1        0.1764
     11 O          21.9378   72.3704    1.0114 O.3     1  UNL1       -0.3308
     12 O          19.1889   73.7499   -0.4778 O.3     1  UNL1       -0.3794
     13 H          19.9082   76.0946    0.6850 H       1  UNL1        0.2106
     14 H          18.8897   74.6670   -0.5374 H       1  UNL1        0.2105
     15 N          22.3347   73.8254    2.8662 N.ar    1  UNL1       -0.2551
     16 C          23.4954   74.3910    2.4919 C.ar    1  UNL1        0.3323
     17 N          24.3971   74.7936    3.4068 N.ar    1  UNL1       -0.2743
     18 C          24.1519   74.6261    4.7220 C.ar    1  UNL1        0.2626
     19 C          22.9365   74.0266    5.1298 C.ar    1  UNL1        0.0795
     20 C          22.0473   73.6369    4.1913 C.ar    1  UNL1        0.0869
     21 O          23.7311   74.5489    1.3095 O.2     1  UNL1       -0.2464
     22 O          24.9685   74.9854    5.5499 O.2     1  UNL1       -0.2670
     23 H          25.2271   75.2040    3.1191 H       1  UNL1        0.1734
     24 O          21.2737   73.0331   -3.9300 O.3     1  UNL1       -0.2703
     25 P          21.3074   73.1845   -5.5316 P.3     1  UNL1        0.2208
     26 O          22.6534   72.8291   -6.0324 O.2     1  UNL1       -0.5170
     27 O          20.9703   74.7064   -5.9347 O.3     1  UNL1       -0.4371
     28 O          20.2141   72.2024   -6.1879 O.3     1  UNL1       -0.2865
     29 C          19.0537   72.9924   -6.4535 C.3     1  UNL1        0.2611
     30 C          17.8071   72.2222   -6.0145 C.3     1  UNL1        0.1582
     31 C          17.7438   70.8942   -6.7774 C.3     1  UNL1        0.1625
     32 C          17.8344   71.1867   -8.2789 C.3     1  UNL1        0.1686
     33 C          19.0809   72.0326   -8.5474 C.3     1  UNL1        0.1760
     34 O          16.5100   70.2342   -6.4884 O.3     1  UNL1       -0.3801
     35 O          17.9250   69.9570   -9.0007 O.3     1  UNL1       -0.3794
     36 O          18.9810   73.2734   -7.8496 O.3     1  UNL1       -0.3263
     37 H          16.5128   69.4057   -6.9874 H       1  UNL1        0.2105
     38 H          17.9809   70.1869   -9.9391 H       1  UNL1        0.2105
     39 C          16.7568   72.0074   -3.8270 C.2     1  UNL1        0.2231
     40 C          16.8279   71.7364   -2.3458 C.3     1  UNL1        0.0946
     41 N          17.8755   71.9586   -4.5757 N.am    1  UNL1       -0.2994
     42 O          15.6924   72.2700   -4.3449 O.2     1  UNL1       -0.2751
     43 H          18.7274   71.7486   -4.1614 H       1  UNL1        0.1496
     44 C          19.1983   72.3031  -10.0488 C.3     1  UNL1        0.1693
     45 O          18.0717   73.0661  -10.4854 O.3     1  UNL1       -0.3794
     46 H          18.1845   73.2139  -11.4341 H       1  UNL1        0.2105
@<TRIPOS>BOND
     1    29    30    1
     2    29    28    1
     3    29    36    1
     4    30    31    1
     5    30    41    1
     6    31    32    1
     7    31    34    1
     8    32    33    1
     9    32    35    1
    10    33    44    1
    11    33    36    1
    12    44    45    1
    13    39    40    1
    14    39    41   am
    15    39    42    2
    16    41    43    1
    17    28    25    1
    18    34    37    1
    19    35    38    1
    20    45    46    1
    21    15    16   ar
    22    15    20   ar
    23    15     6    1
    24    16    17   ar
    25    16    21    2
    26    17    18   ar
    27    17    23    1
    28    18    19   ar
    29    18    22    2
    30    19    20   ar
    31     6     7    1
    32     6    11    1
    33     7     8    1
    34     7     9    1
    35     8    13    1
    36     9    10    1
    37     9    12    1
    38    10    11    1
    39    10     5    1
    40    12    14    1
    41     5     4    1
    42     4     1    1
    43     1     2    2
    44     1     3    1
    45     1    24    1
    46    24    25    1
    47    25    26    2
    48    25    27    1
@<TRIPOS>MOLECULE
UD1
 46 48 0 0 0
SMALL
GASTEIGER

@<TRIPOS>ATOM
      1 P          20.1881   69.9585   -2.4634 P.3     1  UNL1        0.2189
      2 O          19.4269   68.7078   -2.6754 O.2     1  UNL1       -0.5170
      3 O          21.6356   69.8301   -3.1569 O.3     1  UNL1       -0.4371
      4 O          20.3715   70.2133   -0.8841 O.3     1  UNL1       -0.3112
      5 C          21.6380   70.8511   -0.7121 C.3     1  UNL1        0.1811
      6 C          21.5895   73.7465    1.4191 C.3     1  UNL1        0.2383
      7 C          23.0056   73.7507    0.7907 C.3     1  UNL1        0.1895
      8 O          23.4972   75.0837    0.6471 O.3     1  UNL1       -0.3779
      9 C          22.7489   73.1032   -0.5950 C.3     1  UNL1        0.1713
     10 C          21.4258   72.3354   -0.4101 C.3     1  UNL1        0.1764
     11 O          21.0197   72.5026    0.9590 O.3     1  UNL1       -0.3308
     12 O          22.6142   74.1101   -1.6004 O.3     1  UNL1       -0.3794
     13 H          24.3779   75.0166    0.2529 H       1  UNL1        0.2106
     14 H          23.4512   74.5926   -1.6263 H       1  UNL1        0.2105
     15 N          21.6695   73.7684    2.8801 N.ar    1  UNL1       -0.2551
     16 C          21.8096   72.6154    3.5571 C.ar    1  UNL1        0.3323
     17 N          21.8898   72.6060    4.9009 N.ar    1  UNL1       -0.2743
     18 C          21.8211   73.7606    5.5938 C.ar    1  UNL1        0.2626
     19 C          21.6677   74.9811    4.8940 C.ar    1  UNL1        0.0795
     20 C          21.5953   74.9622    3.5458 C.ar    1  UNL1        0.0869
     21 O          21.8731   71.5659    2.9463 O.2     1  UNL1       -0.2464
     22 O          21.8887   73.7528    6.8090 O.2     1  UNL1       -0.2670
     23 H          21.9954   71.7655    5.3727 H       1  UNL1        0.1734
     24 O          19.3867   71.1917   -3.1161 O.3     1  UNL1       -0.2703
     25 P          18.5267   70.5929   -4.3373 P.3     1  UNL1        0.2208
     26 O          17.4086   69.7845   -3.8032 O.2     1  UNL1       -0.5170
     27 O          19.4695   69.6640   -5.2540 O.3     1  UNL1       -0.4371
     28 O          17.9396   71.8005   -5.2247 O.3     1  UNL1       -0.2865
     29 C          16.6651   71.3759   -5.7110 C.3     1  UNL1        0.2611
     30 C          16.6327   71.5179   -7.2338 C.3     1  UNL1        0.1582
     31 C          16.8939   72.9816   -7.6065 C.3     1  UNL1        0.1625
     32 C          15.8983   73.8656   -6.8479 C.3     1  UNL1        0.1686
     33 C          15.9883   73.5486   -5.3536 C.3     1  UNL1        0.1760
     34 O          16.7187   73.1560   -9.0137 O.3     1  UNL1       -0.3801
     35 O          16.2177   75.2411   -7.0662 O.3     1  UNL1       -0.3794
     36 O          15.6432   72.1823   -5.1290 O.3     1  UNL1       -0.3263
     37 H          16.8925   74.0883   -9.2034 H       1  UNL1        0.2105
     38 H          15.5685   75.7609   -6.5714 H       1  UNL1        0.2105
     39 C          18.8669   71.1907   -8.1478 C.2     1  UNL1        0.2231
     40 C          19.9317   70.3160   -8.7590 C.3     1  UNL1        0.0946
     41 N          17.6675   70.6684   -7.8271 N.am    1  UNL1       -0.2994
     42 O          19.0898   72.3652   -7.9453 O.2     1  UNL1       -0.2751
     43 H          17.4889   69.7286   -7.9893 H       1  UNL1        0.1496
     44 C          15.0208   74.4495   -4.5833 C.3     1  UNL1        0.1693
     45 O          13.8585   74.6913   -5.3788 O.3     1  UNL1       -0.3794
     46 H          13.2767   75.2614   -4.8582 H       1  UNL1        0.2105
@<TRIPOS>BOND
     1    29    30    1
     2    29    28    1
     3    29    36    1
     4    30    31    1
     5    30    41    1
     6    31    32    1
     7    31    34    1
     8    32    33    1
     9    32    35    1
    10    33    44    1
    11    33    36    1
    12    44    45    1
    13    39    40    1
    14    39    41   am
    15    39    42    2
    16    41    43    1
    17    28    25    1
    18    34    37    1
    19    35    38    1
    20    45    46    1
    21    15    16   ar
    22    15    20   ar
    23    15     6    1
    24    16    17   ar
    25    16    21    2
    26    17    18   ar
    27    17    23    1
    28    18    19   ar
    29    18    22    2
    30    19    20   ar
    31     6     7    1
    32     6    11    1
    33     7     8    1
    34     7     9    1
    35     8    13    1
    36     9    10    1
    37     9    12    1
    38    10    11    1
    39    10     5    1
    40    12    14    1
    41     5     4    1
    42     4     1    1
    43     1     2    2
    44     1     3    1
    45     1    24    1
    46    24    25    1
    47    25    26    2
    48    25    27    1
@<TRIPOS>MOLECULE
UD1
 46 48 0 0 0
SMALL
GASTEIGER

@<TRIPOS>ATOM
      1 P          19.8368   70.0748   -2.5667 P.3     1  UNL1        0.2189
      2 O          20.9528   69.1191   -2.7396 O.2     1  UNL1       -0.5170
      3 O          18.5180   69.2804   -2.0952 O.3     1  UNL1       -0.4371
      4 O          19.5442   70.8160   -3.9659 O.3     1  UNL1       -0.3112
      5 C          18.1267   70.8232   -4.1419 C.3     1  UNL1        0.1811
      6 C          18.8410   72.9001   -6.9885 C.3     1  UNL1        0.2383
      7 C          18.4479   71.5304   -7.5963 C.3     1  UNL1        0.1895
      8 O          17.8263   71.6963   -8.8712 O.3     1  UNL1       -0.3779
      9 C          17.4355   70.9898   -6.5532 C.3     1  UNL1        0.1713
     10 C          17.7571   71.7844   -5.2727 C.3     1  UNL1        0.1764
     11 O          18.8717   72.6430   -5.5685 O.3     1  UNL1       -0.3308
     12 O          16.0948   71.2394   -6.9812 O.3     1  UNL1       -0.3794
     13 H          17.6077   70.8111   -9.1937 H       1  UNL1        0.2106
     14 H          15.9749   70.7650   -7.8146 H       1  UNL1        0.2105
     15 N          20.1589   73.3210   -7.4655 N.ar    1  UNL1       -0.2551
     16 C          21.2456   72.5970   -7.1458 C.ar    1  UNL1        0.3323
     17 N          22.4697   72.9583   -7.5739 N.ar    1  UNL1       -0.2743
     18 C          22.6266   74.0651   -8.3278 C.ar    1  UNL1        0.2626
     19 C          21.4918   74.8398   -8.6667 C.ar    1  UNL1        0.0795
     20 C          20.2750   74.4516   -8.2284 C.ar    1  UNL1        0.0869
     21 O          21.1203   71.5962   -6.4667 O.2     1  UNL1       -0.2464
     22 O          23.7335   74.3954   -8.7114 O.2     1  UNL1       -0.2670
     23 H          23.2420   72.4217   -7.3378 H       1  UNL1        0.1734
     24 O          20.2332   71.1671   -1.4537 O.3     1  UNL1       -0.2703
     25 P          21.6621   70.7272   -0.8588 P.3     1  UNL1        0.2208
     26 O          22.5502   70.3103   -1.9662 O.2     1  UNL1       -0.5170
     27 O          21.4640   69.4973    0.1612 O.3     1  UNL1       -0.4371
     28 O          22.3249   71.9687   -0.0779 O.3     1  UNL1       -0.2865
     29 C          21.2507   72.7932    0.3774 C.3     1  UNL1        0.2611
     30 C          21.5912   74.2602    0.1092 C.3     1  UNL1        0.1582
     31 C          22.8919   74.6143    0.8388 C.3     1  UNL1        0.1625
     32 C          22.7423   74.2394    2.3171 C.3     1  UNL1        0.1686
     33 C          22.3178   72.7729    2.4188 C.3     1  UNL1        0.1760
     34 O          23.1413   76.0161    0.7198 O.3     1  UNL1       -0.3801
     35 O          23.9914   74.4244    2.9858 O.3     1  UNL1       -0.3794
     36 O          21.0571   72.5901    1.7755 O.3     1  UNL1       -0.3263
     37 H          23.9666   76.1941    1.1915 H       1  UNL1        0.2105
     38 H          23.8527   74.1768    3.9110 H       1  UNL1        0.2105
     39 C          22.9918   74.3966   -1.8793 C.2     1  UNL1        0.2231
     40 C          23.1691   74.6109   -3.3608 C.3     1  UNL1        0.0946
     41 N          21.7640   74.4677   -1.3301 N.am    1  UNL1       -0.2994
     42 O          23.9547   74.1608   -1.1813 O.2     1  UNL1       -0.2751
     43 H          20.9932   74.6567   -1.8884 H       1  UNL1        0.1496
     44 C          22.1971   72.3792    3.8925 C.3     1  UNL1        0.1693
     45 O          20.8969   72.7260    4.3736 O.3     1  UNL1       -0.3794
     46 H          20.8630   72.4621    5.3030 H       1  UNL1        0.2105
@<TRIPOS>BOND
     1    29    30    1
     2    29    28    1
     3    29    36    1
     4    30    31    1
     5    30    41    1
     6    31    32    1
     7    31    34    1
     8    32    33    1
     9    32    35    1
    10    33    44    1
    11    33    36    1
    12    44    45    1
    13    39    40    1
    14    39    41   am
    15    39    42    2
    16    41    43    1
    17    28    25    1
    18    34    37    1
    19    35    38    1
    20    45    46    1
    21    15    16   ar
    22    15    20   ar
    23    15     6    1
    24    16    17   ar
    25    16    21    2
    26    17    18   ar
    27    17    23    1
    28    18    19   ar
    29    18    22    2
    30    19    20   ar
    31     6     7    1
    32     6    11    1
    33     7     8    1
    34     7     9    1
    35     8    13    1
    36     9    10    1
    37     9    12    1
    38    10    11    1
    39    10     5    1
    40    12    14    1
    41     5     4    1
    42     4     1    1
    43     1     2    2
    44     1     3    1
    45     1    24    1
    46    24    25    1
    47    25    26    2
    48    25    27    1
@<TRIPOS>MOLECULE
UD1
 46 48 0 0 0
SMALL
GASTEIGER

@<TRIPOS>ATOM
      1 P          22.3246   71.8499   -3.0382 P.3     1  UNL1        0.2189
      2 O          22.8808   70.5691   -2.5493 O.2     1  UNL1       -0.5170
      3 O          23.5218   72.7875   -3.5676 O.3     1  UNL1       -0.4371
      4 O          21.5536   72.5933   -1.8358 O.3     1  UNL1       -0.3112
      5 C          22.5377   73.3237   -1.1021 C.3     1  UNL1        0.1811
      6 C          22.6353   73.2747    2.4917 C.3     1  UNL1        0.2383
      7 C          21.2022   72.8057    2.1358 C.3     1  UNL1        0.1895
      8 O          20.7022   71.8989    3.1192 O.3     1  UNL1       -0.3779
      9 C          21.4226   72.0854    0.7802 C.3     1  UNL1        0.1713
     10 C          22.7530   72.6639    0.2608 C.3     1  UNL1        0.1764
     11 O          23.1964   73.6445    1.2142 O.3     1  UNL1       -0.3308
     12 O          21.5257   70.6732    0.9748 O.3     1  UNL1       -0.3794
     13 H          19.8112   71.6466    2.8403 H       1  UNL1        0.2106
     14 H          20.6866   70.3818    1.3558 H       1  UNL1        0.2105
     15 N          22.5959   74.4281    3.3914 N.ar    1  UNL1       -0.2551
     16 C          22.5986   74.2356    4.7220 C.ar    1  UNL1        0.3323
     17 N          22.5668   75.2779    5.5732 N.ar    1  UNL1       -0.2743
     18 C          22.5222   76.5400    5.1007 C.ar    1  UNL1        0.2626
     19 C          22.5128   76.7568    3.7022 C.ar    1  UNL1        0.0795
     20 C          22.5507   75.6934    2.8710 C.ar    1  UNL1        0.0869
     21 O          22.6387   73.1032    5.1634 O.2     1  UNL1       -0.2464
     22 O          22.4887   77.4830    5.8695 O.2     1  UNL1       -0.2670
     23 H          22.5742   75.1208    6.5300 H       1  UNL1        0.1734
     24 O          21.2942   71.5635   -4.2403 O.3     1  UNL1       -0.2703
     25 P          21.3555   72.8394   -5.2190 P.3     1  UNL1        0.2208
     26 O          22.6407   72.8374   -5.9519 O.2     1  UNL1       -0.5170
     27 O          21.2363   74.1894   -4.3499 O.3     1  UNL1       -0.4371
     28 O          20.1385   72.7701   -6.2699 O.3     1  UNL1       -0.2865
     29 C          20.1179   71.4409   -6.7933 C.3     1  UNL1        0.2611
     30 C          20.1349   71.4996   -8.3218 C.3     1  UNL1        0.1582
     31 C          18.9149   72.2910   -8.8066 C.3     1  UNL1        0.1625
     32 C          17.6543   71.6737   -8.1917 C.3     1  UNL1        0.1686
     33 C          17.8233   71.6047   -6.6725 C.3     1  UNL1        0.1760
     34 O          18.8376   72.2262  -10.2318 O.3     1  UNL1       -0.3801
     35 O          16.5211   72.4830   -8.5117 O.3     1  UNL1       -0.3794
     36 O          18.9381   70.7747   -6.3486 O.3     1  UNL1       -0.3263
     37 H          18.0584   72.7361  -10.4928 H       1  UNL1        0.2105
     38 H          15.7514   72.0596   -8.1056 H       1  UNL1        0.2105
     39 C          21.3589   73.4857   -9.0229 C.2     1  UNL1        0.2231
     40 C          22.6205   74.1671   -9.4878 C.3     1  UNL1        0.0946
     41 N          21.3604   72.1621   -8.7730 N.am    1  UNL1       -0.2994
     42 O          20.3419   74.1289   -8.8742 O.2     1  UNL1       -0.2751
     43 H          22.1741   71.6471   -8.8921 H       1  UNL1        0.1496
     44 C          16.5561   71.0194   -6.0457 C.3     1  UNL1        0.1693
     45 O          16.4265   69.6477   -6.4249 O.3     1  UNL1       -0.3794
     46 H          15.6177   69.3181   -6.0104 H       1  UNL1        0.2105
@<TRIPOS>BOND
     1    29    30    1
     2    29    28    1
     3    29    36    1
     4    30    31    1
     5    30    41    1
     6    31    32    1
     7    31    34    1
     8    32    33    1
     9    32    35    1
    10    33    44    1
    11    33    36    1
    12    44    45    1
    13    39    40    1
    14    39    41   am
    15    39    42    2
    16    41    43    1
    17    28    25    1
    18    34    37    1
    19    35    38    1
    20    45    46    1
    21    15    16   ar
    22    15    20   ar
    23    15     6    1
    24    16    17   ar
    25    16    21    2
    26    17    18   ar
    27    17    23    1
    28    18    19   ar
    29    18    22    2
    30    19    20   ar
    31     6     7    1
    32     6    11    1
    33     7     8    1
    34     7     9    1
    35     8    13    1
    36     9    10    1
    37     9    12    1
    38    10    11    1
    39    10     5    1
    40    12    14    1
    41     5     4    1
    42     4     1    1
    43     1     2    2
    44     1     3    1
    45     1    24    1
    46    24    25    1
    47    25    26    2
    48    25    27    1
@<TRIPOS>MOLECULE
UD1
 46 48 0 0 0
SMALL
GASTEIGER

@<TRIPOS>ATOM
      1 P          18.3151   70.6626   -2.8407 P.3     1  UNL1        0.2189
      2 O          16.9442   71.0803   -2.4732 O.2     1  UNL1       -0.5170
      3 O          18.5007   69.0944   -2.5264 O.3     1  UNL1       -0.4371
      4 O          19.3819   71.5107   -1.9831 O.3     1  UNL1       -0.3112
      5 C          20.1614   72.2600   -2.9165 C.3     1  UNL1        0.1811
      6 C          22.7265   72.3803   -0.4000 C.3     1  UNL1        0.2383
      7 C          22.5876   70.8754   -0.7410 C.3     1  UNL1        0.1895
      8 O          23.8330   70.1967   -0.5754 O.3     1  UNL1       -0.3779
      9 C          22.1744   70.9170   -2.2353 C.3     1  UNL1        0.1713
     10 C          21.6086   72.3373   -2.4279 C.3     1  UNL1        0.1764
     11 O          21.6590   72.9966   -1.1512 O.3     1  UNL1       -0.3308
     12 O          23.3117   70.7064   -3.0749 O.3     1  UNL1       -0.3794
     13 H          23.6788   69.2691   -0.8019 H       1  UNL1        0.2106
     14 H          23.6546   69.8274   -2.8653 H       1  UNL1        0.2105
     15 N          22.5457   72.6066    1.0344 N.ar    1  UNL1       -0.2551
     16 C          21.8878   71.6975    1.7747 C.ar    1  UNL1        0.3323
     17 N          21.7101   71.8777    3.0969 N.ar    1  UNL1       -0.2743
     18 C          22.1848   72.9854    3.7015 C.ar    1  UNL1        0.2626
     19 C          22.8741   73.9535    2.9330 C.ar    1  UNL1        0.0795
     20 C          23.0428   73.7450    1.6096 C.ar    1  UNL1        0.0869
     21 O          21.4538   70.6933    1.2438 O.2     1  UNL1       -0.2464
     22 O          22.0206   73.1517    4.8960 O.2     1  UNL1       -0.2670
     23 H          21.2373   71.2093    3.6164 H       1  UNL1        0.1734
     24 O          18.5549   70.9287   -4.4093 O.3     1  UNL1       -0.2703
     25 P          17.1049   70.9344   -5.1069 P.3     1  UNL1        0.2208
     26 O          16.1548   71.6924   -4.2633 O.2     1  UNL1       -0.5170
     27 O          16.5831   69.4205   -5.2741 O.3     1  UNL1       -0.4371
     28 O          17.2076   71.6281   -6.5556 O.3     1  UNL1       -0.2865
     29 C          18.1950   72.6557   -6.4540 C.3     1  UNL1        0.2611
     30 C          17.7326   73.8804   -7.2453 C.3     1  UNL1        0.1582
     31 C          17.5175   73.4795   -8.7091 C.3     1  UNL1        0.1625
     32 C          18.7961   72.8128   -9.2276 C.3     1  UNL1        0.1686
     33 C          19.1766   71.6664   -8.2882 C.3     1  UNL1        0.1760
     34 O          17.2309   74.6431   -9.4871 O.3     1  UNL1       -0.3801
     35 O          18.5686   72.3001  -10.5417 O.3     1  UNL1       -0.3794
     36 O          19.4312   72.1787   -6.9808 O.3     1  UNL1       -0.3263
     37 H          17.1027   74.3453  -10.3983 H       1  UNL1        0.2105
     38 H          19.3964   71.8893  -10.8289 H       1  UNL1        0.2105
     39 C          15.2998   74.0022   -7.2200 C.2     1  UNL1        0.2231
     40 C          14.0065   74.5178   -6.6421 C.3     1  UNL1        0.0946
     41 N          16.4760   74.3806   -6.6839 N.am    1  UNL1       -0.2994
     42 O          15.2815   73.2469   -8.1684 O.2     1  UNL1       -0.2751
     43 H          16.4909   74.9853   -5.9252 H       1  UNL1        0.1496
     44 C          20.4345   70.9730   -8.8152 C.3     1  UNL1        0.1693
     45 O          20.2047   69.5648   -8.8952 O.3     1  UNL1       -0.3794
     46 H          21.0195   69.1669   -9.2304 H       1  UNL1        0.2105
@<TRIPOS>BOND
     1    29    30    1
     2    29    28    1
     3    29    36    1
     4    30    31    1
     5    30    41    1
     6    31    32    1
     7    31    34    1
     8    32    33    1
     9    32    35    1
    10    33    44    1
    11    33    36    1
    12    44    45    1
    13    39    40    1
    14    39    41   am
    15    39    42    2
    16    41    43    1
    17    28    25    1
    18    34    37    1
    19    35    38    1
    20    45    46    1
    21    15    16   ar
    22    15    20   ar
    23    15     6    1
    24    16    17   ar
    25    16    21    2
    26    17    18   ar
    27    17    23    1
    28    18    19   ar
    29    18    22    2
    30    19    20   ar
    31     6     7    1
    32     6    11    1
    33     7     8    1
    34     7     9    1
    35     8    13    1
    36     9    10    1
    37     9    12    1
    38    10    11    1
    39    10     5    1
    40    12    14    1
    41     5     4    1
    42     4     1    1
    43     1     2    2
    44     1     3    1
    45     1    24    1
    46    24    25    1
    47    25    26    2
    48    25    27    1
@<TRIPOS>MOLECULE
UD1
 46 48 0 0 0
SMALL
GASTEIGER

@<TRIPOS>ATOM
      1 P          22.7842   73.8813   -4.4216 P.3     1  UNL1        0.2189
      2 O          23.5176   72.5986   -4.4958 O.2     1  UNL1       -0.5170
      3 O          23.4212   74.9252   -5.4689 O.3     1  UNL1       -0.4371
      4 O          22.9001   74.4796   -2.9311 O.3     1  UNL1       -0.3112
      5 C          21.9071   73.8220   -2.1427 C.3     1  UNL1        0.1811
      6 C          22.3906   72.3604    1.1065 C.3     1  UNL1        0.2383
      7 C          21.4125   71.3966    0.3890 C.3     1  UNL1        0.1895
      8 O          21.5897   70.0552    0.8455 O.3     1  UNL1       -0.3779
      9 C          21.8450   71.5382   -1.0937 C.3     1  UNL1        0.1713
     10 C          22.5866   72.8881   -1.1400 C.3     1  UNL1        0.1764
     11 O          22.5246   73.4579    0.1786 O.3     1  UNL1       -0.3308
     12 O          22.7166   70.4681   -1.4650 O.3     1  UNL1       -0.3794
     13 H          20.9543   69.5087    0.3628 H       1  UNL1        0.2106
     14 H          22.2146   69.6492   -1.3581 H       1  UNL1        0.2105
     15 N          21.8267   72.8230    2.3751 N.ar    1  UNL1       -0.2551
     16 C          22.1044   72.1576    3.5098 C.ar    1  UNL1        0.3323
     17 N          21.6027   72.5628    4.6915 N.ar    1  UNL1       -0.2743
     18 C          20.8007   73.6449    4.7540 C.ar    1  UNL1        0.2626
     19 C          20.4954   74.3512    3.5663 C.ar    1  UNL1        0.0795
     20 C          21.0163   73.9261    2.3953 C.ar    1  UNL1        0.0869
     21 O          22.8262   71.1799    3.4696 O.2     1  UNL1       -0.2464
     22 O          20.3428   74.0093    5.8212 O.2     1  UNL1       -0.2670
     23 H          21.8173   72.0737    5.5007 H       1  UNL1        0.1734
     24 O          21.2354   73.6356   -4.7820 O.3     1  UNL1       -0.2703
     25 P          21.1632   73.3733   -6.3680 P.3     1  UNL1        0.2208
     26 O          22.3398   72.5825   -6.7911 O.2     1  UNL1       -0.5170
     27 O          21.1568   74.7828   -7.1460 O.3     1  UNL1       -0.4371
     28 O          19.8176   72.5625   -6.7183 O.3     1  UNL1       -0.2865
     29 C          18.8666   72.8778   -5.6998 C.3     1  UNL1        0.2611
     30 C          18.0385   71.6323   -5.3791 C.3     1  UNL1        0.1582
     31 C          17.3299   71.1597   -6.6535 C.3     1  UNL1        0.1625
     32 C          16.5400   72.3348   -7.2396 C.3     1  UNL1        0.1686
     33 C          17.4821   73.5265   -7.4228 C.3     1  UNL1        0.1760
     34 O          16.4379   70.0895   -6.3366 O.3     1  UNL1       -0.3801
     35 O          15.9914   71.9586   -8.5041 O.3     1  UNL1       -0.3794
     36 O          18.0106   73.9223   -6.1577 O.3     1  UNL1       -0.3263
     37 H          16.0150   69.8237   -7.1647 H       1  UNL1        0.2105
     38 H          15.5043   72.7256   -8.8370 H       1  UNL1        0.2105
     39 C          18.5354   69.8040   -3.8479 C.2     1  UNL1        0.2231
     40 C          19.4430   68.7128   -3.3400 C.3     1  UNL1        0.0946
     41 N          18.9196   70.5718   -4.8857 N.am    1  UNL1       -0.2994
     42 O          17.4592   69.9913   -3.3217 O.2     1  UNL1       -0.2751
     43 H          19.7809   70.4223   -5.3068 H       1  UNL1        0.1496
     44 C          16.7100   74.6954   -8.0381 C.3     1  UNL1        0.1693
     45 O          17.6035   75.5068   -8.8033 O.3     1  UNL1       -0.3794
     46 H          17.0784   76.2299   -9.1723 H       1  UNL1        0.2105
@<TRIPOS>BOND
     1    29    30    1
     2    29    28    1
     3    29    36    1
     4    30    31    1
     5    30    41    1
     6    31    32    1
     7    31    34    1
     8    32    33    1
     9    32    35    1
    10    33    44    1
    11    33    36    1
    12    44    45    1
    13    39    40    1
    14    39    41   am
    15    39    42    2
    16    41    43    1
    17    28    25    1
    18    34    37    1
    19    35    38    1
    20    45    46    1
    21    15    16   ar
    22    15    20   ar
    23    15     6    1
    24    16    17   ar
    25    16    21    2
    26    17    18   ar
    27    17    23    1
    28    18    19   ar
    29    18    22    2
    30    19    20   ar
    31     6     7    1
    32     6    11    1
    33     7     8    1
    34     7     9    1
    35     8    13    1
    36     9    10    1
    37     9    12    1
    38    10    11    1
    39    10     5    1
    40    12    14    1
    41     5     4    1
    42     4     1    1
    43     1     2    2
    44     1     3    1
    45     1    24    1
    46    24    25    1
    47    25    26    2
    48    25    27    1
@<TRIPOS>MOLECULE
UD1
 46 48 0 0 0
SMALL
GASTEIGER

@<TRIPOS>ATOM
      1 P          18.8207   69.3900   -3.4202 P.3     1  UNL1        0.2189
      2 O          19.8955   69.8887   -4.3061 O.2     1  UNL1       -0.5170
      3 O          18.7298   67.7866   -3.5369 O.3     1  UNL1       -0.4371
      4 O          17.4158   70.0399   -3.8634 O.3     1  UNL1       -0.3112
      5 C          17.2822   71.2669   -3.1444 C.3     1  UNL1        0.1811
      6 C          17.6108   72.7570   -6.4000 C.3     1  UNL1        0.2383
      7 C          16.0892   72.5169   -6.2348 C.3     1  UNL1        0.1895
      8 O          15.3364   73.5013   -6.9444 O.3     1  UNL1       -0.3779
      9 C          15.8993   72.6729   -4.7035 C.3     1  UNL1        0.1713
     10 C          17.3087   72.4397   -4.1258 C.3     1  UNL1        0.1764
     11 O          18.1799   72.1350   -5.2283 O.3     1  UNL1       -0.3308
     12 O          15.4336   73.9869   -4.3883 O.3     1  UNL1       -0.3794
     13 H          14.4020   73.2959   -6.8019 H       1  UNL1        0.2106
     14 H          14.5784   74.0925   -4.8261 H       1  UNL1        0.2105
     15 N          18.1084   72.1161   -7.6178 N.ar    1  UNL1       -0.2551
     16 C          17.8007   70.8316   -7.8683 C.ar    1  UNL1        0.3323
     17 N          18.2414   70.2178   -8.9824 N.ar    1  UNL1       -0.2743
     18 C          19.0115   70.8842   -9.8660 C.ar    1  UNL1        0.2626
     19 C          19.3480   72.2352   -9.6118 C.ar    1  UNL1        0.0795
     20 C          18.8881   72.8280   -8.4891 C.ar    1  UNL1        0.0869
     21 O          17.1070   70.2172   -7.0809 O.2     1  UNL1       -0.2464
     22 O          19.4144   70.3288  -10.8712 O.2     1  UNL1       -0.2670
     23 H          18.0058   69.2922   -9.1494 H       1  UNL1        0.1734
     24 O          19.1455   69.8006   -1.8987 O.3     1  UNL1       -0.2703
     25 P          20.7162   70.1449   -1.8353 P.3     1  UNL1        0.2208
     26 O          21.4646   69.1913   -2.6835 O.2     1  UNL1       -0.5170
     27 O          21.2310   70.0276   -0.3144 O.3     1  UNL1       -0.4371
     28 O          20.9603   71.6436   -2.3690 O.3     1  UNL1       -0.2865
     29 C          22.3624   71.7743   -2.6106 C.3     1  UNL1        0.2611
     30 C          22.8799   73.0334   -1.9129 C.3     1  UNL1        0.1582
     31 C          22.1221   74.2522   -2.4514 C.3     1  UNL1        0.1625
     32 C          22.2320   74.2617   -3.9798 C.3     1  UNL1        0.1686
     33 C          21.7604   72.9107   -4.5218 C.3     1  UNL1        0.1760
     34 O          22.6970   75.4470   -1.9193 O.3     1  UNL1       -0.3801
     35 O          21.4121   75.3041   -4.5115 O.3     1  UNL1       -0.3794
     36 O          22.5945   71.8699   -4.0143 O.3     1  UNL1       -0.3263
     37 H          22.1909   76.1866   -2.2829 H       1  UNL1        0.2105
     38 H          21.5102   75.2738   -5.4738 H       1  UNL1        0.2105
     39 C          21.5517   73.4390    0.0885 C.2     1  UNL1        0.2231
     40 C          21.3278   73.3209    1.5745 C.3     1  UNL1        0.0946
     41 N          22.6616   72.9185   -0.4695 N.am    1  UNL1       -0.2994
     42 O          20.7327   74.0033   -0.6051 O.2     1  UNL1       -0.2751
     43 H          23.3173   72.4671    0.0854 H       1  UNL1        0.1496
     44 C          21.8356   72.9213   -6.0500 C.3     1  UNL1        0.1693
     45 O          22.7938   73.8932   -6.4734 O.3     1  UNL1       -0.3794
     46 H          22.8098   73.8678   -7.4397 H       1  UNL1        0.2105
@<TRIPOS>BOND
     1    29    30    1
     2    29    28    1
     3    29    36    1
     4    30    31    1
     5    30    41    1
     6    31    32    1
     7    31    34    1
     8    32    33    1
     9    32    35    1
    10    33    44    1
    11    33    36    1
    12    44    45    1
    13    39    40    1
    14    39    41   am
    15    39    42    2
    16    41    43    1
    17    28    25    1
    18    34    37    1
    19    35    38    1
    20    45    46    1
    21    15    16   ar
    22    15    20   ar
    23    15     6    1
    24    16    17   ar
    25    16    21    2
    26    17    18   ar
    27    17    23    1
    28    18    19   ar
    29    18    22    2
    30    19    20   ar
    31     6     7    1
    32     6    11    1
    33     7     8    1
    34     7     9    1
    35     8    13    1
    36     9    10    1
    37     9    12    1
    38    10    11    1
    39    10     5    1
    40    12    14    1
    41     5     4    1
    42     4     1    1
    43     1     2    2
    44     1     3    1
    45     1    24    1
    46    24    25    1
    47    25    26    2
    48    25    27    1
@<TRIPOS>MOLECULE
UD1
 46 48 0 0 0
SMALL
GASTEIGER

@<TRIPOS>ATOM
      1 P          22.5315   71.7372   -2.4303 P.3     1  UNL1        0.2189
      2 O          23.4712   70.7793   -3.0532 O.2     1  UNL1       -0.5170
      3 O          21.9835   71.1273   -1.0445 O.3     1  UNL1       -0.4371
      4 O          21.2940   71.9991   -3.4267 O.3     1  UNL1       -0.3112
      5 C          20.7858   70.7178   -3.8013 C.3     1  UNL1        0.1811
      6 C          17.3069   71.1171   -4.6169 C.3     1  UNL1        0.2383
      7 C          17.6210   69.6411   -4.9676 C.3     1  UNL1        0.1895
      8 O          16.4692   68.8165   -4.7865 O.3     1  UNL1       -0.3779
      9 C          18.7223   69.2881   -3.9344 C.3     1  UNL1        0.1713
     10 C          19.2864   70.6566   -3.5062 C.3     1  UNL1        0.1764
     11 O          18.5968   71.6628   -4.2673 O.3     1  UNL1       -0.3308
     12 O          18.1574   68.6004   -2.8161 O.3     1  UNL1       -0.3794
     13 H          16.7303   67.9152   -5.0209 H       1  UNL1        0.2106
     14 H          17.7695   67.7836   -3.1574 H       1  UNL1        0.2105
     15 N          16.7462   71.8176   -5.7728 N.ar    1  UNL1       -0.2551
     16 C          17.0676   71.4169   -7.0151 C.ar    1  UNL1        0.3323
     17 N          16.5636   72.0401   -8.0967 N.ar    1  UNL1       -0.2743
     18 C          15.7299   73.0895   -7.9492 C.ar    1  UNL1        0.2626
     19 C          15.3879   73.5257   -6.6470 C.ar    1  UNL1        0.0795
     20 C          15.9036   72.8790   -5.5796 C.ar    1  UNL1        0.0869
     21 O          17.8182   70.4719   -7.1644 O.2     1  UNL1       -0.2464
     22 O          15.2774   73.6568   -8.9264 O.2     1  UNL1       -0.2670
     23 H          16.8024   71.7346   -8.9854 H       1  UNL1        0.1734
     24 O          23.2921   73.1256   -2.1431 O.3     1  UNL1       -0.2703
     25 P          23.7046   73.7344   -3.5744 P.3     1  UNL1        0.2208
     26 O          23.6755   72.6621   -4.5933 O.2     1  UNL1       -0.5170
     27 O          25.1891   74.3517   -3.4881 O.3     1  UNL1       -0.4371
     28 O          22.6662   74.8934   -3.9854 O.3     1  UNL1       -0.2865
     29 C          23.3692   75.7951   -4.8421 C.3     1  UNL1        0.2611
     30 C          22.5953   77.1114   -4.9340 C.3     1  UNL1        0.1582
     31 C          21.1909   76.8301   -5.4801 C.3     1  UNL1        0.1625
     32 C          21.3228   76.0579   -6.7971 C.3     1  UNL1        0.1686
     33 C          22.1903   74.8192   -6.5638 C.3     1  UNL1        0.1760
     34 O          20.5108   78.0652   -5.7113 O.3     1  UNL1       -0.3801
     35 O          20.0274   75.6578   -7.2482 O.3     1  UNL1       -0.3794
     36 O          23.4936   75.2164   -6.1394 O.3     1  UNL1       -0.3263
     37 H          19.6341   77.8416   -6.0530 H       1  UNL1        0.2105
     38 H          20.1565   75.1755   -8.0772 H       1  UNL1        0.2105
     39 C          23.3758   78.6547   -3.2184 C.2     1  UNL1        0.2231
     40 C          23.2700   79.2736   -1.8480 C.3     1  UNL1        0.0946
     41 N          22.4926   77.7133   -3.6030 N.am    1  UNL1       -0.2994
     42 O          24.2567   79.0038   -3.9749 O.2     1  UNL1       -0.2751
     43 H          21.7877   77.4336   -2.9977 H       1  UNL1        0.1496
     44 C          22.3014   74.0234   -7.8659 C.3     1  UNL1        0.1693
     45 O          22.7755   72.7059   -7.5804 O.3     1  UNL1       -0.3794
     46 H          22.8313   72.2394   -8.4253 H       1  UNL1        0.2105
@<TRIPOS>BOND
     1    29    30    1
     2    29    28    1
     3    29    36    1
     4    30    31    1
     5    30    41    1
     6    31    32    1
     7    31    34    1
     8    32    33    1
     9    32    35    1
    10    33    44    1
    11    33    36    1
    12    44    45    1
    13    39    40    1
    14    39    41   am
    15    39    42    2
    16    41    43    1
    17    28    25    1
    18    34    37    1
    19    35    38    1
    20    45    46    1
    21    15    16   ar
    22    15    20   ar
    23    15     6    1
    24    16    17   ar
    25    16    21    2
    26    17    18   ar
    27    17    23    1
    28    18    19   ar
    29    18    22    2
    30    19    20   ar
    31     6     7    1
    32     6    11    1
    33     7     8    1
    34     7     9    1
    35     8    13    1
    36     9    10    1
    37     9    12    1
    38    10    11    1
    39    10     5    1
    40    12    14    1
    41     5     4    1
    42     4     1    1
    43     1     2    2
    44     1     3    1
    45     1    24    1
    46    24    25    1
    47    25    26    2
    48    25    27    1
@<TRIPOS>MOLECULE
UD1
 46 48 0 0 0
SMALL
GASTEIGER

@<TRIPOS>ATOM
      1 P          21.4141   70.8710   -1.1107 P.3     1  UNL1        0.2189
      2 O          21.2359   69.8707   -0.0354 O.2     1  UNL1       -0.5170
      3 O          21.7778   70.1199   -2.4877 O.3     1  UNL1       -0.4371
      4 O          22.6097   71.8749   -0.7162 O.3     1  UNL1       -0.3112
      5 C          22.0343   72.9106    0.0815 C.3     1  UNL1        0.1811
      6 C          23.2835   73.9091    3.3017 C.3     1  UNL1        0.2383
      7 C          21.7567   74.1589    3.3832 C.3     1  UNL1        0.1895
      8 O          21.2807   73.9842    4.7181 O.3     1  UNL1       -0.3779
      9 C          21.1961   73.0568    2.4471 C.3     1  UNL1        0.1713
     10 C          22.3924   72.6826    1.5508 C.3     1  UNL1        0.1764
     11 O          23.4909   73.5320    1.9239 O.3     1  UNL1       -0.3308
     12 O          20.7604   71.9281    3.2080 O.3     1  UNL1       -0.3794
     13 H          20.3286   74.1536    4.7005 H       1  UNL1        0.2106
     14 H          20.0541   72.2392    3.7897 H       1  UNL1        0.2105
     15 N          24.0270   75.1285    3.6206 N.ar    1  UNL1       -0.2551
     16 C          24.9307   75.1169    4.6158 C.ar    1  UNL1        0.3323
     17 N          25.6319   76.2227    4.9284 N.ar    1  UNL1       -0.2743
     18 C          25.4303   77.3697    4.2490 C.ar    1  UNL1        0.2626
     19 C          24.4776   77.3977    3.2029 C.ar    1  UNL1        0.0795
     20 C          23.7921   76.2727    2.9067 C.ar    1  UNL1        0.0869
     21 O          25.1238   74.0899    5.2377 O.2     1  UNL1       -0.2464
     22 O          26.0603   78.3714    4.5340 O.2     1  UNL1       -0.2670
     23 H          26.2832   76.1949    5.6462 H       1  UNL1        0.1734
     24 O          20.0518   71.7066   -1.2976 O.3     1  UNL1       -0.2703
     25 P          19.2238   70.9883   -2.4757 P.3     1  UNL1        0.2208
     26 O          17.8049   71.4010   -2.4037 O.2     1  UNL1       -0.5170
     27 O          19.3263   69.3903   -2.3074 O.3     1  UNL1       -0.4371
     28 O          19.8355   71.4165   -3.9015 O.3     1  UNL1       -0.2865
     29 C          19.5203   72.7973   -4.0898 C.3     1  UNL1        0.2611
     30 C          19.1738   73.0402   -5.5598 C.3     1  UNL1        0.1582
     31 C          20.3686   72.6343   -6.4301 C.3     1  UNL1        0.1625
     32 C          21.6152   73.3679   -5.9242 C.3     1  UNL1        0.1686
     33 C          21.7792   73.0976   -4.4271 C.3     1  UNL1        0.1760
     34 O          20.1153   72.9949   -7.7893 O.3     1  UNL1       -0.3801
     35 O          22.7662   72.8940   -6.6258 O.3     1  UNL1       -0.3794
     36 O          20.6434   73.5944   -3.7202 O.3     1  UNL1       -0.3263
     37 H          20.8900   72.7217   -8.2998 H       1  UNL1        0.2105
     38 H          23.5265   73.3803   -6.2765 H       1  UNL1        0.2105
     39 C          18.1683   71.0228   -6.4834 C.2     1  UNL1        0.2231
     40 C          16.9645   70.1979   -6.8613 C.3     1  UNL1        0.0946
     41 N          18.0048   72.2383   -5.9266 N.am    1  UNL1       -0.2994
     42 O          19.2845   70.5925   -6.6813 O.2     1  UNL1       -0.2751
     43 H          17.1116   72.5830   -5.7684 H       1  UNL1        0.1496
     44 C          23.0401   73.7996   -3.9186 C.3     1  UNL1        0.1693
     45 O          24.1695   72.9436   -4.1029 O.3     1  UNL1       -0.3794
     46 H          24.9407   73.4224   -3.7702 H       1  UNL1        0.2105
@<TRIPOS>BOND
     1    29    30    1
     2    29    28    1
     3    29    36    1
     4    30    31    1
     5    30    41    1
     6    31    32    1
     7    31    34    1
     8    32    33    1
     9    32    35    1
    10    33    44    1
    11    33    36    1
    12    44    45    1
    13    39    40    1
    14    39    41   am
    15    39    42    2
    16    41    43    1
    17    28    25    1
    18    34    37    1
    19    35    38    1
    20    45    46    1
    21    15    16   ar
    22    15    20   ar
    23    15     6    1
    24    16    17   ar
    25    16    21    2
    26    17    18   ar
    27    17    23    1
    28    18    19   ar
    29    18    22    2
    30    19    20   ar
    31     6     7    1
    32     6    11    1
    33     7     8    1
    34     7     9    1
    35     8    13    1
    36     9    10    1
    37     9    12    1
    38    10    11    1
    39    10     5    1
    40    12    14    1
    41     5     4    1
    42     4     1    1
    43     1     2    2
    44     1     3    1
    45     1    24    1
    46    24    25    1
    47    25    26    2
    48    25    27    1
@<TRIPOS>MOLECULE
UD1
 46 48 0 0 0
SMALL
GASTEIGER

@<TRIPOS>ATOM
      1 P          22.6523   73.1694   -4.4290 P.3     1  UNL1        0.2189
      2 O          23.8815   72.4592   -4.0126 O.2     1  UNL1       -0.5170
      3 O          22.9560   74.7466   -4.5425 O.3     1  UNL1       -0.4371
      4 O          21.4952   72.9240   -3.3364 O.3     1  UNL1       -0.3112
      5 C          21.8653   73.6596   -2.1693 C.3     1  UNL1        0.1811
      6 C          22.4529   72.2131    1.0695 C.3     1  UNL1        0.2383
      7 C          21.4540   71.2450    0.3874 C.3     1  UNL1        0.1895
      8 O          21.6473   69.9058    0.8441 O.3     1  UNL1       -0.3779
      9 C          21.8393   71.3805   -1.1087 C.3     1  UNL1        0.1713
     10 C          22.5774   72.7310   -1.1844 C.3     1  UNL1        0.1764
     11 O          22.5562   73.3066    0.1329 O.3     1  UNL1       -0.3308
     12 O          22.7001   70.3097   -1.5026 O.3     1  UNL1       -0.3794
     13 H          20.9976   69.3565    0.3841 H       1  UNL1        0.2106
     14 H          22.2028   69.4907   -1.3764 H       1  UNL1        0.2105
     15 N          21.9288   72.6807    2.3532 N.ar    1  UNL1       -0.2551
     16 C          20.8803   73.5218    2.3782 C.ar    1  UNL1        0.3323
     17 N          20.3749   73.9650    3.5446 N.ar    1  UNL1       -0.2743
     18 C          20.9225   73.5764    4.7138 C.ar    1  UNL1        0.2626
     19 C          22.0304   72.6959    4.7018 C.ar    1  UNL1        0.0795
     20 C          22.5139   72.2625    3.5179 C.ar    1  UNL1        0.0869
     21 O          20.3755   73.8813    1.3320 O.2     1  UNL1       -0.2464
     22 O          20.4693   73.9802    5.7688 O.2     1  UNL1       -0.2670
     23 H          19.6152   74.5676    3.5441 H       1  UNL1        0.1734
     24 O          22.1678   72.6110   -5.8581 O.3     1  UNL1       -0.2703
     25 P          20.8132   73.3962   -6.2291 P.3     1  UNL1        0.2208
     26 O          20.7198   73.5521   -7.6974 O.2     1  UNL1       -0.5170
     27 O          20.8272   74.8492   -5.5357 O.3     1  UNL1       -0.4371
     28 O          19.5444   72.5613   -5.6964 O.3     1  UNL1       -0.2865
     29 C          19.6819   71.2316   -6.2007 C.3     1  UNL1        0.2611
     30 C          18.4190   70.8525   -6.9761 C.3     1  UNL1        0.1582
     31 C          17.2078   70.9545   -6.0422 C.3     1  UNL1        0.1625
     32 C          17.4816   70.1136   -4.7908 C.3     1  UNL1        0.1686
     33 C          18.8140   70.5507   -4.1784 C.3     1  UNL1        0.1760
     34 O          16.0452   70.4607   -6.7101 O.3     1  UNL1       -0.3801
     35 O          16.4307   70.3111   -3.8430 O.3     1  UNL1       -0.3794
     36 O          19.8697   70.3293   -5.1127 O.3     1  UNL1       -0.3263
     37 H          15.3093   70.5437   -6.0881 H       1  UNL1        0.2105
     38 H          16.6429   69.7655   -3.0724 H       1  UNL1        0.2105
     39 C          17.4355   72.8371   -7.9904 C.2     1  UNL1        0.2231
     40 C          17.2565   73.7778   -9.1545 C.3     1  UNL1        0.0946
     41 N          18.2452   71.7670   -8.1066 N.am    1  UNL1       -0.2994
     42 O          16.8499   73.0431   -6.9488 O.2     1  UNL1       -0.2751
     43 H          18.7138   71.6017   -8.9401 H       1  UNL1        0.1496
     44 C          19.0812   69.7390   -2.9092 C.3     1  UNL1        0.1693
     45 O          18.3128   68.5346   -2.9430 O.3     1  UNL1       -0.3794
     46 H          18.5096   68.0542   -2.1275 H       1  UNL1        0.2105
@<TRIPOS>BOND
     1    29    30    1
     2    29    28    1
     3    29    36    1
     4    30    31    1
     5    30    41    1
     6    31    32    1
     7    31    34    1
     8    32    33    1
     9    32    35    1
    10    33    44    1
    11    33    36    1
    12    44    45    1
    13    39    40    1
    14    39    41   am
    15    39    42    2
    16    41    43    1
    17    28    25    1
    18    34    37    1
    19    35    38    1
    20    45    46    1
    21    15    16   ar
    22    15    20   ar
    23    15     6    1
    24    16    17   ar
    25    16    21    2
    26    17    18   ar
    27    17    23    1
    28    18    19   ar
    29    18    22    2
    30    19    20   ar
    31     6     7    1
    32     6    11    1
    33     7     8    1
    34     7     9    1
    35     8    13    1
    36     9    10    1
    37     9    12    1
    38    10    11    1
    39    10     5    1
    40    12    14    1
    41     5     4    1
    42     4     1    1
    43     1     2    2
    44     1     3    1
    45     1    24    1
    46    24    25    1
    47    25    26    2
    48    25    27    1
@<TRIPOS>MOLECULE
UD1
 46 48 0 0 0
SMALL
GASTEIGER

@<TRIPOS>ATOM
      1 P          21.3019   73.0429   -5.2680 P.3     1  UNL1        0.2189
      2 O          20.7363   74.1817   -6.0242 O.2     1  UNL1       -0.5170
      3 O          22.7841   72.7223   -5.8094 O.3     1  UNL1       -0.4371
      4 O          20.3664   71.7479   -5.4696 O.3     1  UNL1       -0.3112
      5 C          19.6343   71.5731   -4.2555 C.3     1  UNL1        0.1811
      6 C          16.7411   72.0398   -6.3384 C.3     1  UNL1        0.2383
      7 C          17.1646   70.5702   -6.5859 C.3     1  UNL1        0.1895
      8 O          16.0314   69.7558   -6.8889 O.3     1  UNL1       -0.3779
      9 C          17.7809   70.1743   -5.2189 C.3     1  UNL1        0.1713
     10 C          18.1372   71.5230   -4.5643 C.3     1  UNL1        0.1764
     11 O          17.7963   72.5588   -5.5014 O.3     1  UNL1       -0.3308
     12 O          16.8270   69.4631   -4.4272 O.3     1  UNL1       -0.3794
     13 H          16.3618   68.8581   -7.0319 H       1  UNL1        0.2106
     14 H          16.6002   68.6611   -4.9167 H       1  UNL1        0.2105
     15 N          16.6712   72.7795   -7.5991 N.ar    1  UNL1       -0.2551
     16 C          17.7422   72.8154   -8.4108 C.ar    1  UNL1        0.3323
     17 N          17.7051   73.4847   -9.5783 N.ar    1  UNL1       -0.2743
     18 C          16.5878   74.1418   -9.9495 C.ar    1  UNL1        0.2626
     19 C          15.4549   74.1172   -9.1016 C.ar    1  UNL1        0.0795
     20 C          15.5177   73.4337   -7.9388 C.ar    1  UNL1        0.0869
     21 O          18.7572   72.2276   -8.0899 O.2     1  UNL1       -0.2464
     22 O          16.5547   74.7512  -11.0025 O.2     1  UNL1       -0.2670
     23 H          18.4854   73.4960  -10.1537 H       1  UNL1        0.1734
     24 O          21.3699   73.4174   -3.7047 O.3     1  UNL1       -0.2703
     25 P          22.8523   73.0449   -3.2015 P.3     1  UNL1        0.2208
     26 O          23.8247   73.9943   -3.7862 O.2     1  UNL1       -0.5170
     27 O          23.2178   71.5479   -3.6682 O.3     1  UNL1       -0.4371
     28 O          22.9137   73.1348   -1.5957 O.3     1  UNL1       -0.2865
     29 C          21.5771   72.9672   -1.1197 C.3     1  UNL1        0.2611
     30 C          21.1980   74.1646   -0.2465 C.3     1  UNL1        0.1582
     31 C          22.1814   74.2617    0.9253 C.3     1  UNL1        0.1625
     32 C          22.2160   72.9116    1.6493 C.3     1  UNL1        0.1686
     33 C          22.5214   71.8089    0.6333 C.3     1  UNL1        0.1760
     34 O          21.7513   75.2821    1.8281 O.3     1  UNL1       -0.3801
     35 O          23.2327   72.9335    2.6530 O.3     1  UNL1       -0.3794
     36 O          21.4933   71.7663   -0.3555 O.3     1  UNL1       -0.3263
     37 H          22.3970   75.3089    2.5476 H       1  UNL1        0.2105
     38 H          23.2205   72.0663    3.0825 H       1  UNL1        0.2105
     39 C          20.3087   76.3340   -0.9076 C.2     1  UNL1        0.2231
     40 C          20.3742   77.5967   -1.7283 C.3     1  UNL1        0.0946
     41 N          21.2615   75.3916   -1.0432 N.am    1  UNL1       -0.2994
     42 O          19.3977   76.1659   -0.1253 O.2     1  UNL1       -0.2751
     43 H          21.9905   75.5257   -1.6693 H       1  UNL1        0.1496
     44 C          22.5903   70.4599    1.3520 C.3     1  UNL1        0.1693
     45 O          21.8009   69.5018    0.6441 O.3     1  UNL1       -0.3794
     46 H          21.8712   68.6683    1.1290 H       1  UNL1        0.2105
@<TRIPOS>BOND
     1    29    30    1
     2    29    28    1
     3    29    36    1
     4    30    31    1
     5    30    41    1
     6    31    32    1
     7    31    34    1
     8    32    33    1
     9    32    35    1
    10    33    44    1
    11    33    36    1
    12    44    45    1
    13    39    40    1
    14    39    41   am
    15    39    42    2
    16    41    43    1
    17    28    25    1
    18    34    37    1
    19    35    38    1
    20    45    46    1
    21    15    16   ar
    22    15    20   ar
    23    15     6    1
    24    16    17   ar
    25    16    21    2
    26    17    18   ar
    27    17    23    1
    28    18    19   ar
    29    18    22    2
    30    19    20   ar
    31     6     7    1
    32     6    11    1
    33     7     8    1
    34     7     9    1
    35     8    13    1
    36     9    10    1
    37     9    12    1
    38    10    11    1
    39    10     5    1
    40    12    14    1
    41     5     4    1
    42     4     1    1
    43     1     2    2
    44     1     3    1
    45     1    24    1
    46    24    25    1
    47    25    26    2
    48    25    27    1
@<TRIPOS>MOLECULE
UD1
 46 48 0 0 0
SMALL
GASTEIGER

@<TRIPOS>ATOM
      1 P          20.6207   70.7086   -3.3251 P.3     1  UNL1        0.2189
      2 O          21.7629   69.7826   -3.1618 O.2     1  UNL1       -0.5170
      3 O          21.1571   72.1371   -3.8392 O.3     1  UNL1       -0.4371
      4 O          19.8746   70.8943   -1.9102 O.3     1  UNL1       -0.3112
      5 C          20.8943   71.0361   -0.9201 C.3     1  UNL1        0.1811
      6 C          21.6860   73.8053    1.2321 C.3     1  UNL1        0.2383
      7 C          23.0306   73.4456    0.5519 C.3     1  UNL1        0.1895
      8 O          23.8524   74.6035    0.3998 O.3     1  UNL1       -0.3779
      9 C          22.5651   72.9123   -0.8280 C.3     1  UNL1        0.1713
     10 C          21.0929   72.5184   -0.5998 C.3     1  UNL1        0.1764
     11 O          20.7920   72.7641    0.7845 O.3     1  UNL1       -0.3308
     12 O          22.6679   73.9355   -1.8205 O.3     1  UNL1       -0.3794
     13 H          24.6701   74.3126   -0.0271 H       1  UNL1        0.2106
     14 H          23.6014   74.1801   -1.8738 H       1  UNL1        0.2105
     15 N          21.8182   73.7809    2.6893 N.ar    1  UNL1       -0.2551
     16 C          21.7721   72.6070    3.3430 C.ar    1  UNL1        0.3323
     17 N          21.8949   72.5543    4.6825 N.ar    1  UNL1       -0.2743
     18 C          22.0580   73.6873    5.3950 C.ar    1  UNL1        0.2626
     19 C          22.1023   74.9304    4.7202 C.ar    1  UNL1        0.0795
     20 C          21.9819   74.9540    3.3754 C.ar    1  UNL1        0.0869
     21 O          21.6255   71.5766    2.7143 O.2     1  UNL1       -0.2464
     22 O          22.1643   73.6412    6.6066 O.2     1  UNL1       -0.2670
     23 H          21.8640   71.6984    5.1372 H       1  UNL1        0.1734
     24 O          19.5884   70.1032   -4.4005 O.3     1  UNL1       -0.2703
     25 P          18.2276   70.9518   -4.2676 P.3     1  UNL1        0.2208
     26 O          18.4837   72.1729   -3.4725 O.2     1  UNL1       -0.5170
     27 O          17.1072   70.0590   -3.5328 O.3     1  UNL1       -0.4371
     28 O          17.7062   71.3652   -5.7331 O.3     1  UNL1       -0.2865
     29 C          18.1526   72.7015   -5.9701 C.3     1  UNL1        0.2611
     30 C          17.1515   73.4142   -6.8812 C.3     1  UNL1        0.1582
     31 C          17.0348   72.6409   -8.1995 C.3     1  UNL1        0.1625
     32 C          18.4382   72.4605   -8.7878 C.3     1  UNL1        0.1686
     33 C          19.3415   71.8168   -7.7337 C.3     1  UNL1        0.1760
     34 O          16.2191   73.3748   -9.1146 O.3     1  UNL1       -0.3801
     35 O          18.3690   71.6172   -9.9391 O.3     1  UNL1       -0.3794
     36 O          19.4348   72.6694   -6.5931 O.3     1  UNL1       -0.3263
     37 H          16.1726   72.8532   -9.9276 H       1  UNL1        0.2105
     38 H          19.2718   71.5297  -10.2765 H       1  UNL1        0.2105
     39 C          15.0957   74.5844   -6.2994 C.2     1  UNL1        0.2231
     40 C          13.7492   74.6377   -5.6238 C.3     1  UNL1        0.0946
     41 N          15.8432   73.4664   -6.2255 N.am    1  UNL1       -0.2994
     42 O          15.5067   75.5485   -6.9091 O.2     1  UNL1       -0.2751
     43 H          15.5147   72.6948   -5.7374 H       1  UNL1        0.1496
     44 C          20.7374   71.6024   -8.3223 C.3     1  UNL1        0.1693
     45 O          20.8500   70.2626   -8.8066 O.3     1  UNL1       -0.3794
     46 H          21.7419   70.1697   -9.1678 H       1  UNL1        0.2105
@<TRIPOS>BOND
     1    29    30    1
     2    29    28    1
     3    29    36    1
     4    30    31    1
     5    30    41    1
     6    31    32    1
     7    31    34    1
     8    32    33    1
     9    32    35    1
    10    33    44    1
    11    33    36    1
    12    44    45    1
    13    39    40    1
    14    39    41   am
    15    39    42    2
    16    41    43    1
    17    28    25    1
    18    34    37    1
    19    35    38    1
    20    45    46    1
    21    15    16   ar
    22    15    20   ar
    23    15     6    1
    24    16    17   ar
    25    16    21    2
    26    17    18   ar
    27    17    23    1
    28    18    19   ar
    29    18    22    2
    30    19    20   ar
    31     6     7    1
    32     6    11    1
    33     7     8    1
    34     7     9    1
    35     8    13    1
    36     9    10    1
    37     9    12    1
    38    10    11    1
    39    10     5    1
    40    12    14    1
    41     5     4    1
    42     4     1    1
    43     1     2    2
    44     1     3    1
    45     1    24    1
    46    24    25    1
    47    25    26    2
    48    25    27    1
@<TRIPOS>MOLECULE
UD1
 46 48 0 0 0
SMALL
GASTEIGER

@<TRIPOS>ATOM
      1 P          20.3996   74.7105   -3.5542 P.3     1  UNL1        0.2189
      2 O          19.9891   75.9969   -2.9498 O.2     1  UNL1       -0.5170
      3 O          20.2950   74.8131   -5.1576 O.3     1  UNL1       -0.4371
      4 O          19.4300   73.5375   -3.0282 O.3     1  UNL1       -0.3112
      5 C          18.1232   74.1022   -2.9108 C.3     1  UNL1        0.1811
      6 C          17.0458   71.7207   -5.3796 C.3     1  UNL1        0.2383
      7 C          17.5231   70.8545   -4.1871 C.3     1  UNL1        0.1895
      8 O          16.7884   69.6320   -4.1169 O.3     1  UNL1       -0.3779
      9 C          17.2000   71.7647   -2.9737 C.3     1  UNL1        0.1713
     10 C          17.1051   73.1779   -3.5805 C.3     1  UNL1        0.1764
     11 O          17.3975   73.0635   -4.9836 O.3     1  UNL1       -0.3308
     12 O          15.9571   71.3839   -2.3795 O.3     1  UNL1       -0.3794
     13 H          17.1326   69.1415   -3.3577 H       1  UNL1        0.2106
     14 H          16.0614   70.4731   -2.0735 H       1  UNL1        0.2105
     15 N          17.7466   71.3446   -6.6080 N.ar    1  UNL1       -0.2551
     16 C          17.0744   71.2993   -7.7714 C.ar    1  UNL1        0.3323
     17 N          17.6943   70.9604   -8.9173 N.ar    1  UNL1       -0.2743
     18 C          19.0064   70.6502   -8.9140 C.ar    1  UNL1        0.2626
     19 C          19.7248   70.6881   -7.6953 C.ar    1  UNL1        0.0795
     20 C          19.0795   71.0364   -6.5614 C.ar    1  UNL1        0.0869
     21 O          15.8906   71.5764   -7.7905 O.2     1  UNL1       -0.2464
     22 O          19.5668   70.3391   -9.9487 O.2     1  UNL1       -0.2670
     23 H          17.1950   70.9375   -9.7482 H       1  UNL1        0.1734
     24 O          21.9174   74.3804   -3.1344 O.3     1  UNL1       -0.2703
     25 P          22.0375   74.6727   -1.5566 P.3     1  UNL1        0.2208
     26 O          20.7512   75.2036   -1.0542 O.2     1  UNL1       -0.5170
     27 O          23.2015   75.7545   -1.2976 O.3     1  UNL1       -0.4371
     28 O          22.3937   73.3075   -0.7822 O.3     1  UNL1       -0.2865
     29 C          21.2554   72.9735    0.0140 C.3     1  UNL1        0.2611
     30 C          21.7251   72.4546    1.3742 C.3     1  UNL1        0.1582
     31 C          22.6160   71.2256    1.1614 C.3     1  UNL1        0.1625
     32 C          21.8535   70.2099    0.3040 C.3     1  UNL1        0.1686
     33 C          21.3767   70.8975   -0.9771 C.3     1  UNL1        0.1760
     34 O          22.9388   70.6435    2.4257 O.3     1  UNL1       -0.3801
     35 O          22.7172   69.1216   -0.0291 O.3     1  UNL1       -0.3794
     36 O          20.4919   71.9680   -0.6491 O.3     1  UNL1       -0.3263
     37 H          23.4990   69.8761    2.2451 H       1  UNL1        0.2105
     38 H          22.1986   68.5078   -0.5683 H       1  UNL1        0.2105
     39 C          22.3520   73.6702    3.3900 C.2     1  UNL1        0.2231
     40 C          23.1361   74.7466    4.0963 C.3     1  UNL1        0.0946
     41 N          22.4869   73.4999    2.0607 N.am    1  UNL1       -0.2994
     42 O          21.5988   72.9575    4.0185 O.2     1  UNL1       -0.2751
     43 H          23.0894   74.0703    1.5575 H       1  UNL1        0.1496
     44 C          20.6416   69.8831   -1.8556 C.3     1  UNL1        0.1693
     45 O          21.5135   69.4315   -2.8939 O.3     1  UNL1       -0.3794
     46 H          21.0127   68.7960   -3.4231 H       1  UNL1        0.2105
@<TRIPOS>BOND
     1    29    30    1
     2    29    28    1
     3    29    36    1
     4    30    31    1
     5    30    41    1
     6    31    32    1
     7    31    34    1
     8    32    33    1
     9    32    35    1
    10    33    44    1
    11    33    36    1
    12    44    45    1
    13    39    40    1
    14    39    41   am
    15    39    42    2
    16    41    43    1
    17    28    25    1
    18    34    37    1
    19    35    38    1
    20    45    46    1
    21    15    16   ar
    22    15    20   ar
    23    15     6    1
    24    16    17   ar
    25    16    21    2
    26    17    18   ar
    27    17    23    1
    28    18    19   ar
    29    18    22    2
    30    19    20   ar
    31     6     7    1
    32     6    11    1
    33     7     8    1
    34     7     9    1
    35     8    13    1
    36     9    10    1
    37     9    12    1
    38    10    11    1
    39    10     5    1
    40    12    14    1
    41     5     4    1
    42     4     1    1
    43     1     2    2
    44     1     3    1
    45     1    24    1
    46    24    25    1
    47    25    26    2
    48    25    27    1
