# created with PyMOL 2.5.4
@<TRIPOS>MOLECULE
UD2
64 66 1                 
SMALL
USER_CHARGES
@<TRIPOS>ATOM
1	 C1'	4.577	0.429	-0.412	C.3	1	UD20	0.000	
2	 C2'	5.330	0.789	0.871	C.3	1	UD20	0.000	
3	 C3'	4.496	1.788	1.679	C.3	1	UD20	0.000	
4	 C4'	4.208	3.016	0.811	C.3	1	UD20	0.000	
5	 C5'	3.498	2.570	-0.470	C.3	1	UD20	0.000	
6	 C6'	3.260	3.784	-1.370	C.3	1	UD20	0.000	
7	 C7'	6.614	-1.209	1.416	C.2	1	UD20	0.000	
8	 C8'	6.840	-2.454	2.233	C.3	1	UD20	0.000	
9	 N2'	5.549	-0.422	1.666	N.pl3	1	UD20	0.000	
10	 O1'	3.342	-0.207	-0.078	O.3	1	UD20	0.000	
11	 O3'	5.224	2.186	2.843	O.3	1	UD20	0.000	
12	 O4'	5.437	3.663	0.476	O.3	1	UD20	0.000	
13	 O5'	4.313	1.619	-1.158	O.3	1	UD20	0.000	
14	 O6'	2.497	3.389	-2.512	O.3	1	UD20	0.000	
15	 O7'	7.391	-0.914	0.532	O.2	1	UD20	0.000	
16	  N1	-5.477	1.043	0.383	N.pl3	1	UD20	0.000	
17	  C2	-6.056	1.956	1.183	C.2	1	UD20	0.000	
18	  N3	-6.384	3.176	0.718	N.pl3	1	UD20	0.000	
19	  C4	-6.133	3.503	-0.566	C.2	1	UD20	0.000	
20	  C5	-5.523	2.552	-1.419	C.2	1	UD20	0.000	
21	  C6	-5.201	1.338	-0.925	C.2	1	UD20	0.000	
22	  O2	-6.288	1.675	2.343	O.2	1	UD20	0.000	
23	  O4	-6.429	4.607	-0.988	O.2	1	UD20	0.000	
24	 C1B	-5.132	-0.276	0.918	C.3	1	UD20	0.000	
25	 C2B	-5.967	-1.382	0.224	C.3	1	UD20	0.000	
26	 O2'	-7.226	-1.556	0.877	O.3	1	UD20	0.000	
27	 C3B	-5.071	-2.631	0.410	C.3	1	UD20	0.000	
28	 C4B	-3.667	-2.052	0.669	C.3	1	UD20	0.000	
29	 O4B	-3.771	-0.622	0.581	O.3	1	UD20	0.000	
30	 O3B	-5.511	-3.398	1.532	O.3	1	UD20	0.000	
31	 C5B	-2.688	-2.569	-0.388	C.3	1	UD20	0.000	
32	 O5B	-1.368	-2.122	-0.073	O.3	1	UD20	0.000	
33	  PA	-0.083	-2.481	-0.975	P.3	1	UD20	0.000	
34	 O1A	0.177	-4.069	-0.930	O.co2	1	UD20	0.000	
35	 O2A	-0.328	-2.060	-2.372	O.co2	1	UD20	0.000	
36	 O3A	1.208	-1.709	-0.400	O.3	1	UD20	0.000	
37	  PB	2.638	-1.306	-1.021	P.3	1	UD20	0.000	
38	 O1B	3.572	-2.615	-1.110	O.co2	1	UD20	0.000	
39	 O2B	2.447	-0.744	-2.376	O.co2	1	UD20	0.000	
40	 H1'	5.184	-0.249	-1.012	 H	1	UD20	0.000	
41	 H2'	6.290	1.236	0.616	 H	1	UD20	0.000	
42	 H3'	3.557	1.322	1.978	 H	1	UD20	0.000	
43	 H4'	3.570	3.709	1.360	 H	1	UD20	0.000	
44	 H5'	2.542	2.113	-0.216	 H	1	UD20	0.000	
45	H6'1	2.714	4.547	-0.815	 H	1	UD20	0.000	
46	H6'2	4.219	4.188	-1.696	 H	1	UD20	0.000	
47	H8'1	7.743	-2.957	1.888	 H	1	UD20	0.000	
48	H8'2	6.952	-2.184	3.283	 H	1	UD20	0.000	
49	H8'3	5.986	-3.123	2.120	 H	1	UD20	0.000	
50	HN2'	4.927	-0.658	2.372	 H	1	UD20	0.000	
51	HO3'	4.754	2.819	3.403	 H	1	UD20	0.000	
52	HO4'	5.330	4.451	-0.075	 H	1	UD20	0.000	
53	HO6'	2.308	4.110	-3.128	 H	1	UD20	0.000	
54	 HN3	-6.802	3.822	1.308	 H	1	UD20	0.000	
55	  H5	-5.315	2.796	-2.450	 H	1	UD20	0.000	
56	  H6	-4.734	0.600	-1.561	 H	1	UD20	0.000	
57	 H1B	-5.281	-0.303	1.997	 H	1	UD20	0.000	
58	 H2B	-6.107	-1.158	-0.834	 H	1	UD20	0.000	
59	HO2'	-7.785	-2.237	0.479	 H	1	UD20	0.000	
60	 H3B	-5.073	-3.240	-0.494	 H	1	UD20	0.000	
61	 H4B	-3.325	-2.341	1.663	 H	1	UD20	0.000	
62	HO3A	-6.412	-3.738	1.448	 H	1	UD20	0.000	
63	H5'1	-2.710	-3.659	-0.401	 H	1	UD20	0.000	
64	H5'2	-2.977	-2.188	-1.367	 H	1	UD20	0.000	
@<TRIPOS>BOND
1 1 2 1
2 1 40 1
3 2 9 1
4 2 41 1
5 2 3 1
6 3 11 1
7 3 42 1
8 3 4 1
9 4 12 1
10 4 43 1
11 4 5 1
12 5 13 1
13 5 44 1
14 5 6 1
15 6 45 1
16 6 46 1
17 7 8 1
18 7 15 2
19 8 47 1
20 8 48 1
21 8 49 1
22 7 9 1
23 9 50 1
24 1 10 1
25 11 51 1
26 12 52 1
27 1 13 1
28 6 14 1
29 14 53 1
30 16 24 1
31 16 17 1
32 17 22 2
33 17 18 1
34 18 54 1
35 18 19 1
36 19 20 1
37 20 21 2
38 20 55 1
39 16 21 1
40 21 56 1
41 19 23 2
42 24 25 1
43 24 29 1
44 24 57 1
45 25 27 1
46 25 58 1
47 25 26 1
48 26 59 1
49 27 28 1
50 27 30 1
51 27 60 1
52 28 31 1
53 28 61 1
54 28 29 1
55 30 62 1
56 31 63 1
57 31 64 1
58 31 32 1
59 32 33 1
60 33 34 1
61 33 36 1
62 33 35 2
63 36 37 1
64 10 37 1
65 37 38 1
66 37 39 2
@<TRIPOS>SUBSTRUCTURE
1	UD20	1	GROUP	1 ****	UD2
