@<TRIPOS>MOLECULE
*****
 43 45 0 0 0
SMALL
GASTEIGER

@<TRIPOS>ATOM
      1 P          22.6971   71.4757   -2.6442 P.3     1  UNL1        0.2189
      2 O          23.0657   72.9529   -3.1927 O.co2   1  UNL1       -0.4371
      3 O          23.5022   70.3590   -3.2413 O.2     1  UNL1       -0.5170
      4 O          21.0952   71.3741   -2.8482 O.3     1  UNL1       -0.3112
      5 C          20.4707   72.2670   -3.7521 C.3     1  UNL1        0.1811
      6 O          18.3338   72.3921   -4.8455 O.3     1  UNL1       -0.3308
      7 O          17.2230   71.0150   -2.4245 O.3     1  UNL1       -0.3794
      8 O          17.4182   68.9808   -4.2300 O.3     1  UNL1       -0.3779
      9 C          18.4838   70.8324   -3.0690 C.3     1  UNL1        0.1713
     10 C          18.3043   70.0720   -4.3659 C.3     1  UNL1        0.1895
     11 C          18.9614   72.1921   -3.5604 C.3     1  UNL1        0.1764
     12 C          17.7670   71.1500   -5.2917 C.3     1  UNL1        0.2383
     13 H          16.8975   70.1596   -2.1020 H       1  UNL1        0.2105
     14 H          17.8056   68.3222   -3.6316 H       1  UNL1        0.2106
     15 O          15.9568   70.4567   -7.3458 O.2     1  UNL1       -0.2464
     16 O          19.3076   70.3379  -10.5085 O.2     1  UNL1       -0.2670
     17 N          18.1394   70.9319   -6.6609 N.ar    1  UNL1       -0.2551
     18 N          17.6276   70.3972   -8.9189 N.ar    1  UNL1       -0.2743
     19 C          17.1525   70.5873   -7.6145 C.ar    1  UNL1        0.3323
     20 C          19.4679   71.0614   -7.0474 C.ar    1  UNL1        0.0869
     21 C          19.9055   70.8772   -8.2945 C.ar    1  UNL1        0.0795
     22 C          18.9387   70.5140   -9.3513 C.ar    1  UNL1        0.2626
     23 H          16.9593   70.1546   -9.6000 H       1  UNL1        0.1734
     24 O          22.8502   71.6346   -1.0429 O.3     1  UNL1       -0.2703
     25 P          22.5095   70.6126    0.1625 P.3     1  UNL1        0.2208
     26 O          23.7829   69.6132    0.1712 O.co2   1  UNL1       -0.4371
     27 O          21.1829   69.9226    0.0285 O.2     1  UNL1       -0.5170
     28 O          22.6737   71.4929    1.5043 O.3     1  UNL1       -0.2858
     29 O          21.7886   72.3251    3.5374 O.3     1  UNL1       -0.3226
     30 O          21.2397   75.5411    1.0027 O.3     1  UNL1       -0.3794
     31 O          20.6834   72.8229    0.0881 O.3     1  UNL1       -0.3775
     32 O          23.3813   75.5811    2.9681 O.3     1  UNL1       -0.3792
     33 C          21.8923   74.3758    1.5070 C.3     1  UNL1        0.1718
     34 C          20.9360   73.1847    1.4409 C.3     1  UNL1        0.1968
     35 C          22.2995   74.6516    2.9561 C.3     1  UNL1        0.1723
     36 C          21.5143   71.9771    2.1797 C.3     1  UNL1        0.2706
     37 C          22.7458   73.3745    3.6621 C.3     1  UNL1        0.1830
     38 H          20.9717   75.3892    0.0827 H       1  UNL1        0.2105
     39 H          20.3165   73.5846   -0.3868 H       1  UNL1        0.2106
     40 H          23.1104   76.3984    2.5216 H       1  UNL1        0.2106
     41 O          23.9825   74.2025    5.4750 O.co2   1  UNL1       -0.5466
     42 O          21.9639   73.2501    5.9412 O.co2   1  UNL1       -0.5466
     43 C          22.8232   73.5842    5.1393 C.2     1  UNL1        0.0799
@<TRIPOS>UNITY_ATOM_ATTR
2 1
charge -1
26 1
charge -1
41 1
charge -1
@<TRIPOS>BOND
     1     1     4    1
     2     1    24    1
     3     1     2    1
     4     1     3    2
     5    25    28    1
     6    25    24    1
     7    25    26    1
     8    25    27    2
     9     6    11    1
    10     6    12    1
    11    29    36    1
    12    29    37    1
    13     7     9    1
    14     7    13    1
    15     8    10    1
    16     8    14    1
    17     4     5    1
    18    28    36    1
    19    30    33    1
    20    30    38    1
    21    31    34    1
    22    31    39    1
    23    32    35    1
    24    32    40    1
    25    41    43   ar
    26    15    19    2
    27    42    43   ar
    28    16    22    2
    29    17    12    1
    30    17    19   ar
    31    17    20   ar
    32    18    19   ar
    33    18    22   ar
    34    18    23    1
    35     9    10    1
    36     9    11    1
    37    10    12    1
    38    11     5    1
    39    33    34    1
    40    33    35    1
    41    34    36    1
    42    35    37    1
    43    37    43    1
    44    20    21   ar
    45    21    22   ar
@<TRIPOS>MOLECULE
*****
 43 45 0 0 0
SMALL
GASTEIGER

@<TRIPOS>ATOM
      1 P          21.9834   74.0860   -5.9270 P.3     1  UNL1        0.2189
      2 O          20.6905   74.5898   -5.0943 O.co2   1  UNL1       -0.4371
      3 O          23.0770   75.1028   -6.0754 O.2     1  UNL1       -0.5170
      4 O          21.3593   73.5188   -7.3079 O.3     1  UNL1       -0.3112
      5 C          20.2092   74.1504   -7.8397 C.3     1  UNL1        0.1811
      6 O          19.5815   71.8979   -8.3965 O.3     1  UNL1       -0.3308
      7 O          17.8550   73.1043  -10.5308 O.3     1  UNL1       -0.3794
      8 O          16.0579   72.5394   -8.5591 O.3     1  UNL1       -0.3779
      9 C          18.1469   73.5927   -9.2213 C.3     1  UNL1        0.1713
     10 C          17.3961   72.7875   -8.1820 C.3     1  UNL1        0.1895
     11 C          19.5961   73.2496   -8.9042 C.3     1  UNL1        0.1764
     12 C          18.2271   71.5180   -8.1058 C.3     1  UNL1        0.2383
     13 H          16.9341   73.3117  -10.7557 H       1  UNL1        0.2105
     14 H          15.5707   73.3782   -8.5931 H       1  UNL1        0.2106
     15 O          16.0405   70.0281   -7.1181 O.2     1  UNL1       -0.2464
     16 O          18.1612   69.2324   -3.1039 O.2     1  UNL1       -0.2670
     17 N          18.1812   70.9103   -6.8060 N.ar    1  UNL1       -0.2551
     18 N          17.0984   69.6341   -5.1193 N.ar    1  UNL1       -0.2743
     19 C          17.0351   70.1830   -6.4068 C.ar    1  UNL1        0.3323
     20 C          19.2631   71.0361   -5.9430 C.ar    1  UNL1        0.0869
     21 C          19.3089   70.5072   -4.7187 C.ar    1  UNL1        0.0795
     22 C          18.1516   69.7327   -4.2245 C.ar    1  UNL1        0.2626
     23 H          16.3113   69.1250   -4.8184 H       1  UNL1        0.1734
     24 O          22.4172   72.7399   -5.1444 O.3     1  UNL1       -0.2703
     25 P          23.1950   72.5310   -3.7426 P.3     1  UNL1        0.2208
     26 O          24.4305   73.5717   -3.8466 O.co2   1  UNL1       -0.4371
     27 O          23.6030   71.1121   -3.4702 O.2     1  UNL1       -0.5170
     28 O          22.2159   73.1712   -2.6318 O.3     1  UNL1       -0.2858
     29 O          21.4519   71.2352   -1.5016 O.3     1  UNL1       -0.3226
     30 O          20.0494   74.2491    0.9515 O.3     1  UNL1       -0.3794
     31 O          19.8680   74.4992   -1.9535 O.3     1  UNL1       -0.3775
     32 O          22.3731   72.6896    1.7385 O.3     1  UNL1       -0.3792
     33 C          20.9509   73.6281    0.0351 C.3     1  UNL1        0.1718
     34 C          20.2155   73.3032   -1.2654 C.3     1  UNL1        0.1968
     35 C          21.4761   72.3456    0.6842 C.3     1  UNL1        0.1723
     36 C          21.0802   72.4353   -2.1807 C.3     1  UNL1        0.2706
     37 C          22.2199   71.4750   -0.3244 C.3     1  UNL1        0.1830
     38 H          19.7027   75.0665    0.5604 H       1  UNL1        0.2105
     39 H          19.3195   75.0549   -1.3785 H       1  UNL1        0.2106
     40 H          21.9121   73.2440    2.3873 H       1  UNL1        0.2106
     41 O          23.7508   69.7669    0.1658 O.co2   1  UNL1       -0.5466
     42 O          21.5596   69.3723    0.6576 O.co2   1  UNL1       -0.5466
     43 C          22.4376   70.1007    0.2199 C.2     1  UNL1        0.0799
@<TRIPOS>UNITY_ATOM_ATTR
2 1
charge -1
26 1
charge -1
41 1
charge -1
@<TRIPOS>BOND
     1     1     4    1
     2     1    24    1
     3     1     2    1
     4     1     3    2
     5    25    28    1
     6    25    24    1
     7    25    26    1
     8    25    27    2
     9     6    11    1
    10     6    12    1
    11    29    36    1
    12    29    37    1
    13     7     9    1
    14     7    13    1
    15     8    10    1
    16     8    14    1
    17     4     5    1
    18    28    36    1
    19    30    33    1
    20    30    38    1
    21    31    34    1
    22    31    39    1
    23    32    35    1
    24    32    40    1
    25    41    43   ar
    26    15    19    2
    27    42    43   ar
    28    16    22    2
    29    17    12    1
    30    17    19   ar
    31    17    20   ar
    32    18    19   ar
    33    18    22   ar
    34    18    23    1
    35     9    10    1
    36     9    11    1
    37    10    12    1
    38    11     5    1
    39    33    34    1
    40    33    35    1
    41    34    36    1
    42    35    37    1
    43    37    43    1
    44    20    21   ar
    45    21    22   ar
@<TRIPOS>MOLECULE
*****
 43 45 0 0 0
SMALL
GASTEIGER

@<TRIPOS>ATOM
      1 P          22.7707   71.6348   -2.1880 P.3     1  UNL1        0.2189
      2 O          23.2051   73.1852   -2.3516 O.co2   1  UNL1       -0.4371
      3 O          23.4529   70.6833   -3.1265 O.2     1  UNL1       -0.5170
      4 O          21.1556   71.6725   -2.2767 O.3     1  UNL1       -0.3112
      5 C          20.5428   71.4709   -3.5370 C.3     1  UNL1        0.1811
      6 O          18.5993   72.2502   -4.7174 O.3     1  UNL1       -0.3308
      7 O          16.9940   71.0651   -2.4791 O.3     1  UNL1       -0.3794
      8 O          16.7608   69.1847   -4.4402 O.3     1  UNL1       -0.3779
      9 C          18.2011   70.5900   -3.0754 C.3     1  UNL1        0.1713
     10 C          17.9146   69.9991   -4.4395 C.3     1  UNL1        0.1895
     11 C          19.0593   71.7981   -3.4254 C.3     1  UNL1        0.1764
     12 C          17.7522   71.2441   -5.2948 C.3     1  UNL1        0.2383
     13 H          16.4291   70.3110   -2.2468 H       1  UNL1        0.2105
     14 H          16.9146   68.4057   -3.8821 H       1  UNL1        0.2106
     15 O          16.0178   70.3410   -7.3327 O.2     1  UNL1       -0.2464
     16 O          19.3745   70.4493  -10.4894 O.2     1  UNL1       -0.2670
     17 N          18.1466   71.0277   -6.6581 N.ar    1  UNL1       -0.2551
     18 N          17.6915   70.3948   -8.9027 N.ar    1  UNL1       -0.2743
     19 C          17.1976   70.5725   -7.6037 C.ar    1  UNL1        0.3323
     20 C          19.4591   71.2673   -7.0467 C.ar    1  UNL1        0.0869
     21 C          19.9150   71.0934   -8.2887 C.ar    1  UNL1        0.0795
     22 C          18.9879   70.6191   -9.3370 C.ar    1  UNL1        0.2626
     23 H          17.0498   70.0765   -9.5782 H       1  UNL1        0.1734
     24 O          23.0419   71.3455   -0.6209 O.3     1  UNL1       -0.2703
     25 P          22.1940   70.4986    0.4643 P.3     1  UNL1        0.2208
     26 O          23.3395   69.8709    1.4204 O.co2   1  UNL1       -0.4371
     27 O          21.2651   69.4835   -0.1362 O.2     1  UNL1       -0.5170
     28 O          21.4680   71.6135    1.3767 O.3     1  UNL1       -0.2858
     29 O          22.0402   73.8866    1.0378 O.3     1  UNL1       -0.3226
     30 O          20.1030   74.0418    4.6836 O.3     1  UNL1       -0.3794
     31 O          21.9834   71.8845    4.0965 O.3     1  UNL1       -0.3775
     32 O          18.7574   74.9601    2.2759 O.3     1  UNL1       -0.3792
     33 C          20.3735   73.5484    3.3715 C.3     1  UNL1        0.1718
     34 C          21.8175   73.0514    3.2992 C.3     1  UNL1        0.1968
     35 C          20.1548   74.6943    2.3810 C.3     1  UNL1        0.1723
     36 C          22.2140   72.7302    1.8576 C.3     1  UNL1        0.2706
     37 C          20.6900   74.3431    0.9958 C.3     1  UNL1        0.1830
     38 H          20.2356   73.3308    5.3302 H       1  UNL1        0.2105
     39 H          21.7333   72.0811    5.0125 H       1  UNL1        0.2106
     40 H          18.4042   75.1848    3.1509 H       1  UNL1        0.2106
     41 O          22.0117   75.6796   -0.4071 O.co2   1  UNL1       -0.5466
     42 O          19.8591   76.3469   -0.0605 O.co2   1  UNL1       -0.5466
     43 C          20.7744   75.5614    0.1352 C.2     1  UNL1        0.0799
@<TRIPOS>UNITY_ATOM_ATTR
2 1
charge -1
26 1
charge -1
41 1
charge -1
@<TRIPOS>BOND
     1     1     4    1
     2     1    24    1
     3     1     2    1
     4     1     3    2
     5    25    28    1
     6    25    24    1
     7    25    26    1
     8    25    27    2
     9     6    11    1
    10     6    12    1
    11    29    36    1
    12    29    37    1
    13     7     9    1
    14     7    13    1
    15     8    10    1
    16     8    14    1
    17     4     5    1
    18    28    36    1
    19    30    33    1
    20    30    38    1
    21    31    34    1
    22    31    39    1
    23    32    35    1
    24    32    40    1
    25    41    43   ar
    26    15    19    2
    27    42    43   ar
    28    16    22    2
    29    17    12    1
    30    17    19   ar
    31    17    20   ar
    32    18    19   ar
    33    18    22   ar
    34    18    23    1
    35     9    10    1
    36     9    11    1
    37    10    12    1
    38    11     5    1
    39    33    34    1
    40    33    35    1
    41    34    36    1
    42    35    37    1
    43    37    43    1
    44    20    21   ar
    45    21    22   ar
@<TRIPOS>MOLECULE
*****
 43 45 0 0 0
SMALL
GASTEIGER

@<TRIPOS>ATOM
      1 P          21.8113   73.9478   -7.0350 P.3     1  UNL1        0.2189
      2 O          23.1666   74.7351   -7.4378 O.co2   1  UNL1       -0.4371
      3 O          22.0104   72.7625   -6.1366 O.2     1  UNL1       -0.5170
      4 O          21.1032   73.6406   -8.4570 O.3     1  UNL1       -0.3112
      5 C          21.0367   72.2986   -8.9032 C.3     1  UNL1        0.1811
      6 O          19.0556   70.9381   -8.9422 O.3     1  UNL1       -0.3308
      7 O          17.7776   73.1705  -10.4830 O.3     1  UNL1       -0.3794
      8 O          16.8073   73.5537   -7.9635 O.3     1  UNL1       -0.3779
      9 C          18.7283   73.2349   -9.4198 C.3     1  UNL1        0.1713
     10 C          18.0600   72.9159   -8.0992 C.3     1  UNL1        0.1895
     11 C          19.6917   72.0669   -9.5797 C.3     1  UNL1        0.1764
     12 C          17.9419   71.4026   -8.1630 C.3     1  UNL1        0.2383
     13 H          17.1510   73.9071  -10.4021 H       1  UNL1        0.2105
     14 H          16.9362   74.5150   -7.9273 H       1  UNL1        0.2106
     15 O          15.8897   69.8002   -7.0688 O.2     1  UNL1       -0.2464
     16 O          18.2514   69.1177   -3.1699 O.2     1  UNL1       -0.2670
     17 N          17.9944   70.7936   -6.8641 N.ar    1  UNL1       -0.2551
     18 N          17.0675   69.4626   -5.1276 N.ar    1  UNL1       -0.2743
     19 C          16.9098   70.0072   -6.4088 C.ar    1  UNL1        0.3323
     20 C          19.1108   70.9762   -6.0571 C.ar    1  UNL1        0.0869
     21 C          19.2467   70.4506   -4.8381 C.ar    1  UNL1        0.0795
     22 C          18.1584   69.6165   -4.2874 C.ar    1  UNL1        0.2626
     23 H          16.3245   68.9129   -4.7882 H       1  UNL1        0.1734
     24 O          20.8843   75.1165   -6.4123 O.3     1  UNL1       -0.2703
     25 P          19.9317   75.1330   -5.1062 P.3     1  UNL1        0.2208
     26 O          18.5100   74.6119   -5.6786 O.co2   1  UNL1       -0.4371
     27 O          19.8679   76.4602   -4.4073 O.2     1  UNL1       -0.5170
     28 O          20.4715   73.9195   -4.1905 O.3     1  UNL1       -0.2858
     29 O          20.9228   73.1110   -2.0107 O.3     1  UNL1       -0.3226
     30 O          24.7328   73.5978   -3.5323 O.3     1  UNL1       -0.3794
     31 O          22.6734   75.6107   -4.0241 O.3     1  UNL1       -0.3775
     32 O          23.5824   70.9380   -3.3019 O.3     1  UNL1       -0.3792
     33 C          23.3340   73.3177   -3.5861 C.3     1  UNL1        0.1718
     34 C          22.5489   74.5361   -3.0997 C.3     1  UNL1        0.1968
     35 C          23.0581   72.1122   -2.6846 C.3     1  UNL1        0.1723
     36 C          21.0676   74.1984   -2.9250 C.3     1  UNL1        0.2706
     37 C          21.5618   71.9172   -2.4575 C.3     1  UNL1        0.1830
     38 H          24.9319   74.3606   -4.0978 H       1  UNL1        0.2105
     39 H          23.6108   75.8300   -4.1400 H       1  UNL1        0.2106
     40 H          24.5342   71.0492   -3.4521 H       1  UNL1        0.2106
     41 O          21.3330   69.6835   -1.7795 O.co2   1  UNL1       -0.5466
     42 O          21.1263   71.2854   -0.1700 O.co2   1  UNL1       -0.5466
     43 C          21.3156   70.9641   -1.3336 C.2     1  UNL1        0.0799
@<TRIPOS>UNITY_ATOM_ATTR
2 1
charge -1
26 1
charge -1
41 1
charge -1
@<TRIPOS>BOND
     1     1     4    1
     2     1    24    1
     3     1     2    1
     4     1     3    2
     5    25    28    1
     6    25    24    1
     7    25    26    1
     8    25    27    2
     9     6    11    1
    10     6    12    1
    11    29    36    1
    12    29    37    1
    13     7     9    1
    14     7    13    1
    15     8    10    1
    16     8    14    1
    17     4     5    1
    18    28    36    1
    19    30    33    1
    20    30    38    1
    21    31    34    1
    22    31    39    1
    23    32    35    1
    24    32    40    1
    25    41    43   ar
    26    15    19    2
    27    42    43   ar
    28    16    22    2
    29    17    12    1
    30    17    19   ar
    31    17    20   ar
    32    18    19   ar
    33    18    22   ar
    34    18    23    1
    35     9    10    1
    36     9    11    1
    37    10    12    1
    38    11     5    1
    39    33    34    1
    40    33    35    1
    41    34    36    1
    42    35    37    1
    43    37    43    1
    44    20    21   ar
    45    21    22   ar
@<TRIPOS>MOLECULE
*****
 43 45 0 0 0
SMALL
GASTEIGER

@<TRIPOS>ATOM
      1 P          23.0296   71.8747   -3.1115 P.3     1  UNL1        0.2189
      2 O          23.8227   72.9676   -4.0034 O.co2   1  UNL1       -0.4371
      3 O          23.5496   70.4713   -3.2191 O.2     1  UNL1       -0.5170
      4 O          21.4802   72.0838   -3.5283 O.3     1  UNL1       -0.3112
      5 C          20.6256   70.9550   -3.5424 C.3     1  UNL1        0.1811
      6 O          18.7753   71.9949   -4.6704 O.3     1  UNL1       -0.3308
      7 O          17.0502   70.8496   -2.5016 O.3     1  UNL1       -0.3794
      8 O          16.6347   69.1206   -4.5689 O.3     1  UNL1       -0.3779
      9 C          18.2052   70.2904   -3.1276 C.3     1  UNL1        0.1713
     10 C          17.8651   69.8124   -4.5233 C.3     1  UNL1        0.1895
     11 C          19.1825   71.4237   -3.4082 C.3     1  UNL1        0.1764
     12 C          17.8327   71.1153   -5.3038 C.3     1  UNL1        0.2383
     13 H          16.4110   70.1443   -2.3125 H       1  UNL1        0.2105
     14 H          16.7069   68.2986   -4.0578 H       1  UNL1        0.2106
     15 O          16.0379   70.4217   -7.3712 O.2     1  UNL1       -0.2464
     16 O          19.3839   70.4704  -10.5407 O.2     1  UNL1       -0.2670
     17 N          18.2080   70.9403   -6.6783 N.ar    1  UNL1       -0.2551
     18 N          17.7063   70.4456   -8.9476 N.ar    1  UNL1       -0.2743
     19 C          17.2290   70.5914   -7.6384 C.ar    1  UNL1        0.3323
     20 C          19.5316   71.1154   -7.0635 C.ar    1  UNL1        0.0869
     21 C          19.9715   70.9731   -8.3153 C.ar    1  UNL1        0.0795
     22 C          19.0128   70.6087   -9.3791 C.ar    1  UNL1        0.2626
     23 H          17.0435   70.2010   -9.6333 H       1  UNL1        0.1734
     24 O          23.0939   72.5045   -1.6242 O.3     1  UNL1       -0.2703
     25 P          23.3090   74.0269   -1.1245 P.3     1  UNL1        0.2208
     26 O          21.9451   74.7648   -1.5889 O.co2   1  UNL1       -0.4371
     27 O          24.5653   74.6709   -1.6354 O.2     1  UNL1       -0.5170
     28 O          23.2027   73.9489    0.4833 O.3     1  UNL1       -0.2858
     29 O          21.7104   74.1862    2.3070 O.3     1  UNL1       -0.3226
     30 O          24.6135   76.9778    3.2274 O.3     1  UNL1       -0.3794
     31 O          23.6483   76.6944    0.4847 O.3     1  UNL1       -0.3775
     32 O          24.5211   74.4450    4.6512 O.3     1  UNL1       -0.3792
     33 C          24.1003   75.7637    2.6792 C.3     1  UNL1        0.1718
     34 C          23.0451   76.0860    1.6208 C.3     1  UNL1        0.1968
     35 C          23.4797   74.9547    3.8204 C.3     1  UNL1        0.1723
     36 C          22.3110   74.8199    1.1769 C.3     1  UNL1        0.2706
     37 C          22.6605   73.7815    3.2902 C.3     1  UNL1        0.1830
     38 H          25.0129   77.5087    2.5204 H       1  UNL1        0.2105
     39 H          24.1160   77.4982    0.7592 H       1  UNL1        0.2106
     40 H          25.0502   75.1816    4.9950 H       1  UNL1        0.2106
     41 O          20.4889   73.3824    4.0817 O.co2   1  UNL1       -0.5466
     42 O          22.2181   72.6438    5.3714 O.co2   1  UNL1       -0.5466
     43 C          21.8022   73.2038    4.3682 C.2     1  UNL1        0.0799
@<TRIPOS>UNITY_ATOM_ATTR
2 1
charge -1
26 1
charge -1
41 1
charge -1
@<TRIPOS>BOND
     1     1     4    1
     2     1    24    1
     3     1     2    1
     4     1     3    2
     5    25    28    1
     6    25    24    1
     7    25    26    1
     8    25    27    2
     9     6    11    1
    10     6    12    1
    11    29    36    1
    12    29    37    1
    13     7     9    1
    14     7    13    1
    15     8    10    1
    16     8    14    1
    17     4     5    1
    18    28    36    1
    19    30    33    1
    20    30    38    1
    21    31    34    1
    22    31    39    1
    23    32    35    1
    24    32    40    1
    25    41    43   ar
    26    15    19    2
    27    42    43   ar
    28    16    22    2
    29    17    12    1
    30    17    19   ar
    31    17    20   ar
    32    18    19   ar
    33    18    22   ar
    34    18    23    1
    35     9    10    1
    36     9    11    1
    37    10    12    1
    38    11     5    1
    39    33    34    1
    40    33    35    1
    41    34    36    1
    42    35    37    1
    43    37    43    1
    44    20    21   ar
    45    21    22   ar
@<TRIPOS>MOLECULE
*****
 43 45 0 0 0
SMALL
GASTEIGER

@<TRIPOS>ATOM
      1 P          22.6019   73.1127   -4.3142 P.3     1  UNL1        0.2189
      2 O          22.7048   74.1363   -5.5634 O.co2   1  UNL1       -0.4371
      3 O          23.8935   72.4546   -3.9262 O.2     1  UNL1       -0.5170
      4 O          21.4006   72.1117   -4.7302 O.3     1  UNL1       -0.3112
      5 C          20.8169   71.3021   -3.7260 C.3     1  UNL1        0.1811
      6 O          18.8629   72.1822   -4.8146 O.3     1  UNL1       -0.3308
      7 O          17.3077   71.0951   -2.4928 O.3     1  UNL1       -0.3794
      8 O          16.8759   69.2230   -4.4279 O.3     1  UNL1       -0.3779
      9 C          18.4563   70.5525   -3.1445 C.3     1  UNL1        0.1713
     10 C          18.0711   69.9730   -4.4891 C.3     1  UNL1        0.1895
     11 C          19.3607   71.7104   -3.5438 C.3     1  UNL1        0.1764
     12 C          17.9347   71.2218   -5.3434 C.3     1  UNL1        0.2383
     13 H          16.7147   70.3739   -2.2282 H       1  UNL1        0.2105
     14 H          17.0144   68.4388   -3.8731 H       1  UNL1        0.2106
     15 O          16.0550   70.4090   -7.2882 O.2     1  UNL1       -0.2464
     16 O          19.2532   70.3200  -10.6060 O.2     1  UNL1       -0.2670
     17 N          18.2491   70.9791   -6.7229 N.ar    1  UNL1       -0.2551
     18 N          17.6499   70.3644   -8.9386 N.ar    1  UNL1       -0.2743
     19 C          17.2310   70.5738   -7.6181 C.ar    1  UNL1        0.3323
     20 C          19.5520   71.1443   -7.1768 C.ar    1  UNL1        0.0869
     21 C          19.9360   70.9411   -8.4385 C.ar    1  UNL1        0.0795
     22 C          18.9337   70.5151   -9.4372 C.ar    1  UNL1        0.2626
     23 H          16.9592   70.0798   -9.5798 H       1  UNL1        0.1734
     24 O          21.9339   74.0203   -3.1554 O.3     1  UNL1       -0.2703
     25 P          22.6016   75.0076   -2.0632 P.3     1  UNL1        0.2208
     26 O          21.6270   76.2998   -2.0880 O.co2   1  UNL1       -0.4371
     27 O          24.0481   75.3190   -2.3175 O.2     1  UNL1       -0.5170
     28 O          22.3082   74.3036   -0.6416 O.3     1  UNL1       -0.2858
     29 O          21.5459   72.0644   -0.5237 O.3     1  UNL1       -0.3226
     30 O          20.5007   73.5057    3.2043 O.3     1  UNL1       -0.3794
     31 O          20.0926   75.1395    0.8172 O.3     1  UNL1       -0.3775
     32 O          22.8020   71.7540    2.9097 O.3     1  UNL1       -0.3792
     33 C          21.2918   73.4072    2.0201 C.3     1  UNL1        0.1718
     34 C          20.4365   73.7589    0.8026 C.3     1  UNL1        0.1968
     35 C          21.8051   71.9695    1.9125 C.3     1  UNL1        0.1723
     36 C          21.1789   73.4443   -0.4969 C.3     1  UNL1        0.2706
     37 C          22.4194   71.6984    0.5422 C.3     1  UNL1        0.1830
     38 H          20.1635   74.4110    3.2937 H       1  UNL1        0.2105
     39 H          19.6214   75.3463    1.6392 H       1  UNL1        0.2106
     40 H          22.4239   71.9234    3.7867 H       1  UNL1        0.2106
     41 O          21.4374   69.5699    0.4589 O.co2   1  UNL1       -0.5466
     42 O          23.6804   69.6965    0.0693 O.co2   1  UNL1       -0.5466
     43 C          22.6134   70.2324    0.3285 C.2     1  UNL1        0.0799
@<TRIPOS>UNITY_ATOM_ATTR
2 1
charge -1
26 1
charge -1
41 1
charge -1
@<TRIPOS>BOND
     1     1     4    1
     2     1    24    1
     3     1     2    1
     4     1     3    2
     5    25    28    1
     6    25    24    1
     7    25    26    1
     8    25    27    2
     9     6    11    1
    10     6    12    1
    11    29    36    1
    12    29    37    1
    13     7     9    1
    14     7    13    1
    15     8    10    1
    16     8    14    1
    17     4     5    1
    18    28    36    1
    19    30    33    1
    20    30    38    1
    21    31    34    1
    22    31    39    1
    23    32    35    1
    24    32    40    1
    25    41    43   ar
    26    15    19    2
    27    42    43   ar
    28    16    22    2
    29    17    12    1
    30    17    19   ar
    31    17    20   ar
    32    18    19   ar
    33    18    22   ar
    34    18    23    1
    35     9    10    1
    36     9    11    1
    37    10    12    1
    38    11     5    1
    39    33    34    1
    40    33    35    1
    41    34    36    1
    42    35    37    1
    43    37    43    1
    44    20    21   ar
    45    21    22   ar
@<TRIPOS>MOLECULE
*****
 43 45 0 0 0
SMALL
GASTEIGER

@<TRIPOS>ATOM
      1 P          22.9705   71.9066   -3.2553 P.3     1  UNL1        0.2189
      2 O          23.7637   72.9374   -4.2181 O.co2   1  UNL1       -0.4371
      3 O          23.5999   70.5508   -3.1235 O.2     1  UNL1       -0.5170
      4 O          21.4573   71.9262   -3.8279 O.3     1  UNL1       -0.3112
      5 C          20.6139   70.8242   -3.5472 C.3     1  UNL1        0.1811
      6 O          18.7835   71.9126   -4.6618 O.3     1  UNL1       -0.3308
      7 O          17.0380   70.7784   -2.5035 O.3     1  UNL1       -0.3794
      8 O          16.5865   69.0803   -4.5889 O.3     1  UNL1       -0.3779
      9 C          18.1811   70.2032   -3.1368 C.3     1  UNL1        0.1713
     10 C          17.8304   69.7471   -4.5372 C.3     1  UNL1        0.1895
     11 C          19.1804   71.3199   -3.4063 C.3     1  UNL1        0.1764
     12 C          17.8230   71.0588   -5.3036 C.3     1  UNL1        0.2383
     13 H          16.3852   70.0838   -2.3214 H       1  UNL1        0.2105
     14 H          16.6428   68.2516   -4.0868 H       1  UNL1        0.2106
     15 O          15.9963   70.5470   -7.3959 O.2     1  UNL1       -0.2464
     16 O          19.3573   70.4335  -10.5479 O.2     1  UNL1       -0.2670
     17 N          18.1936   70.8912   -6.6803 N.ar    1  UNL1       -0.2551
     18 N          17.6721   70.4900   -8.9636 N.ar    1  UNL1       -0.2743
     19 C          17.1982   70.6373   -7.6534 C.ar    1  UNL1        0.3323
     20 C          19.5288   70.9802   -7.0550 C.ar    1  UNL1        0.0869
     21 C          19.9652   70.8376   -8.3080 C.ar    1  UNL1        0.0795
     22 C          18.9896   70.5694   -9.3849 C.ar    1  UNL1        0.2626
     23 H          16.9979   70.3105   -9.6582 H       1  UNL1        0.1734
     24 O          22.8451   72.7283   -1.8690 O.3     1  UNL1       -0.2703
     25 P          22.5098   74.2839   -1.5837 P.3     1  UNL1        0.2208
     26 O          21.1284   74.5191   -2.3942 O.co2   1  UNL1       -0.4371
     27 O          23.6142   75.2302   -1.9562 O.2     1  UNL1       -0.5170
     28 O          22.0828   74.3321   -0.0288 O.3     1  UNL1       -0.2858
     29 O          23.3249   74.8506    1.9199 O.3     1  UNL1       -0.3226
     30 O          20.7317   71.9559    3.3213 O.3     1  UNL1       -0.3794
     31 O          22.0214   71.6535    0.7175 O.3     1  UNL1       -0.3775
     32 O          20.2774   74.7551    3.9609 O.3     1  UNL1       -0.3792
     33 C          21.1452   73.0474    2.4994 C.3     1  UNL1        0.1718
     34 C          22.3715   72.6378    1.6835 C.3     1  UNL1        0.1968
     35 C          21.4841   74.2264    3.4143 C.3     1  UNL1        0.1723
     36 C          22.9800   73.8443    0.9671 C.3     1  UNL1        0.2706
     37 C          22.2009   75.3361    2.6506 C.3     1  UNL1        0.1830
     38 H          20.5111   71.1948    2.7614 H       1  UNL1        0.2105
     39 H          21.6344   70.8851    1.1651 H       1  UNL1        0.2106
     40 H          19.8114   74.0586    4.4495 H       1  UNL1        0.2106
     41 O          24.1215   76.5175    3.2965 O.co2   1  UNL1       -0.5466
     42 O          22.2238   76.8747    4.5090 O.co2   1  UNL1       -0.5466
     43 C          22.8134   76.3193    3.5942 C.2     1  UNL1        0.0799
@<TRIPOS>UNITY_ATOM_ATTR
2 1
charge -1
26 1
charge -1
41 1
charge -1
@<TRIPOS>BOND
     1     1     4    1
     2     1    24    1
     3     1     2    1
     4     1     3    2
     5    25    28    1
     6    25    24    1
     7    25    26    1
     8    25    27    2
     9     6    11    1
    10     6    12    1
    11    29    36    1
    12    29    37    1
    13     7     9    1
    14     7    13    1
    15     8    10    1
    16     8    14    1
    17     4     5    1
    18    28    36    1
    19    30    33    1
    20    30    38    1
    21    31    34    1
    22    31    39    1
    23    32    35    1
    24    32    40    1
    25    41    43   ar
    26    15    19    2
    27    42    43   ar
    28    16    22    2
    29    17    12    1
    30    17    19   ar
    31    17    20   ar
    32    18    19   ar
    33    18    22   ar
    34    18    23    1
    35     9    10    1
    36     9    11    1
    37    10    12    1
    38    11     5    1
    39    33    34    1
    40    33    35    1
    41    34    36    1
    42    35    37    1
    43    37    43    1
    44    20    21   ar
    45    21    22   ar
@<TRIPOS>MOLECULE
*****
 43 45 0 0 0
SMALL
GASTEIGER

@<TRIPOS>ATOM
      1 P          22.7976   71.9989   -3.0882 P.3     1  UNL1        0.2189
      2 O          23.5682   70.5859   -3.2571 O.co2   1  UNL1       -0.4371
      3 O          22.7170   72.5123   -1.6805 O.2     1  UNL1       -0.5170
      4 O          21.3803   71.7597   -3.8311 O.3     1  UNL1       -0.3112
      5 C          20.2930   72.6043   -3.5011 C.3     1  UNL1        0.1811
      6 O          18.2136   71.7099   -4.3097 O.3     1  UNL1       -0.3308
      7 O          18.3986   69.7406   -2.0560 O.3     1  UNL1       -0.3794
      8 O          19.2355   68.2751   -4.1980 O.3     1  UNL1       -0.3779
      9 C          19.4406   70.2947   -2.8596 C.3     1  UNL1        0.1713
     10 C          19.4238   69.6741   -4.2405 C.3     1  UNL1        0.1895
     11 C          19.0834   71.7446   -3.1575 C.3     1  UNL1        0.1764
     12 C          18.2633   70.4007   -4.8987 C.3     1  UNL1        0.2383
     13 H          18.6045   68.8144   -1.8527 H       1  UNL1        0.2105
     14 H          20.0008   67.8587   -3.7703 H       1  UNL1        0.2106
     15 O          16.1655   70.2206   -6.7811 O.2     1  UNL1       -0.2464
     16 O          19.0346   70.9256  -10.3188 O.2     1  UNL1       -0.2670
     17 N          18.4340   70.5334   -6.3179 N.ar    1  UNL1       -0.2551
     18 N          17.5966   70.5709   -8.5413 N.ar    1  UNL1       -0.2743
     19 C          17.3145   70.4261   -7.1766 C.ar    1  UNL1        0.3323
     20 C          19.6979   70.7685   -6.8455 C.ar    1  UNL1        0.0869
     21 C          19.9511   70.9043   -8.1487 C.ar    1  UNL1        0.0795
     22 C          18.8365   70.8049   -9.1136 C.ar    1  UNL1        0.2626
     23 H          16.8334   70.4981   -9.1590 H       1  UNL1        0.1734
     24 O          23.5867   72.9674   -4.1140 O.3     1  UNL1       -0.2703
     25 P          23.6984   74.5789   -4.1792 P.3     1  UNL1        0.2208
     26 O          25.2934   74.8427   -4.0965 O.co2   1  UNL1       -0.4371
     27 O          22.8980   75.2946   -3.1300 O.2     1  UNL1       -0.5170
     28 O          23.3015   74.9555   -5.6968 O.3     1  UNL1       -0.2858
     29 O          21.2763   75.8209   -6.5678 O.3     1  UNL1       -0.3226
     30 O          22.6259   73.5105   -9.7156 O.3     1  UNL1       -0.3794
     31 O          22.8183   72.5305   -6.9702 O.3     1  UNL1       -0.3775
     32 O          22.8575   76.4062   -9.8265 O.3     1  UNL1       -0.3792
     33 C          22.7511   74.3531   -8.5701 C.3     1  UNL1        0.1718
     34 C          22.0857   73.6838   -7.3673 C.3     1  UNL1        0.1968
     35 C          22.0654   75.6845   -8.8851 C.3     1  UNL1        0.1723
     36 C          21.9965   74.6489   -6.1842 C.3     1  UNL1        0.2706
     37 C          21.9013   76.5373   -7.6304 C.3     1  UNL1        0.1830
     38 H          23.0545   72.6583   -9.5387 H       1  UNL1        0.2105
     39 H          22.8791   71.9139   -7.7162 H       1  UNL1        0.2106
     40 H          22.9696   75.8743  -10.6299 H       1  UNL1        0.2106
     41 O          20.2063   77.4312   -8.9829 O.co2   1  UNL1       -0.5466
     42 O          20.8586   78.6661   -7.1805 O.co2   1  UNL1       -0.5466
     43 C          20.9543   77.6663   -7.8765 C.2     1  UNL1        0.0799
@<TRIPOS>UNITY_ATOM_ATTR
2 1
charge -1
26 1
charge -1
41 1
charge -1
@<TRIPOS>BOND
     1     1     4    1
     2     1    24    1
     3     1     2    1
     4     1     3    2
     5    25    28    1
     6    25    24    1
     7    25    26    1
     8    25    27    2
     9     6    11    1
    10     6    12    1
    11    29    36    1
    12    29    37    1
    13     7     9    1
    14     7    13    1
    15     8    10    1
    16     8    14    1
    17     4     5    1
    18    28    36    1
    19    30    33    1
    20    30    38    1
    21    31    34    1
    22    31    39    1
    23    32    35    1
    24    32    40    1
    25    41    43   ar
    26    15    19    2
    27    42    43   ar
    28    16    22    2
    29    17    12    1
    30    17    19   ar
    31    17    20   ar
    32    18    19   ar
    33    18    22   ar
    34    18    23    1
    35     9    10    1
    36     9    11    1
    37    10    12    1
    38    11     5    1
    39    33    34    1
    40    33    35    1
    41    34    36    1
    42    35    37    1
    43    37    43    1
    44    20    21   ar
    45    21    22   ar
@<TRIPOS>MOLECULE
*****
 43 45 0 0 0
SMALL
GASTEIGER

@<TRIPOS>ATOM
      1 P          22.4155   73.1483   -4.3436 P.3     1  UNL1        0.2189
      2 O          21.8058   74.2407   -3.3171 O.co2   1  UNL1       -0.4371
      3 O          23.9087   73.0056   -4.3037 O.2     1  UNL1       -0.5170
      4 O          21.7877   73.5673   -5.7748 O.3     1  UNL1       -0.3112
      5 C          21.4492   74.9245   -5.9934 C.3     1  UNL1        0.1811
      6 O          20.8588   73.9791   -8.1230 O.3     1  UNL1       -0.3308
      7 O          20.7518   76.7993   -9.1361 O.3     1  UNL1       -0.3794
      8 O          18.1185   76.2035   -8.7532 O.3     1  UNL1       -0.3779
      9 C          20.3780   76.2834   -7.8584 C.3     1  UNL1        0.1713
     10 C          19.0712   75.5257   -7.9610 C.3     1  UNL1        0.1895
     11 C          21.3592   75.1781   -7.4927 C.3     1  UNL1        0.1764
     12 C          19.5165   74.2112   -8.5788 C.3     1  UNL1        0.2383
     13 H          20.1390   77.5072   -9.3913 H       1  UNL1        0.2105
     14 H          17.8671   77.0333   -8.3171 H       1  UNL1        0.2106
     15 O          19.0010   71.9388  -10.1748 O.2     1  UNL1       -0.2464
     16 O          16.3287   70.0425   -6.9334 O.2     1  UNL1       -0.2670
     17 N          18.6896   73.1087   -8.1766 N.ar    1  UNL1       -0.2551
     18 N          17.6697   70.9970   -8.5593 N.ar    1  UNL1       -0.2743
     19 C          18.4950   72.0156   -9.0536 C.ar    1  UNL1        0.3323
     20 C          18.0834   73.1164   -6.9262 C.ar    1  UNL1        0.0869
     21 C          17.2995   72.1381   -6.4689 C.ar    1  UNL1        0.0795
     22 C          17.0443   70.9601   -7.3235 C.ar    1  UNL1        0.2626
     23 H          17.5177   70.2263   -9.1528 H       1  UNL1        0.1734
     24 O          21.6003   71.8037   -3.9689 O.3     1  UNL1       -0.2703
     25 P          21.8962   70.6542   -2.8712 P.3     1  UNL1        0.2208
     26 O          23.4986   70.4486   -2.9737 O.co2   1  UNL1       -0.4371
     27 O          21.0978   69.3976   -3.0650 O.2     1  UNL1       -0.5170
     28 O          21.6689   71.3791   -1.4481 O.3     1  UNL1       -0.2858
     29 O          23.2648   72.8448   -0.4920 O.3     1  UNL1       -0.3226
     30 O          21.0770   71.7064    2.8225 O.3     1  UNL1       -0.3794
     31 O          21.8235   69.7408    0.7943 O.3     1  UNL1       -0.3775
     32 O          20.6933   74.3411    1.6553 O.3     1  UNL1       -0.3792
     33 C          21.2903   72.0163    1.4454 C.3     1  UNL1        0.1718
     34 C          22.3370   71.0661    0.8631 C.3     1  UNL1        0.1968
     35 C          21.7778   73.4642    1.3564 C.3     1  UNL1        0.1723
     36 C          22.7596   71.5098   -0.5380 C.3     1  UNL1        0.2706
     37 C          22.2993   73.7916   -0.0398 C.3     1  UNL1        0.1830
     38 H          20.7667   70.7908    2.9038 H       1  UNL1        0.2105
     39 H          21.5531   69.4529    1.6800 H       1  UNL1        0.2106
     40 H          20.3520   74.1430    2.5414 H       1  UNL1        0.2106
     41 O          24.3896   74.8402    0.1410 O.co2   1  UNL1       -0.5466
     42 O          22.5743   76.1853   -0.1665 O.co2   1  UNL1       -0.5466
     43 C          23.0652   75.0744   -0.0326 C.2     1  UNL1        0.0799
@<TRIPOS>UNITY_ATOM_ATTR
2 1
charge -1
26 1
charge -1
41 1
charge -1
@<TRIPOS>BOND
     1     1     4    1
     2     1    24    1
     3     1     2    1
     4     1     3    2
     5    25    28    1
     6    25    24    1
     7    25    26    1
     8    25    27    2
     9     6    11    1
    10     6    12    1
    11    29    36    1
    12    29    37    1
    13     7     9    1
    14     7    13    1
    15     8    10    1
    16     8    14    1
    17     4     5    1
    18    28    36    1
    19    30    33    1
    20    30    38    1
    21    31    34    1
    22    31    39    1
    23    32    35    1
    24    32    40    1
    25    41    43   ar
    26    15    19    2
    27    42    43   ar
    28    16    22    2
    29    17    12    1
    30    17    19   ar
    31    17    20   ar
    32    18    19   ar
    33    18    22   ar
    34    18    23    1
    35     9    10    1
    36     9    11    1
    37    10    12    1
    38    11     5    1
    39    33    34    1
    40    33    35    1
    41    34    36    1
    42    35    37    1
    43    37    43    1
    44    20    21   ar
    45    21    22   ar
@<TRIPOS>MOLECULE
*****
 43 45 0 0 0
SMALL
GASTEIGER

@<TRIPOS>ATOM
      1 P          22.1529   73.3253   -5.2344 P.3     1  UNL1        0.2189
      2 O          22.7332   74.6110   -6.0274 O.co2   1  UNL1       -0.4371
      3 O          23.1954   72.4136   -4.6566 O.2     1  UNL1       -0.5170
      4 O          21.1324   72.6456   -6.2901 O.3     1  UNL1       -0.3112
      5 C          20.7213   73.4007   -7.4150 C.3     1  UNL1        0.1811
      6 O          19.9542   71.1604   -7.8278 O.3     1  UNL1       -0.3308
      7 O          18.3809   72.3173  -10.1033 O.3     1  UNL1       -0.3794
      8 O          16.4906   72.0250   -8.1598 O.3     1  UNL1       -0.3779
      9 C          18.6672   72.8818   -8.8235 C.3     1  UNL1        0.1713
     10 C          17.8311   72.2095   -7.7552 C.3     1  UNL1        0.1895
     11 C          20.0787   72.4662   -8.4319 C.3     1  UNL1        0.1764
     12 C          18.5684   70.8960   -7.5577 C.3     1  UNL1        0.2383
     13 H          17.4840   72.5692  -10.3748 H       1  UNL1        0.2105
     14 H          16.0647   72.8899   -8.2717 H       1  UNL1        0.2106
     15 O          16.2556   69.6326   -6.5422 O.2     1  UNL1       -0.2464
     16 O          18.1932   69.0023   -2.4079 O.2     1  UNL1       -0.2670
     17 N          18.4414   70.3922   -6.2195 N.ar    1  UNL1       -0.2551
     18 N          17.2225   69.3208   -4.4838 N.ar    1  UNL1       -0.2743
     19 C          17.2363   69.7744   -5.8093 C.ar    1  UNL1        0.3323
     20 C          19.5025   70.5106   -5.3302 C.ar    1  UNL1        0.0869
     21 C          19.4745   70.0733   -4.0697 C.ar    1  UNL1        0.0795
     22 C          18.2522   69.4164   -3.5617 C.ar    1  UNL1        0.2626
     23 H          16.3935   68.8890   -4.1747 H       1  UNL1        0.1734
     24 O          21.1600   73.9886   -4.1449 O.3     1  UNL1       -0.2703
     25 P          21.4456   74.5688   -2.6631 P.3     1  UNL1        0.2208
     26 O          20.0542   75.3011   -2.2782 O.co2   1  UNL1       -0.4371
     27 O          22.6558   75.4524   -2.5704 O.2     1  UNL1       -0.5170
     28 O          21.4949   73.2643   -1.7153 O.3     1  UNL1       -0.2858
     29 O          23.1786   73.4263   -0.0576 O.3     1  UNL1       -0.3226
     30 O          21.8497   69.5502    0.4699 O.3     1  UNL1       -0.3794
     31 O          22.2356   70.6307   -2.2168 O.3     1  UNL1       -0.3775
     32 O          21.0690   71.6286    2.3466 O.3     1  UNL1       -0.3792
     33 C          21.7338   70.9337    0.1375 C.3     1  UNL1        0.1718
     34 C          22.6764   71.2625   -1.0205 C.3     1  UNL1        0.1968
     35 C          22.1074   71.7507    1.3764 C.3     1  UNL1        0.1723
     36 C          22.7514   72.7722   -1.2531 C.3     1  UNL1        0.2706
     37 C          22.2863   73.2275    1.0367 C.3     1  UNL1        0.1830
     38 H          21.6171   69.0113   -0.3026 H       1  UNL1        0.2105
     39 H          22.1855   69.6725   -2.0763 H       1  UNL1        0.2106
     40 H          20.9449   70.6932    2.5714 H       1  UNL1        0.2106
     41 O          23.7448   74.9493    1.6769 O.co2   1  UNL1       -0.5466
     42 O          22.8298   73.6884    3.3418 O.co2   1  UNL1       -0.5466
     43 C          22.9615   73.9513    2.1559 C.2     1  UNL1        0.0799
@<TRIPOS>UNITY_ATOM_ATTR
2 1
charge -1
26 1
charge -1
41 1
charge -1
@<TRIPOS>BOND
     1     1     4    1
     2     1    24    1
     3     1     2    1
     4     1     3    2
     5    25    28    1
     6    25    24    1
     7    25    26    1
     8    25    27    2
     9     6    11    1
    10     6    12    1
    11    29    36    1
    12    29    37    1
    13     7     9    1
    14     7    13    1
    15     8    10    1
    16     8    14    1
    17     4     5    1
    18    28    36    1
    19    30    33    1
    20    30    38    1
    21    31    34    1
    22    31    39    1
    23    32    35    1
    24    32    40    1
    25    41    43   ar
    26    15    19    2
    27    42    43   ar
    28    16    22    2
    29    17    12    1
    30    17    19   ar
    31    17    20   ar
    32    18    19   ar
    33    18    22   ar
    34    18    23    1
    35     9    10    1
    36     9    11    1
    37    10    12    1
    38    11     5    1
    39    33    34    1
    40    33    35    1
    41    34    36    1
    42    35    37    1
    43    37    43    1
    44    20    21   ar
    45    21    22   ar
@<TRIPOS>MOLECULE
*****
 43 45 0 0 0
SMALL
GASTEIGER

@<TRIPOS>ATOM
      1 P          22.3693   73.1905   -3.9548 P.3     1  UNL1        0.2189
      2 O          23.8536   72.5586   -4.0829 O.co2   1  UNL1       -0.4371
      3 O          22.0144   73.7026   -2.5897 O.2     1  UNL1       -0.5170
      4 O          21.4028   72.0347   -4.5448 O.3     1  UNL1       -0.3112
      5 C          20.7691   71.1539   -3.6354 C.3     1  UNL1        0.1811
      6 O          18.8444   72.0872   -4.7320 O.3     1  UNL1       -0.3308
      7 O          17.2383   70.9640   -2.4625 O.3     1  UNL1       -0.3794
      8 O          16.8127   69.1466   -4.4505 O.3     1  UNL1       -0.3779
      9 C          18.3899   70.4222   -3.1097 C.3     1  UNL1        0.1713
     10 C          18.0185   69.8815   -4.4742 C.3     1  UNL1        0.1895
     11 C          19.3157   71.5773   -3.4658 C.3     1  UNL1        0.1764
     12 C          17.9122   71.1529   -5.2990 C.3     1  UNL1        0.2383
     13 H          16.6317   70.2446   -2.2254 H       1  UNL1        0.2105
     14 H          16.9320   68.3470   -3.9134 H       1  UNL1        0.2106
     15 O          16.0489   70.4379   -7.2973 O.2     1  UNL1       -0.2464
     16 O          19.3025   70.3630  -10.5612 O.2     1  UNL1       -0.2670
     17 N          18.2453   70.9403   -6.6791 N.ar    1  UNL1       -0.2551
     18 N          17.6713   70.4003   -8.9208 N.ar    1  UNL1       -0.2743
     19 C          17.2341   70.5836   -7.6023 C.ar    1  UNL1        0.3323
     20 C          19.5595   71.0867   -7.1059 C.ar    1  UNL1        0.0869
     21 C          19.9610   70.9087   -8.3660 C.ar    1  UNL1        0.0795
     22 C          18.9670   70.5338   -9.3930 C.ar    1  UNL1        0.2626
     23 H          16.9856   70.1495   -9.5813 H       1  UNL1        0.1734
     24 O          22.3499   74.3104   -5.1202 O.3     1  UNL1       -0.2703
     25 P          22.0750   74.1849   -6.7084 P.3     1  UNL1        0.2208
     26 O          20.4608   74.2518   -6.8108 O.co2   1  UNL1       -0.4371
     27 O          22.6851   72.9698   -7.3449 O.2     1  UNL1       -0.5170
     28 O          22.5805   75.5881   -7.3234 O.3     1  UNL1       -0.2858
     29 O          24.9053   75.9870   -7.1112 O.3     1  UNL1       -0.3226
     30 O          23.5332   79.6696   -8.3856 O.3     1  UNL1       -0.3794
     31 O          22.0500   78.1500   -6.3793 O.3     1  UNL1       -0.3775
     32 O          24.9218   77.9095  -10.2363 O.3     1  UNL1       -0.3792
     33 C          23.5442   78.2454   -8.2884 C.3     1  UNL1        0.1718
     34 C          23.3620   77.8308   -6.8281 C.3     1  UNL1        0.1968
     35 C          24.8894   77.7454   -8.8198 C.3     1  UNL1        0.1723
     36 C          23.5972   76.3299   -6.6521 C.3     1  UNL1        0.2706
     37 C          25.1032   76.2699   -8.4946 C.3     1  UNL1        0.1830
     38 H          22.6877   80.0101   -8.0534 H       1  UNL1        0.2105
     39 H          21.8939   79.1008   -6.4884 H       1  UNL1        0.2106
     40 H          24.7868   78.8444  -10.4567 H       1  UNL1        0.2106
     41 O          26.8395   75.9331  -10.0352 O.co2   1  UNL1       -0.5466
     42 O          27.3120   75.5559   -7.8367 O.co2   1  UNL1       -0.5466
     43 C          26.5280   75.8789   -8.7165 C.2     1  UNL1        0.0799
@<TRIPOS>UNITY_ATOM_ATTR
2 1
charge -1
26 1
charge -1
41 1
charge -1
@<TRIPOS>BOND
     1     1     4    1
     2     1    24    1
     3     1     2    1
     4     1     3    2
     5    25    28    1
     6    25    24    1
     7    25    26    1
     8    25    27    2
     9     6    11    1
    10     6    12    1
    11    29    36    1
    12    29    37    1
    13     7     9    1
    14     7    13    1
    15     8    10    1
    16     8    14    1
    17     4     5    1
    18    28    36    1
    19    30    33    1
    20    30    38    1
    21    31    34    1
    22    31    39    1
    23    32    35    1
    24    32    40    1
    25    41    43   ar
    26    15    19    2
    27    42    43   ar
    28    16    22    2
    29    17    12    1
    30    17    19   ar
    31    17    20   ar
    32    18    19   ar
    33    18    22   ar
    34    18    23    1
    35     9    10    1
    36     9    11    1
    37    10    12    1
    38    11     5    1
    39    33    34    1
    40    33    35    1
    41    34    36    1
    42    35    37    1
    43    37    43    1
    44    20    21   ar
    45    21    22   ar
@<TRIPOS>MOLECULE
*****
 43 45 0 0 0
SMALL
GASTEIGER

@<TRIPOS>ATOM
      1 P          23.0371   72.1279   -3.2398 P.3     1  UNL1        0.2189
      2 O          23.7291   72.9852   -4.4252 O.co2   1  UNL1       -0.4371
      3 O          23.5244   70.7143   -3.1128 O.2     1  UNL1       -0.5170
      4 O          21.4512   72.3029   -3.5087 O.3     1  UNL1       -0.3112
      5 C          20.6434   71.1416   -3.5688 C.3     1  UNL1        0.1811
      6 O          18.7350   72.0739   -4.6942 O.3     1  UNL1       -0.3308
      7 O          17.0882   70.8924   -2.4842 O.3     1  UNL1       -0.3794
      8 O          16.7303   69.1069   -4.5139 O.3     1  UNL1       -0.3779
      9 C          18.2608   70.3748   -3.1132 C.3     1  UNL1        0.1713
     10 C          17.9280   69.8551   -4.4957 C.3     1  UNL1        0.1895
     11 C          19.1818   71.5462   -3.4264 C.3     1  UNL1        0.1764
     12 C          17.8270   71.1400   -5.2999 C.3     1  UNL1        0.2383
     13 H          16.4843   70.1623   -2.2745 H       1  UNL1        0.2105
     14 H          16.8458   68.2990   -3.9885 H       1  UNL1        0.2106
     15 O          16.0321   70.3774   -7.3428 O.2     1  UNL1       -0.2464
     16 O          19.3497   70.4641  -10.5413 O.2     1  UNL1       -0.2670
     17 N          18.1950   70.9561   -6.6752 N.ar    1  UNL1       -0.2551
     18 N          17.6864   70.4203   -8.9337 N.ar    1  UNL1       -0.2743
     19 C          17.2166   70.5718   -7.6224 C.ar    1  UNL1        0.3323
     20 C          19.5108   71.1574   -7.0740 C.ar    1  UNL1        0.0869
     21 C          19.9436   71.0093   -8.3276 C.ar    1  UNL1        0.0795
     22 C          18.9850   70.6086   -9.3784 C.ar    1  UNL1        0.2626
     23 H          17.0240   70.1512   -9.6105 H       1  UNL1        0.1734
     24 O          23.2878   73.0465   -1.9336 O.3     1  UNL1       -0.2703
     25 P          23.7035   74.6025   -1.7942 P.3     1  UNL1        0.2208
     26 O          23.7272   74.8370   -0.1927 O.co2   1  UNL1       -0.4371
     27 O          22.8107   75.5480   -2.5445 O.2     1  UNL1       -0.5170
     28 O          25.2542   74.6531   -2.2361 O.3     1  UNL1       -0.2858
     29 O          27.0414   76.1395   -1.7829 O.3     1  UNL1       -0.3226
     30 O          27.7126   75.2027   -5.7503 O.3     1  UNL1       -0.3794
     31 O          25.0036   75.7259   -4.7900 O.3     1  UNL1       -0.3775
     32 O          29.3642   74.0183   -3.6717 O.3     1  UNL1       -0.3792
     33 C          27.2768   74.9673   -4.4114 C.3     1  UNL1        0.1718
     34 C          26.1884   75.9757   -4.0427 C.3     1  UNL1        0.1968
     35 C          28.4851   75.1261   -3.4859 C.3     1  UNL1        0.1723
     36 C          25.8602   75.9055   -2.5506 C.3     1  UNL1        0.2706
     37 C          28.0621   75.1726   -2.0204 C.3     1  UNL1        0.1830
     38 H          26.9612   75.1073   -6.3566 H       1  UNL1        0.2105
     39 H          25.2046   75.7686   -5.7377 H       1  UNL1        0.2106
     40 H          29.6408   73.9772   -4.6005 H       1  UNL1        0.2106
     41 O          29.1747   77.0047   -1.0679 O.co2   1  UNL1       -0.5466
     42 O          30.0028   74.9307   -0.6074 O.co2   1  UNL1       -0.5466
     43 C          29.1851   75.6517   -1.1592 C.2     1  UNL1        0.0799
@<TRIPOS>UNITY_ATOM_ATTR
2 1
charge -1
26 1
charge -1
41 1
charge -1
@<TRIPOS>BOND
     1     1     4    1
     2     1    24    1
     3     1     2    1
     4     1     3    2
     5    25    28    1
     6    25    24    1
     7    25    26    1
     8    25    27    2
     9     6    11    1
    10     6    12    1
    11    29    36    1
    12    29    37    1
    13     7     9    1
    14     7    13    1
    15     8    10    1
    16     8    14    1
    17     4     5    1
    18    28    36    1
    19    30    33    1
    20    30    38    1
    21    31    34    1
    22    31    39    1
    23    32    35    1
    24    32    40    1
    25    41    43   ar
    26    15    19    2
    27    42    43   ar
    28    16    22    2
    29    17    12    1
    30    17    19   ar
    31    17    20   ar
    32    18    19   ar
    33    18    22   ar
    34    18    23    1
    35     9    10    1
    36     9    11    1
    37    10    12    1
    38    11     5    1
    39    33    34    1
    40    33    35    1
    41    34    36    1
    42    35    37    1
    43    37    43    1
    44    20    21   ar
    45    21    22   ar
@<TRIPOS>MOLECULE
*****
 43 45 0 0 0
SMALL
GASTEIGER

@<TRIPOS>ATOM
      1 P          19.5339   71.7191   -2.8808 P.3     1  UNL1        0.2189
      2 O          19.2483   70.4081   -1.9760 O.co2   1  UNL1       -0.4371
      3 O          20.5914   71.5458   -3.9312 O.2     1  UNL1       -0.5170
      4 O          19.8060   72.8882   -1.7958 O.3     1  UNL1       -0.3112
      5 C          20.3333   72.5284   -0.5321 C.3     1  UNL1        0.1811
      6 O          22.5164   73.0795    0.3092 O.3     1  UNL1       -0.3308
      7 O          23.4647   70.5754   -1.0405 O.3     1  UNL1       -0.3794
      8 O          23.2518   69.8033    1.5661 O.3     1  UNL1       -0.3779
      9 C          22.2242   70.8329   -0.3823 C.3     1  UNL1        0.1713
     10 C          22.4219   70.8548    1.1186 C.3     1  UNL1        0.1895
     11 C          21.8286   72.2743   -0.6725 C.3     1  UNL1        0.1764
     12 C          23.0445   72.2236    1.3348 C.3     1  UNL1        0.2383
     13 H          23.7379   69.6601   -0.8696 H       1  UNL1        0.2105
     14 H          22.8111   68.9534    1.4067 H       1  UNL1        0.2106
     15 O          20.5804   71.8367    2.6596 O.2     1  UNL1       -0.2464
     16 O          21.9044   74.3956    6.2572 O.2     1  UNL1       -0.2670
     17 N          22.7187   72.7772    2.6186 N.ar    1  UNL1       -0.2551
     18 N          21.2418   73.1124    4.4497 N.ar    1  UNL1       -0.2743
     19 C          21.4525   72.5224    3.1964 C.ar    1  UNL1        0.3323
     20 C          23.6479   73.5608    3.2921 C.ar    1  UNL1        0.0869
     21 C          23.4327   74.1162    4.4862 C.ar    1  UNL1        0.0795
     22 C          22.1348   73.8997    5.1584 C.ar    1  UNL1        0.2626
     23 H          20.3668   72.9509    4.8710 H       1  UNL1        0.1734
     24 O          18.0690   72.0899   -3.4548 O.3     1  UNL1       -0.2703
     25 P          17.1373   71.3460   -4.5466 P.3     1  UNL1        0.2208
     26 O          15.8555   72.3270   -4.6689 O.co2   1  UNL1       -0.4371
     27 O          16.7977   69.9251   -4.2005 O.2     1  UNL1       -0.5170
     28 O          17.9221   71.5253   -5.9446 O.3     1  UNL1       -0.2858
     29 O          19.2159   73.4580   -6.3914 O.3     1  UNL1       -0.3226
     30 O          18.5799   71.9745  -10.1944 O.3     1  UNL1       -0.3794
     31 O          16.4147   71.9998   -8.2334 O.3     1  UNL1       -0.3775
     32 O          21.1678   71.6423   -8.9124 O.3     1  UNL1       -0.3792
     33 C          18.7758   71.8997   -8.7823 C.3     1  UNL1        0.1718
     34 C          17.6612   72.6662   -8.0697 C.3     1  UNL1        0.1968
     35 C          20.1376   72.5191   -8.4602 C.3     1  UNL1        0.1723
     36 C          17.9601   72.8037   -6.5762 C.3     1  UNL1        0.2706
     37 C          20.3085   72.7397   -6.9600 C.3     1  UNL1        0.1830
     38 H          17.7204   71.5867  -10.4228 H       1  UNL1        0.2105
     39 H          16.2188   71.9088   -9.1788 H       1  UNL1        0.2106
     40 H          21.0703   71.4935   -9.8659 H       1  UNL1        0.2106
     41 O          22.6269   72.9152   -6.6507 O.co2   1  UNL1       -0.5466
     42 O          21.4108   74.8392   -6.5144 O.co2   1  UNL1       -0.5466
     43 C          21.4756   73.6310   -6.6845 C.2     1  UNL1        0.0799
@<TRIPOS>UNITY_ATOM_ATTR
2 1
charge -1
26 1
charge -1
41 1
charge -1
@<TRIPOS>BOND
     1     1     4    1
     2     1    24    1
     3     1     2    1
     4     1     3    2
     5    25    28    1
     6    25    24    1
     7    25    26    1
     8    25    27    2
     9     6    11    1
    10     6    12    1
    11    29    36    1
    12    29    37    1
    13     7     9    1
    14     7    13    1
    15     8    10    1
    16     8    14    1
    17     4     5    1
    18    28    36    1
    19    30    33    1
    20    30    38    1
    21    31    34    1
    22    31    39    1
    23    32    35    1
    24    32    40    1
    25    41    43   ar
    26    15    19    2
    27    42    43   ar
    28    16    22    2
    29    17    12    1
    30    17    19   ar
    31    17    20   ar
    32    18    19   ar
    33    18    22   ar
    34    18    23    1
    35     9    10    1
    36     9    11    1
    37    10    12    1
    38    11     5    1
    39    33    34    1
    40    33    35    1
    41    34    36    1
    42    35    37    1
    43    37    43    1
    44    20    21   ar
    45    21    22   ar
@<TRIPOS>MOLECULE
*****
 43 45 0 0 0
SMALL
GASTEIGER

@<TRIPOS>ATOM
      1 P          21.7027   73.3214   -6.0771 P.3     1  UNL1        0.2189
      2 O          21.0551   74.6598   -6.7159 O.co2   1  UNL1       -0.4371
      3 O          22.7390   72.6498   -6.9298 O.2     1  UNL1       -0.5170
      4 O          20.4193   72.4165   -5.6876 O.3     1  UNL1       -0.3112
      5 C          19.3291   73.0365   -5.0306 C.3     1  UNL1        0.1811
      6 O          17.0230   73.1228   -5.7031 O.3     1  UNL1       -0.3308
      7 O          17.2537   70.1764   -6.2100 O.3     1  UNL1       -0.3794
      8 O          17.4592   71.2302   -8.7167 O.3     1  UNL1       -0.3779
      9 C          18.2228   71.2061   -6.4083 C.3     1  UNL1        0.1713
     10 C          17.8693   72.0307   -7.6278 C.3     1  UNL1        0.1895
     11 C          18.0683   72.2196   -5.2826 C.3     1  UNL1        0.1764
     12 C          16.7525   72.9141   -7.0983 C.3     1  UNL1        0.2383
     13 H          17.3330   69.5168   -6.9173 H       1  UNL1        0.2105
     14 H          18.2051   70.6869   -9.0175 H       1  UNL1        0.2106
     15 O          14.7158   73.6987   -8.8907 O.2     1  UNL1       -0.2464
     16 O          16.6559   77.8230   -9.5764 O.2     1  UNL1       -0.2670
     17 N          16.7008   74.1873   -7.7594 N.ar    1  UNL1       -0.2551
     18 N          15.6846   75.7517   -9.2313 N.ar    1  UNL1       -0.2743
     19 C          15.6341   74.4819   -8.6413 C.ar    1  UNL1        0.3323
     20 C          17.6972   75.1285   -7.5309 C.ar    1  UNL1        0.0869
     21 C          17.7316   76.3348   -8.1006 C.ar    1  UNL1        0.0795
     22 C          16.6548   76.7213   -9.0357 C.ar    1  UNL1        0.2626
     23 H          14.9537   75.9789   -9.8506 H       1  UNL1        0.1734
     24 O          22.2396   73.8286   -4.6392 O.3     1  UNL1       -0.2703
     25 P          23.3012   73.1732   -3.6111 P.3     1  UNL1        0.2208
     26 O          24.6505   74.0265   -3.8789 O.co2   1  UNL1       -0.4371
     27 O          23.4682   71.6888   -3.7615 O.2     1  UNL1       -0.5170
     28 O          22.8031   73.6464   -2.1515 O.3     1  UNL1       -0.2858
     29 O          21.2024   72.0479   -1.4504 O.3     1  UNL1       -0.3226
     30 O          21.3853   74.5499    1.8320 O.3     1  UNL1       -0.3794
     31 O          21.3649   75.6543   -0.8724 O.3     1  UNL1       -0.3775
     32 O          22.6820   71.9491    1.9056 O.3     1  UNL1       -0.3792
     33 C          21.8892   73.8681    0.6834 C.3     1  UNL1        0.1718
     34 C          21.0969   74.2939   -0.5529 C.3     1  UNL1        0.1968
     35 C          21.7367   72.3641    0.9215 C.3     1  UNL1        0.1723
     36 C          21.4510   73.4203   -1.7572 C.3     1  UNL1        0.2706
     37 C          21.9838   71.5698   -0.3578 C.3     1  UNL1        0.1830
     38 H          21.4718   75.5076    1.7036 H       1  UNL1        0.2105
     39 H          21.1427   76.2143   -0.1126 H       1  UNL1        0.2106
     40 H          22.5357   72.4473    2.7249 H       1  UNL1        0.2106
     41 O          20.6923   69.8135   -1.2233 O.co2   1  UNL1       -0.5466
     42 O          21.8340   69.4108    0.7089 O.co2   1  UNL1       -0.5466
     43 C          21.5178   70.1585   -0.2043 C.2     1  UNL1        0.0799
@<TRIPOS>UNITY_ATOM_ATTR
2 1
charge -1
26 1
charge -1
41 1
charge -1
@<TRIPOS>BOND
     1     1     4    1
     2     1    24    1
     3     1     2    1
     4     1     3    2
     5    25    28    1
     6    25    24    1
     7    25    26    1
     8    25    27    2
     9     6    11    1
    10     6    12    1
    11    29    36    1
    12    29    37    1
    13     7     9    1
    14     7    13    1
    15     8    10    1
    16     8    14    1
    17     4     5    1
    18    28    36    1
    19    30    33    1
    20    30    38    1
    21    31    34    1
    22    31    39    1
    23    32    35    1
    24    32    40    1
    25    41    43   ar
    26    15    19    2
    27    42    43   ar
    28    16    22    2
    29    17    12    1
    30    17    19   ar
    31    17    20   ar
    32    18    19   ar
    33    18    22   ar
    34    18    23    1
    35     9    10    1
    36     9    11    1
    37    10    12    1
    38    11     5    1
    39    33    34    1
    40    33    35    1
    41    34    36    1
    42    35    37    1
    43    37    43    1
    44    20    21   ar
    45    21    22   ar
@<TRIPOS>MOLECULE
*****
 43 45 0 0 0
SMALL
GASTEIGER

@<TRIPOS>ATOM
      1 P          22.5867   74.4386   -7.2463 P.3     1  UNL1        0.2189
      2 O          23.6449   74.5950   -8.4606 O.co2   1  UNL1       -0.4371
      3 O          22.5777   73.0925   -6.5832 O.2     1  UNL1       -0.5170
      4 O          21.1811   74.9130   -7.8923 O.3     1  UNL1       -0.3112
      5 C          19.9957   74.2490   -7.4942 C.3     1  UNL1        0.1811
      6 O          19.6337   71.9663   -8.1544 O.3     1  UNL1       -0.3308
      7 O          17.9191   73.0694  -10.3533 O.3     1  UNL1       -0.3794
      8 O          16.0783   72.2582   -8.5123 O.3     1  UNL1       -0.3779
      9 C          18.0840   73.5377   -9.0146 C.3     1  UNL1        0.1713
     10 C          17.3604   72.6251   -8.0473 C.3     1  UNL1        0.1895
     11 C          19.5398   73.3300   -8.6202 C.3     1  UNL1        0.1764
     12 C          18.3105   71.4430   -7.9581 C.3     1  UNL1        0.2383
     13 H          16.9964   73.1917  -10.6277 H       1  UNL1        0.2105
     14 H          15.5111   73.0448   -8.5510 H       1  UNL1        0.2106
     15 O          16.0739   70.0065   -7.0039 O.2     1  UNL1       -0.2464
     16 O          18.1979   68.9706   -3.0467 O.2     1  UNL1       -0.2670
     17 N          18.2520   70.7880   -6.6820 N.ar    1  UNL1       -0.2551
     18 N          17.1335   69.4928   -5.0335 N.ar    1  UNL1       -0.2743
     19 C          17.0807   70.0931   -6.2983 C.ar    1  UNL1        0.3323
     20 C          19.3463   70.8361   -5.8269 C.ar    1  UNL1        0.0869
     21 C          19.3818   70.2588   -4.6243 C.ar    1  UNL1        0.0795
     22 C          18.1983   69.5137   -4.1473 C.ar    1  UNL1        0.2626
     23 H          16.3290   69.0050   -4.7435 H       1  UNL1        0.1734
     24 O          22.9709   75.6678   -6.2695 O.3     1  UNL1       -0.2703
     25 P          22.3603   76.1206   -4.8427 P.3     1  UNL1        0.2208
     26 O          20.8888   76.6737   -5.2289 O.co2   1  UNL1       -0.4371
     27 O          23.2126   77.1024   -4.0918 O.2     1  UNL1       -0.5170
     28 O          22.0830   74.7382   -4.0589 O.3     1  UNL1       -0.2858
     29 O          22.1549   74.6879   -1.6922 O.3     1  UNL1       -0.3226
     30 O          22.4778   70.6770   -2.6285 O.3     1  UNL1       -0.3794
     31 O          23.9500   72.6793   -4.1639 O.3     1  UNL1       -0.3775
     32 O          19.9656   71.7442   -1.6280 O.3     1  UNL1       -0.3792
     33 C          22.0476   72.0264   -2.8073 C.3     1  UNL1        0.1718
     34 C          23.2670   72.9386   -2.9429 C.3     1  UNL1        0.1968
     35 C          21.2185   72.4245   -1.5842 C.3     1  UNL1        0.1723
     36 C          22.8556   74.4111   -2.9053 C.3     1  UNL1        0.2706
     37 C          20.9566   73.9275   -1.5538 C.3     1  UNL1        0.1830
     38 H          23.0068   70.4020   -3.3938 H       1  UNL1        0.2105
     39 H          24.2137   71.7466   -4.1946 H       1  UNL1        0.2106
     40 H          20.1181   70.7866   -1.6479 H       1  UNL1        0.2106
     41 O          20.7399   73.4194    0.7257 O.co2   1  UNL1       -0.5466
     42 O          19.8424   75.3893    0.0093 O.co2   1  UNL1       -0.5466
     43 C          20.4440   74.3498   -0.2155 C.2     1  UNL1        0.0799
@<TRIPOS>UNITY_ATOM_ATTR
2 1
charge -1
26 1
charge -1
41 1
charge -1
@<TRIPOS>BOND
     1     1     4    1
     2     1    24    1
     3     1     2    1
     4     1     3    2
     5    25    28    1
     6    25    24    1
     7    25    26    1
     8    25    27    2
     9     6    11    1
    10     6    12    1
    11    29    36    1
    12    29    37    1
    13     7     9    1
    14     7    13    1
    15     8    10    1
    16     8    14    1
    17     4     5    1
    18    28    36    1
    19    30    33    1
    20    30    38    1
    21    31    34    1
    22    31    39    1
    23    32    35    1
    24    32    40    1
    25    41    43   ar
    26    15    19    2
    27    42    43   ar
    28    16    22    2
    29    17    12    1
    30    17    19   ar
    31    17    20   ar
    32    18    19   ar
    33    18    22   ar
    34    18    23    1
    35     9    10    1
    36     9    11    1
    37    10    12    1
    38    11     5    1
    39    33    34    1
    40    33    35    1
    41    34    36    1
    42    35    37    1
    43    37    43    1
    44    20    21   ar
    45    21    22   ar
@<TRIPOS>MOLECULE
*****
 43 45 0 0 0
SMALL
GASTEIGER

@<TRIPOS>ATOM
      1 P          21.8523   73.1050   -5.0996 P.3     1  UNL1        0.2189
      2 O          21.1084   74.5420   -5.1205 O.co2   1  UNL1       -0.4371
      3 O          23.3426   73.1605   -5.2670 O.2     1  UNL1       -0.5170
      4 O          21.0528   72.2374   -6.2069 O.3     1  UNL1       -0.3112
      5 C          21.1644   72.6108   -7.5680 C.3     1  UNL1        0.1811
      6 O          19.5721   70.8109   -7.5140 O.3     1  UNL1       -0.3308
      7 O          18.8352   71.6266  -10.3038 O.3     1  UNL1       -0.3794
      8 O          16.8306   72.7209   -8.8139 O.3     1  UNL1       -0.3779
      9 C          19.2157   72.4414   -9.1948 C.3     1  UNL1        0.1713
     10 C          18.0837   72.5248   -8.1929 C.3     1  UNL1        0.1895
     11 C          20.2836   71.6944   -8.4076 C.3     1  UNL1        0.1764
     12 C          18.1845   71.1814   -7.4907 C.3     1  UNL1        0.2383
     13 H          18.1535   72.0831  -10.8220 H       1  UNL1        0.2105
     14 H          16.8165   73.5897   -9.2463 H       1  UNL1        0.2106
     15 O          17.8361   73.5734   -6.0303 O.2     1  UNL1       -0.2464
     16 O          16.4745   71.2908   -2.2647 O.2     1  UNL1       -0.2670
     17 N          17.7400   71.2411   -6.1270 N.ar    1  UNL1       -0.2551
     18 N          17.1593   72.4342   -4.1559 N.ar    1  UNL1       -0.2743
     19 C          17.5981   72.4940   -5.4851 C.ar    1  UNL1        0.3323
     20 C          17.4483   70.0686   -5.4406 C.ar    1  UNL1        0.0869
     21 C          17.0308   70.0275   -4.1738 C.ar    1  UNL1        0.0795
     22 C          16.8573   71.2929   -3.4308 C.ar    1  UNL1        0.2626
     23 H          17.0549   73.2939   -3.6874 H       1  UNL1        0.1734
     24 O          21.3552   72.4592   -3.7037 O.3     1  UNL1       -0.2703
     25 P          21.6738   71.0277   -3.0233 P.3     1  UNL1        0.2208
     26 O          23.2713   70.8676   -3.2296 O.co2   1  UNL1       -0.4371
     27 O          20.8622   69.8905   -3.5728 O.2     1  UNL1       -0.5170
     28 O          21.4906   71.2772   -1.4401 O.3     1  UNL1       -0.2858
     29 O          23.1018   72.8034   -0.6131 O.3     1  UNL1       -0.3226
     30 O          21.2018   71.6227    2.8602 O.3     1  UNL1       -0.3794
     31 O          21.8638   69.6650    0.7954 O.3     1  UNL1       -0.3775
     32 O          20.6453   74.2327    1.7073 O.3     1  UNL1       -0.3792
     33 C          21.3033   71.9273    1.4692 C.3     1  UNL1        0.1718
     34 C          22.3360   71.0071    0.8179 C.3     1  UNL1        0.1968
     35 C          21.7339   73.3896    1.3354 C.3     1  UNL1        0.1723
     36 C          22.6399   71.4521   -0.6134 C.3     1  UNL1        0.2706
     37 C          22.1407   73.7217   -0.0974 C.3     1  UNL1        0.1830
     38 H          20.9293   70.6981    2.9699 H       1  UNL1        0.2105
     39 H          21.6688   69.3761    1.7004 H       1  UNL1        0.2106
     40 H          20.3766   74.0314    2.6173 H       1  UNL1        0.2106
     41 O          23.2947   75.3914    1.0782 O.co2   1  UNL1       -0.5466
     42 O          23.0422   75.6867   -1.1686 O.co2   1  UNL1       -0.5466
     43 C          22.8614   75.0292   -0.1547 C.2     1  UNL1        0.0799
@<TRIPOS>UNITY_ATOM_ATTR
2 1
charge -1
26 1
charge -1
41 1
charge -1
@<TRIPOS>BOND
     1     1     4    1
     2     1    24    1
     3     1     2    1
     4     1     3    2
     5    25    28    1
     6    25    24    1
     7    25    26    1
     8    25    27    2
     9     6    11    1
    10     6    12    1
    11    29    36    1
    12    29    37    1
    13     7     9    1
    14     7    13    1
    15     8    10    1
    16     8    14    1
    17     4     5    1
    18    28    36    1
    19    30    33    1
    20    30    38    1
    21    31    34    1
    22    31    39    1
    23    32    35    1
    24    32    40    1
    25    41    43   ar
    26    15    19    2
    27    42    43   ar
    28    16    22    2
    29    17    12    1
    30    17    19   ar
    31    17    20   ar
    32    18    19   ar
    33    18    22   ar
    34    18    23    1
    35     9    10    1
    36     9    11    1
    37    10    12    1
    38    11     5    1
    39    33    34    1
    40    33    35    1
    41    34    36    1
    42    35    37    1
    43    37    43    1
    44    20    21   ar
    45    21    22   ar
@<TRIPOS>MOLECULE
*****
 43 45 0 0 0
SMALL
GASTEIGER

@<TRIPOS>ATOM
      1 P          22.2819   74.8543   -5.8653 P.3     1  UNL1        0.2189
      2 O          21.0033   75.7520   -6.2874 O.co2   1  UNL1       -0.4371
      3 O          23.5625   75.6172   -5.6929 O.2     1  UNL1       -0.5170
      4 O          22.3105   73.6744   -6.9721 O.3     1  UNL1       -0.3112
      5 C          21.1807   73.5041   -7.8082 C.3     1  UNL1        0.1811
      6 O          19.3105   72.1780   -7.0860 O.3     1  UNL1       -0.3308
      7 O          20.5332   69.9347   -8.6557 O.3     1  UNL1       -0.3794
      8 O          18.5643   70.8227  -10.3202 O.3     1  UNL1       -0.3779
      9 C          20.5058   71.3320   -8.9478 C.3     1  UNL1        0.1713
     10 C          19.1234   71.7442   -9.4077 C.3     1  UNL1        0.1895
     11 C          20.6436   72.0893   -7.6342 C.3     1  UNL1        0.1764
     12 C          18.3597   71.8048   -8.0959 C.3     1  UNL1        0.2383
     13 H          20.4467   69.4299   -9.4799 H       1  UNL1        0.2105
     14 H          19.0857   70.8214  -11.1388 H       1  UNL1        0.2106
     15 O          16.0254   71.6615   -6.5125 O.2     1  UNL1       -0.2464
     16 O          14.3663   75.5820   -8.2793 O.2     1  UNL1       -0.2670
     17 N          17.3015   72.7746   -8.1221 N.ar    1  UNL1       -0.2551
     18 N          15.2008   73.6137   -7.3947 N.ar    1  UNL1       -0.2743
     19 C          16.1715   72.6092   -7.2868 C.ar    1  UNL1        0.3323
     20 C          17.3898   73.8747   -8.9665 C.ar    1  UNL1        0.0869
     21 C          16.4565   74.8241   -9.0583 C.ar    1  UNL1        0.0795
     22 C          15.2437   74.7258   -8.2199 C.ar    1  UNL1        0.2626
     23 H          14.4039   73.5192   -6.8244 H       1  UNL1        0.1734
     24 O          21.7674   74.0928   -4.5356 O.3     1  UNL1       -0.2703
     25 P          22.2380   72.7014   -3.8601 P.3     1  UNL1        0.2208
     26 O          23.8394   72.6984   -4.0968 O.co2   1  UNL1       -0.4371
     27 O          21.5319   71.4884   -4.3930 O.2     1  UNL1       -0.5170
     28 O          22.0613   72.9361   -2.2739 O.3     1  UNL1       -0.2858
     29 O          21.3482   71.2215   -0.8039 O.3     1  UNL1       -0.3226
     30 O          20.4469   74.6190    1.3671 O.3     1  UNL1       -0.3794
     31 O          19.8990   74.5051   -1.5002 O.3     1  UNL1       -0.3775
     32 O          22.7654   73.0116    2.0683 O.3     1  UNL1       -0.3792
     33 C          21.1848   73.8222    0.4405 C.3     1  UNL1        0.1718
     34 C          20.2682   73.3859   -0.7028 C.3     1  UNL1        0.1968
     35 C          21.7202   72.5997    1.1895 C.3     1  UNL1        0.1723
     36 C          20.9565   72.3476   -1.5899 C.3     1  UNL1        0.2706
     37 C          22.2763   71.5554    0.2259 C.3     1  UNL1        0.1830
     38 H          20.0968   75.4019    0.9134 H       1  UNL1        0.2105
     39 H          19.4619   75.1680   -0.9436 H       1  UNL1        0.2106
     40 H          22.4246   73.6765    2.6868 H       1  UNL1        0.2106
     41 O          21.5495   69.3481    0.5442 O.co2   1  UNL1       -0.5466
     42 O          23.3832   70.0195    1.7215 O.co2   1  UNL1       -0.5466
     43 C          22.4884   70.2507    0.9222 C.2     1  UNL1        0.0799
@<TRIPOS>UNITY_ATOM_ATTR
2 1
charge -1
26 1
charge -1
41 1
charge -1
@<TRIPOS>BOND
     1     1     4    1
     2     1    24    1
     3     1     2    1
     4     1     3    2
     5    25    28    1
     6    25    24    1
     7    25    26    1
     8    25    27    2
     9     6    11    1
    10     6    12    1
    11    29    36    1
    12    29    37    1
    13     7     9    1
    14     7    13    1
    15     8    10    1
    16     8    14    1
    17     4     5    1
    18    28    36    1
    19    30    33    1
    20    30    38    1
    21    31    34    1
    22    31    39    1
    23    32    35    1
    24    32    40    1
    25    41    43   ar
    26    15    19    2
    27    42    43   ar
    28    16    22    2
    29    17    12    1
    30    17    19   ar
    31    17    20   ar
    32    18    19   ar
    33    18    22   ar
    34    18    23    1
    35     9    10    1
    36     9    11    1
    37    10    12    1
    38    11     5    1
    39    33    34    1
    40    33    35    1
    41    34    36    1
    42    35    37    1
    43    37    43    1
    44    20    21   ar
    45    21    22   ar
@<TRIPOS>MOLECULE
*****
 43 45 0 0 0
SMALL
GASTEIGER

@<TRIPOS>ATOM
      1 P          18.1474   70.2050   -3.1878 P.3     1  UNL1        0.2189
      2 O          16.7643   70.9616   -2.8223 O.co2   1  UNL1       -0.4371
      3 O          18.6035   69.1949   -2.1762 O.2     1  UNL1       -0.5170
      4 O          19.1817   71.4116   -3.4917 O.3     1  UNL1       -0.3112
      5 C          19.8568   72.0138   -2.4026 C.3     1  UNL1        0.1811
      6 O          21.9569   73.0344   -1.8322 O.3     1  UNL1       -0.3308
      7 O          23.2503   70.7138   -3.2226 O.3     1  UNL1       -0.3794
      8 O          23.4845   70.0376   -0.5913 O.3     1  UNL1       -0.3779
      9 C          22.0619   70.7453   -2.4319 C.3     1  UNL1        0.1713
     10 C          22.4120   70.8771   -0.9648 C.3     1  UNL1        0.1895
     11 C          21.3483   72.0615   -2.7086 C.3     1  UNL1        0.1764
     12 C          22.7581   72.3522   -0.8544 C.3     1  UNL1        0.2383
     13 H          23.7235   69.8818   -3.0627 H       1  UNL1        0.2105
     14 H          23.2142   69.1095   -0.6785 H       1  UNL1        0.2106
     15 O          21.1774   71.0485    1.0894 O.2     1  UNL1       -0.2464
     16 O          21.7025   74.5017    4.0967 O.2     1  UNL1       -0.2670
     17 N          22.4657   72.8879    0.4450 N.ar    1  UNL1       -0.2551
     18 N          21.4396   72.7701    2.5849 N.ar    1  UNL1       -0.2743
     19 C          21.6610   72.1524    1.3470 C.ar    1  UNL1        0.3323
     20 C          22.9747   74.1269    0.8150 C.ar    1  UNL1        0.0869
     21 C          22.7550   74.7026    1.9986 C.ar    1  UNL1        0.0795
     22 C          21.9237   74.0006    2.9983 C.ar    1  UNL1        0.2626
     23 H          20.8805   72.2780    3.2289 H       1  UNL1        0.1734
     24 O          17.8526   69.6003   -4.6576 O.3     1  UNL1       -0.2703
     25 P          17.1428   70.2573   -5.9530 P.3     1  UNL1        0.2208
     26 O          16.5360   71.6438   -5.3787 O.co2   1  UNL1       -0.4371
     27 O          16.1322   69.3687   -6.6185 O.2     1  UNL1       -0.5170
     28 O          18.3648   70.7106   -6.9036 O.3     1  UNL1       -0.2858
     29 O          17.2924   71.7538   -8.7395 O.3     1  UNL1       -0.3226
     30 O          21.2729   72.4987   -9.5570 O.3     1  UNL1       -0.3794
     31 O          20.4277   69.8806   -8.5744 O.3     1  UNL1       -0.3775
     32 O          19.5743   74.6187   -8.5221 O.3     1  UNL1       -0.3792
     33 C          20.1310   72.2836   -8.7278 C.3     1  UNL1        0.1718
     34 C          19.5418   70.9026   -9.0163 C.3     1  UNL1        0.1968
     35 C          19.1060   73.3757   -9.0419 C.3     1  UNL1        0.1723
     36 C          18.1919   70.7272   -8.3194 C.3     1  UNL1        0.2706
     37 C          17.7503   73.0644   -8.4145 C.3     1  UNL1        0.1830
     38 H          21.9381   71.8163   -9.3750 H       1  UNL1        0.2105
     39 H          21.2864   69.9860   -9.0125 H       1  UNL1        0.2106
     40 H          20.4367   74.8285   -8.9134 H       1  UNL1        0.2106
     41 O          15.4548   73.4802   -8.6586 O.co2   1  UNL1       -0.5466
     42 O          16.8891   74.9440   -9.6582 O.co2   1  UNL1       -0.5466
     43 C          16.6863   73.9432   -8.9873 C.2     1  UNL1        0.0799
@<TRIPOS>UNITY_ATOM_ATTR
2 1
charge -1
26 1
charge -1
41 1
charge -1
@<TRIPOS>BOND
     1     1     4    1
     2     1    24    1
     3     1     2    1
     4     1     3    2
     5    25    28    1
     6    25    24    1
     7    25    26    1
     8    25    27    2
     9     6    11    1
    10     6    12    1
    11    29    36    1
    12    29    37    1
    13     7     9    1
    14     7    13    1
    15     8    10    1
    16     8    14    1
    17     4     5    1
    18    28    36    1
    19    30    33    1
    20    30    38    1
    21    31    34    1
    22    31    39    1
    23    32    35    1
    24    32    40    1
    25    41    43   ar
    26    15    19    2
    27    42    43   ar
    28    16    22    2
    29    17    12    1
    30    17    19   ar
    31    17    20   ar
    32    18    19   ar
    33    18    22   ar
    34    18    23    1
    35     9    10    1
    36     9    11    1
    37    10    12    1
    38    11     5    1
    39    33    34    1
    40    33    35    1
    41    34    36    1
    42    35    37    1
    43    37    43    1
    44    20    21   ar
    45    21    22   ar
@<TRIPOS>MOLECULE
*****
 43 45 0 0 0
SMALL
GASTEIGER

@<TRIPOS>ATOM
      1 P          17.9773   70.9659   -4.1582 P.3     1  UNL1        0.2189
      2 O          19.5225   70.4906   -4.2299 O.co2   1  UNL1       -0.4371
      3 O          17.1726   70.3409   -3.0565 O.2     1  UNL1       -0.5170
      4 O          17.4249   70.7190   -5.6588 O.3     1  UNL1       -0.3112
      5 C          18.1008   71.3372   -6.7384 C.3     1  UNL1        0.1811
      6 O          18.4599   73.7008   -6.9874 O.3     1  UNL1       -0.3308
      7 O          15.8222   73.7630   -8.4122 O.3     1  UNL1       -0.3794
      8 O          17.6119   73.8256  -10.4687 O.3     1  UNL1       -0.3779
      9 C          16.8344   72.7561   -8.4282 C.3     1  UNL1        0.1713
     10 C          18.0133   73.2111   -9.2621 C.3     1  UNL1        0.1895
     11 C          17.4414   72.6781   -7.0340 C.3     1  UNL1        0.1764
     12 C          18.7130   74.1753   -8.3193 C.3     1  UNL1        0.2383
     13 H          15.4197   73.8312   -9.2925 H       1  UNL1        0.2105
     14 H          17.1720   73.1709  -11.0342 H       1  UNL1        0.2106
     15 O          20.2520   72.0091   -9.2761 O.2     1  UNL1       -0.2464
     16 O          24.1470   74.4682   -9.1153 O.2     1  UNL1       -0.2670
     17 N          20.1312   74.2220   -8.5367 N.ar    1  UNL1       -0.2551
     18 N          22.1906   73.2356   -9.1941 N.ar    1  UNL1       -0.2743
     19 C          20.8094   73.0780   -9.0198 C.ar    1  UNL1        0.3323
     20 C          20.8350   75.3911   -8.2741 C.ar    1  UNL1        0.0869
     21 C          22.1515   75.5261   -8.4453 C.ar    1  UNL1        0.0795
     22 C          22.9348   74.3776   -8.9461 C.ar    1  UNL1        0.2626
     23 H          22.6847   72.4520   -9.5276 H       1  UNL1        0.1734
     24 O          18.0963   72.5758   -4.0751 O.3     1  UNL1       -0.2703
     25 P          19.2837   73.5254   -3.5255 P.3     1  UNL1        0.2208
     26 O          18.5062   74.8786   -3.0959 O.co2   1  UNL1       -0.4371
     27 O          20.4035   73.7391   -4.5025 O.2     1  UNL1       -0.5170
     28 O          19.7325   72.8530   -2.1295 O.3     1  UNL1       -0.2858
     29 O          21.4765   72.2419   -0.6482 O.3     1  UNL1       -0.3226
     30 O          23.5201   72.6996   -4.2094 O.3     1  UNL1       -0.3794
     31 O          21.4498   74.6094   -3.4340 O.3     1  UNL1       -0.3775
     32 O          22.9443   70.0392   -3.1889 O.3     1  UNL1       -0.3792
     33 C          22.4035   72.3793   -3.3795 C.3     1  UNL1        0.1718
     34 C          21.9929   73.6131   -2.5754 C.3     1  UNL1        0.1968
     35 C          22.8225   71.2466   -2.4395 C.3     1  UNL1        0.1723
     36 C          20.9547   73.2524   -1.5119 C.3     1  UNL1        0.2706
     37 C          21.7942   71.0321   -1.3327 C.3     1  UNL1        0.1830
     38 H          23.2773   73.4174   -4.8154 H       1  UNL1        0.2105
     39 H          22.1032   74.8429   -4.1115 H       1  UNL1        0.2106
     40 H          23.5959   70.1623   -3.8969 H       1  UNL1        0.2106
     41 O          23.7013   70.0684   -0.3653 O.co2   1  UNL1       -0.5466
     42 O          21.6964   69.6299    0.6283 O.co2   1  UNL1       -0.5466
     43 C          22.3541   70.1702   -0.2483 C.2     1  UNL1        0.0799
@<TRIPOS>UNITY_ATOM_ATTR
2 1
charge -1
26 1
charge -1
41 1
charge -1
@<TRIPOS>BOND
     1     1     4    1
     2     1    24    1
     3     1     2    1
     4     1     3    2
     5    25    28    1
     6    25    24    1
     7    25    26    1
     8    25    27    2
     9     6    11    1
    10     6    12    1
    11    29    36    1
    12    29    37    1
    13     7     9    1
    14     7    13    1
    15     8    10    1
    16     8    14    1
    17     4     5    1
    18    28    36    1
    19    30    33    1
    20    30    38    1
    21    31    34    1
    22    31    39    1
    23    32    35    1
    24    32    40    1
    25    41    43   ar
    26    15    19    2
    27    42    43   ar
    28    16    22    2
    29    17    12    1
    30    17    19   ar
    31    17    20   ar
    32    18    19   ar
    33    18    22   ar
    34    18    23    1
    35     9    10    1
    36     9    11    1
    37    10    12    1
    38    11     5    1
    39    33    34    1
    40    33    35    1
    41    34    36    1
    42    35    37    1
    43    37    43    1
    44    20    21   ar
    45    21    22   ar
@<TRIPOS>MOLECULE
*****
 43 45 0 0 0
SMALL
GASTEIGER

@<TRIPOS>ATOM
      1 P          17.5652   74.5546   -1.2274 P.3     1  UNL1        0.2189
      2 O          16.2286   74.3322   -0.3426 O.co2   1  UNL1       -0.4371
      3 O          17.4549   75.6112   -2.2873 O.2     1  UNL1       -0.5170
      4 O          17.9357   73.0694   -1.7517 O.3     1  UNL1       -0.3112
      5 C          17.5125   72.6845   -3.0467 C.3     1  UNL1        0.1811
      6 O          16.8993   70.7995   -4.4064 O.3     1  UNL1       -0.3308
      7 O          18.1649   69.0960   -2.2879 O.3     1  UNL1       -0.3794
      8 O          20.0885   69.1723   -4.2192 O.3     1  UNL1       -0.3779
      9 C          18.5581   70.3820   -2.7678 C.3     1  UNL1        0.1713
     10 C          19.1905   70.2592   -4.1379 C.3     1  UNL1        0.1895
     11 C          17.2951   71.1770   -3.0699 C.3     1  UNL1        0.1764
     12 C          17.9749   70.0815   -5.0316 C.3     1  UNL1        0.2383
     13 H          18.9552   68.5696   -2.0880 H       1  UNL1        0.2105
     14 H          20.8449   69.3333   -3.6327 H       1  UNL1        0.2106
     15 O          16.0838   69.9341   -7.1241 O.2     1  UNL1       -0.2464
     16 O          18.8810   72.1352  -10.0524 O.2     1  UNL1       -0.2670
     17 N          18.1830   70.6079   -6.3509 N.ar    1  UNL1       -0.2551
     18 N          17.4792   71.0296   -8.5809 N.ar    1  UNL1       -0.2743
     19 C          17.1689   70.4814   -7.3294 C.ar    1  UNL1        0.3323
     20 C          19.3792   71.2421   -6.6638 C.ar    1  UNL1        0.0869
     21 C          19.6604   71.7598   -7.8612 C.ar    1  UNL1        0.0795
     22 C          18.6547   71.6690   -8.9399 C.ar    1  UNL1        0.2626
     23 H          16.7894   70.9519   -9.2790 H       1  UNL1        0.1734
     24 O          18.6976   74.8382   -0.1092 O.3     1  UNL1       -0.2703
     25 P          20.2325   75.3251   -0.2527 P.3     1  UNL1        0.2208
     26 O          20.7722   75.3014    1.2732 O.co2   1  UNL1       -0.4371
     27 O          20.3972   76.6463   -0.9465 O.2     1  UNL1       -0.5170
     28 O          20.9872   74.0933   -0.9707 O.3     1  UNL1       -0.2858
     29 O          22.4874   72.7316    0.2559 O.3     1  UNL1       -0.3226
     30 O          23.5580   71.8648   -3.6391 O.3     1  UNL1       -0.3794
     31 O          22.9807   74.6145   -2.8389 O.3     1  UNL1       -0.3775
     32 O          21.9921   69.9611   -2.0980 O.3     1  UNL1       -0.3792
     33 C          22.6692   72.2224   -2.5807 C.3     1  UNL1        0.1718
     34 C          23.1396   73.5264   -1.9359 C.3     1  UNL1        0.1968
     35 C          22.6763   71.0880   -1.5536 C.3     1  UNL1        0.1723
     36 C          22.3520   73.8203   -0.6584 C.3     1  UNL1        0.2706
     37 C          21.9805   71.5029   -0.2604 C.3     1  UNL1        0.1830
     38 H          23.5699   72.5712   -4.3040 H       1  UNL1        0.2105
     39 H          23.4776   74.4346   -3.6520 H       1  UNL1        0.2106
     40 H          22.4249   69.6870   -2.9217 H       1  UNL1        0.2106
     41 O          21.7198   69.3238    0.5673 O.co2   1  UNL1       -0.5466
     42 O          22.9277   70.7815    1.8381 O.co2   1  UNL1       -0.5466
     43 C          22.2752   70.5314    0.8358 C.2     1  UNL1        0.0799
@<TRIPOS>UNITY_ATOM_ATTR
2 1
charge -1
26 1
charge -1
41 1
charge -1
@<TRIPOS>BOND
     1     1     4    1
     2     1    24    1
     3     1     2    1
     4     1     3    2
     5    25    28    1
     6    25    24    1
     7    25    26    1
     8    25    27    2
     9     6    11    1
    10     6    12    1
    11    29    36    1
    12    29    37    1
    13     7     9    1
    14     7    13    1
    15     8    10    1
    16     8    14    1
    17     4     5    1
    18    28    36    1
    19    30    33    1
    20    30    38    1
    21    31    34    1
    22    31    39    1
    23    32    35    1
    24    32    40    1
    25    41    43   ar
    26    15    19    2
    27    42    43   ar
    28    16    22    2
    29    17    12    1
    30    17    19   ar
    31    17    20   ar
    32    18    19   ar
    33    18    22   ar
    34    18    23    1
    35     9    10    1
    36     9    11    1
    37    10    12    1
    38    11     5    1
    39    33    34    1
    40    33    35    1
    41    34    36    1
    42    35    37    1
    43    37    43    1
    44    20    21   ar
    45    21    22   ar
