@<TRIPOS>MOLECULE
*****
 43 45 0 0 0
SMALL
GASTEIGER

@<TRIPOS>ATOM
      1 P          22.7158   71.4155   -2.5417 P.3     1  UNL1        0.2189
      2 O          22.2058   72.6531   -3.4504 O.co2   1  UNL1       -0.4371
      3 O          24.0518   70.8531   -2.9293 O.2     1  UNL1       -0.5170
      4 O          21.4785   70.3735   -2.5748 O.3     1  UNL1       -0.3112
      5 C          20.7248   70.2565   -3.7690 C.3     1  UNL1        0.1811
      6 O          18.8997   71.4975   -4.7191 O.3     1  UNL1       -0.3308
      7 O          17.2014   70.2887   -2.5637 O.3     1  UNL1       -0.3794
      8 O          16.5808   68.7615   -4.7360 O.3     1  UNL1       -0.3779
      9 C          18.2868   69.7113   -3.2873 C.3     1  UNL1        0.1713
     10 C          17.8556   69.3700   -4.6984 C.3     1  UNL1        0.1895
     11 C          19.3240   70.8015   -3.5266 C.3     1  UNL1        0.1764
     12 C          17.8735   70.7319   -5.3715 C.3     1  UNL1        0.2383
     13 H          16.5262   69.6113   -2.3987 H       1  UNL1        0.2105
     14 H          16.6212   67.8983   -4.2956 H       1  UNL1        0.2106
     15 O          15.9552   70.2630   -7.3910 O.2     1  UNL1       -0.2464
     16 O          19.1454   70.4226  -10.7134 O.2     1  UNL1       -0.2670
     17 N          18.1750   70.6465   -6.7726 N.ar    1  UNL1       -0.2551
     18 N          17.5452   70.3430   -9.0436 N.ar    1  UNL1       -0.2743
     19 C          17.1386   70.4068   -7.7047 C.ar    1  UNL1        0.3323
     20 C          19.4862   70.8000   -7.2099 C.ar    1  UNL1        0.0869
     21 C          19.8575   70.7351   -8.4901 C.ar    1  UNL1        0.0795
     22 C          18.8357   70.4878   -9.5278 C.ar    1  UNL1        0.2626
     23 H          16.8403   70.1765   -9.7108 H       1  UNL1        0.1734
     24 O          22.6472   72.0136   -1.0415 O.3     1  UNL1       -0.2703
     25 P          22.7616   71.2862    0.3975 P.3     1  UNL1        0.2208
     26 O          24.2407   70.6313    0.3657 O.co2   1  UNL1       -0.4371
     27 O          21.6578   70.3093    0.6827 O.2     1  UNL1       -0.5170
     28 O          22.8745   72.4966    1.4592 O.3     1  UNL1       -0.2858
     29 O          24.2384   72.7836    3.3759 O.3     1  UNL1       -0.3258
     30 O          20.7428   74.4608    4.7965 O.3     1  UNL1       -0.3794
     31 O          22.9696   76.1564    4.1526 O.3     1  UNL1       -0.3794
     32 O          20.6352   72.1131    3.1065 O.3     1  UNL1       -0.3775
     33 C          21.7276   74.1412    3.8099 C.3     1  UNL1        0.1715
     34 C          23.0639   74.7383    4.2552 C.3     1  UNL1        0.1694
     35 C          21.8328   72.6226    3.6833 C.3     1  UNL1        0.1967
     36 C          24.2196   74.2158    3.3912 C.3     1  UNL1        0.1761
     37 C          23.0432   72.2082    2.8447 C.3     1  UNL1        0.2704
     38 H          20.6707   75.4237    4.8814 H       1  UNL1        0.2105
     39 H          22.2358   76.4734    4.7025 H       1  UNL1        0.2105
     40 H          19.8764   72.3820    3.6467 H       1  UNL1        0.2106
     41 O          25.4833   74.8499    5.3173 O.3     1  UNL1       -0.3794
     42 C          25.5785   74.6742    3.9157 C.3     1  UNL1        0.1693
     43 H          26.3411   75.1413    5.6651 H       1  UNL1        0.2105
@<TRIPOS>UNITY_ATOM_ATTR
2 1
charge -1
26 1
charge -1
@<TRIPOS>BOND
     1    25    28    1
     2    25    24    1
     3    25    26    1
     4    25    27    2
     5     1     4    1
     6     1    24    1
     7     1     2    1
     8     1     3    2
     9     6    11    1
    10     6    12    1
    11    29    36    1
    12    29    37    1
    13     7     9    1
    14     7    13    1
    15     8    10    1
    16     8    14    1
    17    28    37    1
    18     4     5    1
    19    30    33    1
    20    30    38    1
    21    31    34    1
    22    31    39    1
    23    32    35    1
    24    32    40    1
    25    41    42    1
    26    41    43    1
    27    15    19    2
    28    16    22    2
    29    17    12    1
    30    17    19   ar
    31    17    20   ar
    32    18    19   ar
    33    18    22   ar
    34    18    23    1
    35     9    10    1
    36     9    11    1
    37    10    12    1
    38    11     5    1
    39    33    34    1
    40    33    35    1
    41    34    36    1
    42    35    37    1
    43    36    42    1
    44    20    21   ar
    45    21    22   ar
@<TRIPOS>MOLECULE
*****
 43 45 0 0 0
SMALL
GASTEIGER

@<TRIPOS>ATOM
      1 P          22.9141   71.4384   -2.3580 P.3     1  UNL1        0.2189
      2 O          22.5137   72.9082   -2.9027 O.co2   1  UNL1       -0.4371
      3 O          24.1780   70.8714   -2.9345 O.2     1  UNL1       -0.5170
      4 O          21.5770   70.5587   -2.5953 O.3     1  UNL1       -0.3112
      5 C          20.8937   70.6869   -3.8300 C.3     1  UNL1        0.1811
      6 O          18.9226   71.6969   -4.7619 O.3     1  UNL1       -0.3308
      7 O          17.4254   70.4183   -2.5003 O.3     1  UNL1       -0.3794
      8 O          16.8939   68.7445   -4.5866 O.3     1  UNL1       -0.3779
      9 C          18.5402   69.9218   -3.2393 C.3     1  UNL1        0.1713
     10 C          18.1010   69.4785   -4.6192 C.3     1  UNL1        0.1895
     11 C          19.4532   71.0989   -3.5589 C.3     1  UNL1        0.1764
     12 C          17.9590   70.8051   -5.3459 C.3     1  UNL1        0.2383
     13 H          16.8282   69.6845   -2.2843 H       1  UNL1        0.2105
     14 H          17.0359   67.9094   -4.1140 H       1  UNL1        0.2106
     15 O          16.0105   70.1642   -7.2876 O.2     1  UNL1       -0.2464
     16 O          19.0856   70.3894  -10.7132 O.2     1  UNL1       -0.2670
     17 N          18.2228   70.6900   -6.7525 N.ar    1  UNL1       -0.2551
     18 N          17.5432   70.2770   -8.9917 N.ar    1  UNL1       -0.2743
     19 C          17.1740   70.3627   -7.6433 C.ar    1  UNL1        0.3323
     20 C          19.5095   70.9011   -7.2359 C.ar    1  UNL1        0.0869
     21 C          19.8454   70.8144   -8.5246 C.ar    1  UNL1        0.0795
     22 C          18.8084   70.4767   -9.5210 C.ar    1  UNL1        0.2626
     23 H          16.8290   70.0498   -9.6306 H       1  UNL1        0.1734
     24 O          22.9370   71.6390   -0.7542 O.3     1  UNL1       -0.2703
     25 P          21.7337   71.8100    0.3116 P.3     1  UNL1        0.2208
     26 O          21.3211   70.2834    0.6534 O.co2   1  UNL1       -0.4371
     27 O          20.5986   72.6644   -0.1737 O.2     1  UNL1       -0.5170
     28 O          22.4502   72.3488    1.6537 O.3     1  UNL1       -0.2858
     29 O          21.1718   74.1530    2.5065 O.3     1  UNL1       -0.3258
     30 O          24.3330   74.2717    5.1605 O.3     1  UNL1       -0.3794
     31 O          21.7750   73.3106    6.0442 O.3     1  UNL1       -0.3794
     32 O          24.8139   73.6825    2.3675 O.3     1  UNL1       -0.3775
     33 C          23.3769   73.6464    4.3001 C.3     1  UNL1        0.1715
     34 C          21.9759   73.9917    4.8089 C.3     1  UNL1        0.1694
     35 C          23.5741   74.1628    2.8761 C.3     1  UNL1        0.1967
     36 C          20.9011   73.5831    3.7925 C.3     1  UNL1        0.1761
     37 C          22.4253   73.7409    1.9582 C.3     1  UNL1        0.2704
     38 H          24.2134   73.9478    6.0663 H       1  UNL1        0.2105
     39 H          22.4604   73.5770    6.6770 H       1  UNL1        0.2105
     40 H          25.5330   73.9563    2.9572 H       1  UNL1        0.2106
     41 O          19.4379   74.0547    5.6216 O.3     1  UNL1       -0.3794
     42 C          19.5108   74.0593    4.2077 C.3     1  UNL1        0.1693
     43 H          18.5585   74.3558    5.9004 H       1  UNL1        0.2105
@<TRIPOS>UNITY_ATOM_ATTR
2 1
charge -1
26 1
charge -1
@<TRIPOS>BOND
     1    25    28    1
     2    25    24    1
     3    25    26    1
     4    25    27    2
     5     1     4    1
     6     1    24    1
     7     1     2    1
     8     1     3    2
     9     6    11    1
    10     6    12    1
    11    29    36    1
    12    29    37    1
    13     7     9    1
    14     7    13    1
    15     8    10    1
    16     8    14    1
    17    28    37    1
    18     4     5    1
    19    30    33    1
    20    30    38    1
    21    31    34    1
    22    31    39    1
    23    32    35    1
    24    32    40    1
    25    41    42    1
    26    41    43    1
    27    15    19    2
    28    16    22    2
    29    17    12    1
    30    17    19   ar
    31    17    20   ar
    32    18    19   ar
    33    18    22   ar
    34    18    23    1
    35     9    10    1
    36     9    11    1
    37    10    12    1
    38    11     5    1
    39    33    34    1
    40    33    35    1
    41    34    36    1
    42    35    37    1
    43    36    42    1
    44    20    21   ar
    45    21    22   ar
@<TRIPOS>MOLECULE
*****
 43 45 0 0 0
SMALL
GASTEIGER

@<TRIPOS>ATOM
      1 P          22.6961   72.1535   -2.6406 P.3     1  UNL1        0.2189
      2 O          23.5727   73.4636   -3.0049 O.co2   1  UNL1       -0.4371
      3 O          23.3646   71.1814   -1.7135 O.2     1  UNL1       -0.5170
      4 O          22.2616   71.5635   -4.0831 O.3     1  UNL1       -0.3112
      5 C          21.5366   72.4018   -4.9659 C.3     1  UNL1        0.1811
      6 O          20.5170   70.4853   -5.9962 O.3     1  UNL1       -0.3308
      7 O          20.8083   71.9592   -8.5912 O.3     1  UNL1       -0.3794
      8 O          18.1799   72.3489   -7.9781 O.3     1  UNL1       -0.3779
      9 C          20.5095   72.4690   -7.2927 C.3     1  UNL1        0.1713
     10 C          19.0823   72.1345   -6.9121 C.3     1  UNL1        0.1895
     11 C          21.3073   71.6614   -6.2765 C.3     1  UNL1        0.1764
     12 C          19.1942   70.6692   -6.5266 C.3     1  UNL1        0.2383
     13 H          20.3105   72.4596   -9.2573 H       1  UNL1        0.2105
     14 H          18.1438   73.2956   -8.1859 H       1  UNL1        0.2106
     15 O          16.5807   69.7577   -7.0892 O.2     1  UNL1       -0.2464
     16 O          15.5988   69.2467   -2.6152 O.2     1  UNL1       -0.2670
     17 N          18.2346   70.2907   -5.5280 N.ar    1  UNL1       -0.2551
     18 N          16.0940   69.5039   -4.8610 N.ar    1  UNL1       -0.2743
     19 C          16.9488   69.8475   -5.9161 C.ar    1  UNL1        0.3323
     20 C          18.5723   70.3608   -4.1807 C.ar    1  UNL1        0.0869
     21 C          17.7451   70.0307   -3.1867 C.ar    1  UNL1        0.0795
     22 C          16.3828   69.5576   -3.5066 C.ar    1  UNL1        0.2626
     23 H          15.1928   69.1926   -5.1075 H       1  UNL1        0.1734
     24 O          21.3187   72.7834   -2.0758 O.3     1  UNL1       -0.2703
     25 P          20.3768   72.3393   -0.8394 P.3     1  UNL1        0.2208
     26 O          20.3861   70.7239   -0.9275 O.co2   1  UNL1       -0.4371
     27 O          19.0067   72.9527   -0.8584 O.2     1  UNL1       -0.5170
     28 O          21.2443   72.6807    0.4782 O.3     1  UNL1       -0.2858
     29 O          22.4948   70.9298    1.4717 O.3     1  UNL1       -0.3258
     30 O          22.3925   73.5567    4.6560 O.3     1  UNL1       -0.3794
     31 O          24.8438   73.1782    3.2082 O.3     1  UNL1       -0.3794
     32 O          20.0663   73.2518    2.9604 O.3     1  UNL1       -0.3775
     33 C          22.4530   73.1826    3.2769 C.3     1  UNL1        0.1715
     34 C          23.7067   72.3316    3.0654 C.3     1  UNL1        0.1694
     35 C          21.1977   72.3889    2.9195 C.3     1  UNL1        0.1967
     36 C          23.7017   71.6728    1.6793 C.3     1  UNL1        0.1761
     37 C          21.3163   71.7347    1.5418 C.3     1  UNL1        0.2704
     38 H          23.1865   74.0614    4.8892 H       1  UNL1        0.2105
     39 H          24.8347   73.5883    4.0874 H       1  UNL1        0.2105
     40 H          20.0021   73.6594    3.8376 H       1  UNL1        0.2106
     41 O          25.0622   70.0138    2.7309 O.3     1  UNL1       -0.3794
     42 C          24.8625   70.6957    1.5063 C.3     1  UNL1        0.1693
     43 H          25.7979   69.3882    2.6356 H       1  UNL1        0.2105
@<TRIPOS>UNITY_ATOM_ATTR
2 1
charge -1
26 1
charge -1
@<TRIPOS>BOND
     1    25    28    1
     2    25    24    1
     3    25    26    1
     4    25    27    2
     5     1     4    1
     6     1    24    1
     7     1     2    1
     8     1     3    2
     9     6    11    1
    10     6    12    1
    11    29    36    1
    12    29    37    1
    13     7     9    1
    14     7    13    1
    15     8    10    1
    16     8    14    1
    17    28    37    1
    18     4     5    1
    19    30    33    1
    20    30    38    1
    21    31    34    1
    22    31    39    1
    23    32    35    1
    24    32    40    1
    25    41    42    1
    26    41    43    1
    27    15    19    2
    28    16    22    2
    29    17    12    1
    30    17    19   ar
    31    17    20   ar
    32    18    19   ar
    33    18    22   ar
    34    18    23    1
    35     9    10    1
    36     9    11    1
    37    10    12    1
    38    11     5    1
    39    33    34    1
    40    33    35    1
    41    34    36    1
    42    35    37    1
    43    36    42    1
    44    20    21   ar
    45    21    22   ar
@<TRIPOS>MOLECULE
*****
 43 45 0 0 0
SMALL
GASTEIGER

@<TRIPOS>ATOM
      1 P          21.4940   72.3570   -4.7891 P.3     1  UNL1        0.2189
      2 O          21.2189   73.9427   -4.6230 O.co2   1  UNL1       -0.4371
      3 O          22.4464   71.9908   -5.8892 O.2     1  UNL1       -0.5170
      4 O          20.0128   71.7153   -4.8994 O.3     1  UNL1       -0.3112
      5 C          19.4240   71.1690   -3.7321 C.3     1  UNL1        0.1811
      6 O          17.5893   71.6931   -5.1925 O.3     1  UNL1       -0.3308
      7 O          15.8660   70.1726   -3.2665 O.3     1  UNL1       -0.3794
      8 O          16.2429   68.3700   -5.2778 O.3     1  UNL1       -0.3779
      9 C          17.2101   69.9167   -3.6705 C.3     1  UNL1        0.1713
     10 C          17.2385   69.3521   -5.0755 C.3     1  UNL1        0.1895
     11 C          17.9089   71.2583   -3.8527 C.3     1  UNL1        0.1764
     12 C          17.0133   70.5953   -5.9192 C.3     1  UNL1        0.2383
     13 H          15.3996   69.3304   -3.1436 H       1  UNL1        0.2105
     14 H          16.4304   67.5995   -4.7193 H       1  UNL1        0.2106
     15 O          15.6405   70.7427   -8.3833 O.2     1  UNL1       -0.2464
     16 O          19.5365   70.2377  -10.7931 O.2     1  UNL1       -0.2670
     17 N          17.6441   70.5057   -7.2059 N.ar    1  UNL1       -0.2551
     18 N          17.5816   70.4913   -9.5812 N.ar    1  UNL1       -0.2743
     19 C          16.8638   70.5905   -8.3825 C.ar    1  UNL1        0.3323
     20 C          19.0217   70.3360   -7.2919 C.ar    1  UNL1        0.0869
     21 C          19.6908   70.2419   -8.4429 C.ar    1  UNL1        0.0795
     22 C          18.9501   70.3209   -9.7184 C.ar    1  UNL1        0.2626
     23 H          17.0587   70.5473  -10.4139 H       1  UNL1        0.1734
     24 O          21.9725   71.9143   -3.3099 O.3     1  UNL1       -0.2703
     25 P          23.4298   71.9480   -2.6111 P.3     1  UNL1        0.2208
     26 O          24.0451   73.3607   -3.1043 O.co2   1  UNL1       -0.4371
     27 O          24.2887   70.7564   -2.9213 O.2     1  UNL1       -0.5170
     28 O          23.1249   72.1623   -1.0407 O.3     1  UNL1       -0.2858
     29 O          24.3134   71.0056    0.6523 O.3     1  UNL1       -0.3258
     30 O          20.8238   71.7916    2.7152 O.3     1  UNL1       -0.3794
     31 O          23.2168   73.2360    3.3747 O.3     1  UNL1       -0.3794
     32 O          20.7149   71.0842   -0.0896 O.3     1  UNL1       -0.3775
     33 C          21.8746   72.0592    1.7827 C.3     1  UNL1        0.1715
     34 C          23.2003   72.0769    2.5462 C.3     1  UNL1        0.1694
     35 C          21.8839   70.9676    0.7143 C.3     1  UNL1        0.1967
     36 C          24.3944   72.0919    1.5824 C.3     1  UNL1        0.1761
     37 C          23.1376   71.0426   -0.1590 C.3     1  UNL1        0.2704
     38 H          20.8120   72.4814    3.3961 H       1  UNL1        0.2105
     39 H          22.4574   73.2145    3.9782 H       1  UNL1        0.2105
     40 H          19.9282   71.0348    0.4748 H       1  UNL1        0.2106
     41 O          26.1170   70.5908    2.2813 O.3     1  UNL1       -0.3794
     42 C          25.7251   71.9507    2.3183 C.3     1  UNL1        0.1693
     43 H          26.9626   70.4859    2.7456 H       1  UNL1        0.2105
@<TRIPOS>UNITY_ATOM_ATTR
2 1
charge -1
26 1
charge -1
@<TRIPOS>BOND
     1    25    28    1
     2    25    24    1
     3    25    26    1
     4    25    27    2
     5     1     4    1
     6     1    24    1
     7     1     2    1
     8     1     3    2
     9     6    11    1
    10     6    12    1
    11    29    36    1
    12    29    37    1
    13     7     9    1
    14     7    13    1
    15     8    10    1
    16     8    14    1
    17    28    37    1
    18     4     5    1
    19    30    33    1
    20    30    38    1
    21    31    34    1
    22    31    39    1
    23    32    35    1
    24    32    40    1
    25    41    42    1
    26    41    43    1
    27    15    19    2
    28    16    22    2
    29    17    12    1
    30    17    19   ar
    31    17    20   ar
    32    18    19   ar
    33    18    22   ar
    34    18    23    1
    35     9    10    1
    36     9    11    1
    37    10    12    1
    38    11     5    1
    39    33    34    1
    40    33    35    1
    41    34    36    1
    42    35    37    1
    43    36    42    1
    44    20    21   ar
    45    21    22   ar
@<TRIPOS>MOLECULE
*****
 43 45 0 0 0
SMALL
GASTEIGER

@<TRIPOS>ATOM
      1 P          20.5578   72.0409   -1.7293 P.3     1  UNL1        0.2189
      2 O          20.2374   70.6908   -0.8974 O.co2   1  UNL1       -0.4371
      3 O          20.8122   73.2577   -0.8891 O.2     1  UNL1       -0.5170
      4 O          19.3285   72.1537   -2.7752 O.3     1  UNL1       -0.3112
      5 C          18.8888   70.9772   -3.4312 C.3     1  UNL1        0.1811
      6 O          17.1407   71.5659   -4.9712 O.3     1  UNL1       -0.3308
      7 O          15.3217   69.9240   -3.2431 O.3     1  UNL1       -0.3794
      8 O          15.8438   68.2408   -5.3242 O.3     1  UNL1       -0.3779
      9 C          16.6912   69.7034   -3.5766 C.3     1  UNL1        0.1713
     10 C          16.8128   69.2190   -5.0064 C.3     1  UNL1        0.1895
     11 C          17.3829   71.0594   -3.6403 C.3     1  UNL1        0.1764
     12 C          16.6242   70.5056   -5.7920 C.3     1  UNL1        0.2383
     13 H          14.8593   69.0720   -3.1963 H       1  UNL1        0.2105
     14 H          16.0064   67.4418   -4.7989 H       1  UNL1        0.2106
     15 O          15.4659   71.1269   -8.2921 O.2     1  UNL1       -0.2464
     16 O          19.4426   70.4275  -10.5143 O.2     1  UNL1       -0.2670
     17 N          17.3339   70.4941   -7.0401 N.ar    1  UNL1       -0.2551
     18 N          17.4470   70.7784   -9.3965 N.ar    1  UNL1       -0.2743
     19 C          16.6589   70.8210   -8.2393 C.ar    1  UNL1        0.3323
     20 C          18.6840   70.1619   -7.0666 C.ar    1  UNL1        0.0869
     21 C          19.4209   70.1247   -8.1787 C.ar    1  UNL1        0.0795
     22 C          18.7918   70.4528   -9.4743 C.ar    1  UNL1        0.2626
     23 H          16.9980   71.0020  -10.2440 H       1  UNL1        0.1734
     24 O          21.7966   71.6023   -2.6706 O.3     1  UNL1       -0.2703
     25 P          23.2831   72.2185   -2.8244 P.3     1  UNL1        0.2208
     26 O          24.2097   70.9071   -3.0225 O.co2   1  UNL1       -0.4371
     27 O          23.7016   73.1066   -1.6886 O.2     1  UNL1       -0.5170
     28 O          23.2799   72.9374   -4.2695 O.3     1  UNL1       -0.2858
     29 O          22.1860   74.8755   -5.0842 O.3     1  UNL1       -0.3258
     30 O          21.7533   72.4358   -8.3875 O.3     1  UNL1       -0.3794
     31 O          23.6079   74.6268   -8.4761 O.3     1  UNL1       -0.3794
     32 O          21.5084   71.3212   -5.7272 O.3     1  UNL1       -0.3775
     33 C          22.4167   72.9643   -7.2360 C.3     1  UNL1        0.1715
     34 C          22.6308   74.4638   -7.4519 C.3     1  UNL1        0.1694
     35 C          21.5495   72.7172   -6.0030 C.3     1  UNL1        0.1967
     36 C          23.0925   75.1493   -6.1589 C.3     1  UNL1        0.1761
     37 C          22.0683   73.4832   -4.7848 C.3     1  UNL1        0.2704
     38 H          22.2989   72.5891   -9.1738 H       1  UNL1        0.2105
     39 H          23.3044   74.1890   -9.2869 H       1  UNL1        0.2105
     40 H          21.1781   70.8475   -6.5058 H       1  UNL1        0.2106
     41 O          22.3562   77.0464   -7.4111 O.3     1  UNL1       -0.3794
     42 C          23.1605   76.6675   -6.3093 C.3     1  UNL1        0.1693
     43 H          22.3896   78.0102   -7.5187 H       1  UNL1        0.2105
@<TRIPOS>UNITY_ATOM_ATTR
2 1
charge -1
26 1
charge -1
@<TRIPOS>BOND
     1    25    28    1
     2    25    24    1
     3    25    26    1
     4    25    27    2
     5     1     4    1
     6     1    24    1
     7     1     2    1
     8     1     3    2
     9     6    11    1
    10     6    12    1
    11    29    36    1
    12    29    37    1
    13     7     9    1
    14     7    13    1
    15     8    10    1
    16     8    14    1
    17    28    37    1
    18     4     5    1
    19    30    33    1
    20    30    38    1
    21    31    34    1
    22    31    39    1
    23    32    35    1
    24    32    40    1
    25    41    42    1
    26    41    43    1
    27    15    19    2
    28    16    22    2
    29    17    12    1
    30    17    19   ar
    31    17    20   ar
    32    18    19   ar
    33    18    22   ar
    34    18    23    1
    35     9    10    1
    36     9    11    1
    37    10    12    1
    38    11     5    1
    39    33    34    1
    40    33    35    1
    41    34    36    1
    42    35    37    1
    43    36    42    1
    44    20    21   ar
    45    21    22   ar
@<TRIPOS>MOLECULE
*****
 43 45 0 0 0
SMALL
GASTEIGER

@<TRIPOS>ATOM
      1 P          20.4511   72.0127   -1.1748 P.3     1  UNL1        0.2189
      2 O          20.2221   70.4188   -1.0185 O.co2   1  UNL1       -0.4371
      3 O          19.4906   72.8697   -0.4037 O.2     1  UNL1       -0.5170
      4 O          20.4726   72.2469   -2.7756 O.3     1  UNL1       -0.3112
      5 C          19.8008   71.3143   -3.6044 C.3     1  UNL1        0.1811
      6 O          17.9839   72.1317   -4.9477 O.3     1  UNL1       -0.3308
      7 O          16.1665   70.9141   -2.8970 O.3     1  UNL1       -0.3794
      8 O          16.1100   69.0740   -4.9089 O.3     1  UNL1       -0.3779
      9 C          17.4211   70.4415   -3.3850 C.3     1  UNL1        0.1713
     10 C          17.2638   69.8798   -4.7826 C.3     1  UNL1        0.1895
     11 C          18.3160   71.6506   -3.6269 C.3     1  UNL1        0.1764
     12 C          17.1895   71.1431   -5.6233 C.3     1  UNL1        0.2383
     13 H          15.5779   70.1596   -2.7348 H       1  UNL1        0.2105
     14 H          16.2056   68.2831   -4.3555 H       1  UNL1        0.2106
     15 O          15.6751   70.2011   -7.8136 O.2     1  UNL1       -0.2464
     16 O          19.2947   70.4449  -10.6563 O.2     1  UNL1       -0.2670
     17 N          17.7108   70.9513   -6.9473 N.ar    1  UNL1       -0.2551
     18 N          17.4786   70.3235   -9.2273 N.ar    1  UNL1       -0.2743
     19 C          16.8665   70.4728   -7.9762 C.ar    1  UNL1        0.3323
     20 C          19.0452   71.2370   -7.2148 C.ar    1  UNL1        0.0869
     21 C          19.6139   71.0880   -8.4130 C.ar    1  UNL1        0.0795
     22 C          18.8010   70.5927   -9.5426 C.ar    1  UNL1        0.2626
     23 H          16.9098   69.9911   -9.9593 H       1  UNL1        0.1734
     24 O          22.0021   72.1995   -0.7595 O.3     1  UNL1       -0.2703
     25 P          22.8647   71.5495    0.4432 P.3     1  UNL1        0.2208
     26 O          23.9760   70.6661   -0.3326 O.co2   1  UNL1       -0.4371
     27 O          22.0477   70.7801    1.4404 O.2     1  UNL1       -0.5170
     28 O          23.6913   72.7869    1.0682 O.3     1  UNL1       -0.2858
     29 O          22.1708   73.8823    2.5190 O.3     1  UNL1       -0.3258
     30 O          25.4693   76.3046    3.0693 O.3     1  UNL1       -0.3794
     31 O          24.6647   74.5082    5.1605 O.3     1  UNL1       -0.3794
     32 O          24.8724   75.2535    0.4390 O.3     1  UNL1       -0.3775
     33 C          24.7821   75.0717    2.8390 C.3     1  UNL1        0.1715
     34 C          23.8550   74.8103    4.0277 C.3     1  UNL1        0.1694
     35 C          23.9785   75.1824    1.5446 C.3     1  UNL1        0.1967
     36 C          22.8921   73.6517    3.7349 C.3     1  UNL1        0.1761
     37 C          23.0171   74.0048    1.3742 C.3     1  UNL1        0.2704
     38 H          25.9819   76.2409    3.8895 H       1  UNL1        0.2105
     39 H          25.2684   75.2475    5.3344 H       1  UNL1        0.2105
     40 H          25.4755   76.0031    0.5586 H       1  UNL1        0.2106
     41 O          22.4417   72.7295    5.8926 O.3     1  UNL1       -0.3794
     42 C          21.8553   73.4760    4.8422 C.3     1  UNL1        0.1693
     43 H          21.7933   72.6101    6.6047 H       1  UNL1        0.2105
@<TRIPOS>UNITY_ATOM_ATTR
2 1
charge -1
26 1
charge -1
@<TRIPOS>BOND
     1    25    28    1
     2    25    24    1
     3    25    26    1
     4    25    27    2
     5     1     4    1
     6     1    24    1
     7     1     2    1
     8     1     3    2
     9     6    11    1
    10     6    12    1
    11    29    36    1
    12    29    37    1
    13     7     9    1
    14     7    13    1
    15     8    10    1
    16     8    14    1
    17    28    37    1
    18     4     5    1
    19    30    33    1
    20    30    38    1
    21    31    34    1
    22    31    39    1
    23    32    35    1
    24    32    40    1
    25    41    42    1
    26    41    43    1
    27    15    19    2
    28    16    22    2
    29    17    12    1
    30    17    19   ar
    31    17    20   ar
    32    18    19   ar
    33    18    22   ar
    34    18    23    1
    35     9    10    1
    36     9    11    1
    37    10    12    1
    38    11     5    1
    39    33    34    1
    40    33    35    1
    41    34    36    1
    42    35    37    1
    43    36    42    1
    44    20    21   ar
    45    21    22   ar
@<TRIPOS>MOLECULE
*****
 43 45 0 0 0
SMALL
GASTEIGER

@<TRIPOS>ATOM
      1 P          21.7273   73.2192   -4.8212 P.3     1  UNL1        0.2189
      2 O          21.6455   74.8185   -4.5912 O.co2   1  UNL1       -0.4371
      3 O          22.3821   72.7960   -6.1032 O.2     1  UNL1       -0.5170
      4 O          20.2031   72.7182   -4.6120 O.3     1  UNL1       -0.3112
      5 C          19.1667   73.6845   -4.6196 C.3     1  UNL1        0.1811
      6 O          17.2821   72.6576   -5.7002 O.3     1  UNL1       -0.3308
      7 O          16.7031   71.3719   -3.0540 O.3     1  UNL1       -0.3794
      8 O          17.9068   69.3573   -4.4429 O.3     1  UNL1       -0.3779
      9 C          17.9617   71.6589   -3.6614 C.3     1  UNL1        0.1713
     10 C          18.2344   70.6872   -4.7905 C.3     1  UNL1        0.1895
     11 C          17.8328   72.9825   -4.4050 C.3     1  UNL1        0.1764
     12 C          17.3519   71.2361   -5.8987 C.3     1  UNL1        0.2383
     13 H          16.7608   70.5310   -2.5728 H       1  UNL1        0.2105
     14 H          18.4957   69.0537   -3.7345 H       1  UNL1        0.2106
     15 O          15.7990   70.4927   -8.1378 O.2     1  UNL1       -0.2464
     16 O          19.5094   70.2518  -10.8611 O.2     1  UNL1       -0.2670
     17 N          17.8862   70.9734   -7.2052 N.ar    1  UNL1       -0.2551
     18 N          17.6478   70.3736   -9.4920 N.ar    1  UNL1       -0.2743
     19 C          17.0203   70.6058   -8.2614 C.ar    1  UNL1        0.3323
     20 C          19.2544   71.0814   -7.4289 C.ar    1  UNL1        0.0869
     21 C          19.8372   70.8552   -8.6081 C.ar    1  UNL1        0.0795
     22 C          19.0035   70.4667   -9.7639 C.ar    1  UNL1        0.2626
     23 H          17.0645   70.1159  -10.2424 H       1  UNL1        0.1734
     24 O          22.4683   72.6969   -3.4829 O.3     1  UNL1       -0.2703
     25 P          22.5954   71.2153   -2.8493 P.3     1  UNL1        0.2208
     26 O          24.1773   70.8966   -2.9650 O.co2   1  UNL1       -0.4371
     27 O          21.7084   70.1912   -3.4962 O.2     1  UNL1       -0.5170
     28 O          22.3359   71.4228   -1.2698 O.3     1  UNL1       -0.2858
     29 O          22.2862   73.4959   -0.1225 O.3     1  UNL1       -0.3258
     30 O          23.6716   71.0853    2.9304 O.3     1  UNL1       -0.3794
     31 O          20.9777   72.0768    3.0180 O.3     1  UNL1       -0.3794
     32 O          24.5858   70.6497    0.2186 O.3     1  UNL1       -0.3775
     33 C          22.9017   71.4019    1.7675 C.3     1  UNL1        0.1715
     34 C          21.9658   72.5619    2.1132 C.3     1  UNL1        0.1694
     35 C          23.8477   71.7938    0.6340 C.3     1  UNL1        0.1967
     36 C          21.3020   73.1327    0.8527 C.3     1  UNL1        0.1761
     37 C          23.0904   72.3953   -0.5513 C.3     1  UNL1        0.2704
     38 H          23.0769   70.8351    3.6538 H       1  UNL1        0.2105
     39 H          21.4100   71.7188    3.8092 H       1  UNL1        0.2105
     40 H          25.0609   70.2784    0.9777 H       1  UNL1        0.2106
     41 O          19.3066   74.0064    1.8345 O.3     1  UNL1       -0.3794
     42 C          20.4877   74.3889    1.1541 C.3     1  UNL1        0.1693
     43 H          18.7785   74.7959    2.0331 H       1  UNL1        0.2105
@<TRIPOS>UNITY_ATOM_ATTR
2 1
charge -1
26 1
charge -1
@<TRIPOS>BOND
     1    25    28    1
     2    25    24    1
     3    25    26    1
     4    25    27    2
     5     1     4    1
     6     1    24    1
     7     1     2    1
     8     1     3    2
     9     6    11    1
    10     6    12    1
    11    29    36    1
    12    29    37    1
    13     7     9    1
    14     7    13    1
    15     8    10    1
    16     8    14    1
    17    28    37    1
    18     4     5    1
    19    30    33    1
    20    30    38    1
    21    31    34    1
    22    31    39    1
    23    32    35    1
    24    32    40    1
    25    41    42    1
    26    41    43    1
    27    15    19    2
    28    16    22    2
    29    17    12    1
    30    17    19   ar
    31    17    20   ar
    32    18    19   ar
    33    18    22   ar
    34    18    23    1
    35     9    10    1
    36     9    11    1
    37    10    12    1
    38    11     5    1
    39    33    34    1
    40    33    35    1
    41    34    36    1
    42    35    37    1
    43    36    42    1
    44    20    21   ar
    45    21    22   ar
@<TRIPOS>MOLECULE
*****
 43 45 0 0 0
SMALL
GASTEIGER

@<TRIPOS>ATOM
      1 P          23.2068   71.5826   -1.9938 P.3     1  UNL1        0.2189
      2 O          23.3447   73.1804   -1.7806 O.co2   1  UNL1       -0.4371
      3 O          24.0892   71.0072   -3.0623 O.2     1  UNL1       -0.5170
      4 O          21.6179   71.3534   -2.1958 O.3     1  UNL1       -0.3112
      5 C          20.9866   71.9459   -3.3176 C.3     1  UNL1        0.1811
      6 O          21.2590   70.8360   -5.4313 O.3     1  UNL1       -0.3308
      7 O          23.2690   72.9649   -6.0782 O.3     1  UNL1       -0.3794
      8 O          21.0530   73.8110   -7.4236 O.3     1  UNL1       -0.3779
      9 C          22.0542   73.0663   -5.3369 C.3     1  UNL1        0.1713
     10 C          20.8629   73.0166   -6.2706 C.3     1  UNL1        0.1895
     11 C          21.8846   71.7813   -4.5361 C.3     1  UNL1        0.1764
     12 C          20.7746   71.5340   -6.5901 C.3     1  UNL1        0.2383
     13 H          23.3992   73.7744   -6.5975 H       1  UNL1        0.2105
     14 H          21.1028   74.7454   -7.1681 H       1  UNL1        0.2106
     15 O          20.0266   69.8791   -8.7534 O.2     1  UNL1       -0.2464
     16 O          15.5840   69.9774   -7.5306 O.2     1  UNL1       -0.2670
     17 N          19.4294   71.1112   -6.8607 N.ar    1  UNL1       -0.2551
     18 N          17.8152   69.9292   -8.1427 N.ar    1  UNL1       -0.2743
     19 C          19.1604   70.2810   -7.9737 C.ar    1  UNL1        0.3323
     20 C          18.3939   71.5191   -6.0269 C.ar    1  UNL1        0.0869
     21 C          17.1161   71.1759   -6.2025 C.ar    1  UNL1        0.0795
     22 C          16.7500   70.3102   -7.3421 C.ar    1  UNL1        0.2626
     23 H          17.6039   69.3516   -8.9118 H       1  UNL1        0.1734
     24 O          23.4733   70.9939   -0.5121 O.3     1  UNL1       -0.2703
     25 P          22.5661   71.0344    0.8252 P.3     1  UNL1        0.2208
     26 O          23.6157   70.6568    1.9971 O.co2   1  UNL1       -0.4371
     27 O          21.3528   70.1518    0.7727 O.2     1  UNL1       -0.5170
     28 O          22.2454   72.5995    1.0540 O.3     1  UNL1       -0.2858
     29 O          21.3309   72.6354    3.2402 O.3     1  UNL1       -0.3258
     30 O          21.3639   76.6925    2.4721 O.3     1  UNL1       -0.3794
     31 O          23.2548   75.5854    4.3287 O.3     1  UNL1       -0.3794
     32 O          20.6876   74.8290    0.3627 O.3     1  UNL1       -0.3775
     33 C          21.8520   75.3498    2.4058 C.3     1  UNL1        0.1715
     34 C          22.1279   74.8689    3.8317 C.3     1  UNL1        0.1694
     35 C          20.7997   74.4687    1.7353 C.3     1  UNL1        0.1967
     36 C          22.3982   73.3586    3.8644 C.3     1  UNL1        0.1761
     37 C          21.1396   72.9830    1.8674 C.3     1  UNL1        0.2704
     38 H          22.0276   77.2573    2.8964 H       1  UNL1        0.2105
     39 H          23.0713   76.5377    4.3022 H       1  UNL1        0.2105
     40 H          20.4719   75.7716    0.2926 H       1  UNL1        0.2106
     41 O          21.5877   73.5170    6.1065 O.3     1  UNL1       -0.3794
     42 C          22.5199   72.8301    5.2920 C.3     1  UNL1        0.1693
     43 H          21.6537   73.1907    7.0180 H       1  UNL1        0.2105
@<TRIPOS>UNITY_ATOM_ATTR
2 1
charge -1
26 1
charge -1
@<TRIPOS>BOND
     1    25    28    1
     2    25    24    1
     3    25    26    1
     4    25    27    2
     5     1     4    1
     6     1    24    1
     7     1     2    1
     8     1     3    2
     9     6    11    1
    10     6    12    1
    11    29    36    1
    12    29    37    1
    13     7     9    1
    14     7    13    1
    15     8    10    1
    16     8    14    1
    17    28    37    1
    18     4     5    1
    19    30    33    1
    20    30    38    1
    21    31    34    1
    22    31    39    1
    23    32    35    1
    24    32    40    1
    25    41    42    1
    26    41    43    1
    27    15    19    2
    28    16    22    2
    29    17    12    1
    30    17    19   ar
    31    17    20   ar
    32    18    19   ar
    33    18    22   ar
    34    18    23    1
    35     9    10    1
    36     9    11    1
    37    10    12    1
    38    11     5    1
    39    33    34    1
    40    33    35    1
    41    34    36    1
    42    35    37    1
    43    36    42    1
    44    20    21   ar
    45    21    22   ar
@<TRIPOS>MOLECULE
*****
 43 45 0 0 0
SMALL
GASTEIGER

@<TRIPOS>ATOM
      1 P          21.9513   71.6820   -2.0292 P.3     1  UNL1        0.2189
      2 O          23.4920   71.2292   -2.2264 O.co2   1  UNL1       -0.4371
      3 O          21.2202   70.9775   -0.9244 O.2     1  UNL1       -0.5170
      4 O          21.3092   71.5283   -3.5063 O.3     1  UNL1       -0.3112
      5 C          20.4085   70.4606   -3.7443 C.3     1  UNL1        0.1811
      6 O          18.6149   71.6264   -4.8387 O.3     1  UNL1       -0.3308
      7 O          16.8178   70.4315   -2.7570 O.3     1  UNL1       -0.3794
      8 O          16.3704   68.8302   -4.9185 O.3     1  UNL1       -0.3779
      9 C          17.9598   69.8639   -3.3964 C.3     1  UNL1        0.1713
     10 C          17.6249   69.4732   -4.8208 C.3     1  UNL1        0.1895
     11 C          18.9822   70.9744   -3.6032 C.3     1  UNL1        0.1764
     12 C          17.6502   70.8164   -5.5302 C.3     1  UNL1        0.2383
     13 H          16.1509   69.7411   -2.6140 H       1  UNL1        0.2105
     14 H          16.4052   67.9806   -4.4519 H       1  UNL1        0.2106
     15 O          15.8730   70.2375   -7.6478 O.2     1  UNL1       -0.2464
     16 O          19.2558   70.3972  -10.7738 O.2     1  UNL1       -0.2670
     17 N          18.0395   70.7013   -6.9073 N.ar    1  UNL1       -0.2551
     18 N          17.5588   70.3176   -9.2026 N.ar    1  UNL1       -0.2743
     19 C          17.0691   70.4065   -7.8932 C.ar    1  UNL1        0.3323
     20 C          19.3704   70.8803   -7.2686 C.ar    1  UNL1        0.0869
     21 C          19.8213   70.7909   -8.5215 C.ar    1  UNL1        0.0795
     22 C          18.8722   70.4860   -9.6116 C.ar    1  UNL1        0.2626
     23 H          16.9009   70.1128   -9.9062 H       1  UNL1        0.1734
     24 O          22.0639   73.2842   -1.8468 O.3     1  UNL1       -0.2703
     25 P          20.9583   74.4517   -2.0129 P.3     1  UNL1        0.2208
     26 O          21.6153   75.7002   -1.2209 O.co2   1  UNL1       -0.4371
     27 O          19.5855   74.0711   -1.5391 O.2     1  UNL1       -0.5170
     28 O          21.0366   74.8699   -3.5698 O.3     1  UNL1       -0.2858
     29 O          22.6745   74.2729   -5.1752 O.3     1  UNL1       -0.3258
     30 O          21.7777   78.0698   -6.5281 O.3     1  UNL1       -0.3794
     31 O          20.8815   75.7848   -8.0191 O.3     1  UNL1       -0.3794
     32 O          21.8929   77.5399   -3.6846 O.3     1  UNL1       -0.3775
     33 C          21.4982   76.7959   -5.9412 C.3     1  UNL1        0.1715
     34 C          21.8377   75.7112   -6.9653 C.3     1  UNL1        0.1694
     35 C          22.3459   76.6300   -4.6813 C.3     1  UNL1        0.1967
     36 C          21.8189   74.3176   -6.3231 C.3     1  UNL1        0.1761
     37 C          22.2961   75.1957   -4.1518 C.3     1  UNL1        0.2704
     38 H          21.2423   78.1817   -7.3283 H       1  UNL1        0.2105
     39 H          20.9032   76.6698   -8.4159 H       1  UNL1        0.2105
     40 H          21.9296   78.4442   -4.0319 H       1  UNL1        0.2106
     41 O          23.0751   72.2984   -6.5556 O.3     1  UNL1       -0.3794
     42 C          22.3074   73.2375   -7.2858 C.3     1  UNL1        0.1693
     43 H          23.3924   71.6048   -7.1556 H       1  UNL1        0.2105
@<TRIPOS>UNITY_ATOM_ATTR
2 1
charge -1
26 1
charge -1
@<TRIPOS>BOND
     1    25    28    1
     2    25    24    1
     3    25    26    1
     4    25    27    2
     5     1     4    1
     6     1    24    1
     7     1     2    1
     8     1     3    2
     9     6    11    1
    10     6    12    1
    11    29    36    1
    12    29    37    1
    13     7     9    1
    14     7    13    1
    15     8    10    1
    16     8    14    1
    17    28    37    1
    18     4     5    1
    19    30    33    1
    20    30    38    1
    21    31    34    1
    22    31    39    1
    23    32    35    1
    24    32    40    1
    25    41    42    1
    26    41    43    1
    27    15    19    2
    28    16    22    2
    29    17    12    1
    30    17    19   ar
    31    17    20   ar
    32    18    19   ar
    33    18    22   ar
    34    18    23    1
    35     9    10    1
    36     9    11    1
    37    10    12    1
    38    11     5    1
    39    33    34    1
    40    33    35    1
    41    34    36    1
    42    35    37    1
    43    36    42    1
    44    20    21   ar
    45    21    22   ar
@<TRIPOS>MOLECULE
*****
 43 45 0 0 0
SMALL
GASTEIGER

@<TRIPOS>ATOM
      1 P          21.8075   72.4276   -5.5815 P.3     1  UNL1        0.2189
      2 O          21.1453   73.8901   -5.3818 O.co2   1  UNL1       -0.4371
      3 O          23.1126   72.4185   -6.3218 O.2     1  UNL1       -0.5170
      4 O          20.6192   71.5501   -6.2418 O.3     1  UNL1       -0.3112
      5 C          20.1412   71.9159   -7.5246 C.3     1  UNL1        0.1811
      6 O          18.8852   69.9103   -7.1074 O.3     1  UNL1       -0.3308
      7 O          18.1069   70.0192  -10.0010 O.3     1  UNL1       -0.3794
      8 O          15.8960   71.0146   -8.7529 O.3     1  UNL1       -0.3779
      9 C          18.3042   71.0898   -9.0789 C.3     1  UNL1        0.1713
     10 C          17.1441   71.1684   -8.1085 C.3     1  UNL1        0.1895
     11 C          19.4609   70.7121   -8.1619 C.3     1  UNL1        0.1764
     12 C          17.4538   70.0277   -7.1541 C.3     1  UNL1        0.2383
     13 H          17.3731   70.2376  -10.5976 H       1  UNL1        0.2105
     14 H          15.7450   71.7647   -9.3490 H       1  UNL1        0.2106
     15 O          16.2992   68.0609   -5.4879 O.2     1  UNL1       -0.2464
     16 O          15.6032   71.0903   -2.0850 O.2     1  UNL1       -0.2670
     17 N          16.9627   70.2748   -5.8277 N.ar    1  UNL1       -0.2551
     18 N          15.9538   69.5708   -3.7948 N.ar    1  UNL1       -0.2743
     19 C          16.4002   69.2179   -5.0747 C.ar    1  UNL1        0.3323
     20 C          17.0419   71.5533   -5.2864 C.ar    1  UNL1        0.0869
     21 C          16.6104   71.8737   -4.0647 C.ar    1  UNL1        0.0795
     22 C          16.0093   70.8273   -3.2127 C.ar    1  UNL1        0.2626
     23 H          15.5578   68.8508   -3.2520 H       1  UNL1        0.1734
     24 O          21.8863   71.8550   -4.0719 O.3     1  UNL1       -0.2703
     25 P          23.0689   71.9209   -2.9720 P.3     1  UNL1        0.2208
     26 O          23.6314   73.4304   -3.1220 O.co2   1  UNL1       -0.4371
     27 O          24.1128   70.8529   -3.1260 O.2     1  UNL1       -0.5170
     28 O          22.3054   71.9098   -1.5500 O.3     1  UNL1       -0.2858
     29 O          23.9863   72.5011    0.0125 O.3     1  UNL1       -0.3258
     30 O          20.7760   72.1741    2.5889 O.3     1  UNL1       -0.3794
     31 O          21.8207   74.7713    1.9478 O.3     1  UNL1       -0.3794
     32 O          21.0590   70.3117    0.3910 O.3     1  UNL1       -0.3775
     33 C          21.4311   72.4867    1.3567 C.3     1  UNL1        0.1715
     34 C          22.4916   73.5539    1.6345 C.3     1  UNL1        0.1694
     35 C          22.0768   71.2195    0.7992 C.3     1  UNL1        0.1967
     36 C          23.4130   73.7480    0.4228 C.3     1  UNL1        0.1761
     37 C          23.0112   71.5298   -0.3716 C.3     1  UNL1        0.2704
     38 H          20.3635   72.9744    2.9480 H       1  UNL1        0.2105
     39 H          21.2419   74.6350    2.7143 H       1  UNL1        0.2105
     40 H          20.4744   70.1231    1.1410 H       1  UNL1        0.2106
     41 O          25.3446   74.1290    1.7765 O.3     1  UNL1       -0.3794
     42 C          24.5729   74.6920    0.7317 C.3     1  UNL1        0.1693
     43 H          26.0867   74.7189    1.9837 H       1  UNL1        0.2105
@<TRIPOS>UNITY_ATOM_ATTR
2 1
charge -1
26 1
charge -1
@<TRIPOS>BOND
     1    25    28    1
     2    25    24    1
     3    25    26    1
     4    25    27    2
     5     1     4    1
     6     1    24    1
     7     1     2    1
     8     1     3    2
     9     6    11    1
    10     6    12    1
    11    29    36    1
    12    29    37    1
    13     7     9    1
    14     7    13    1
    15     8    10    1
    16     8    14    1
    17    28    37    1
    18     4     5    1
    19    30    33    1
    20    30    38    1
    21    31    34    1
    22    31    39    1
    23    32    35    1
    24    32    40    1
    25    41    42    1
    26    41    43    1
    27    15    19    2
    28    16    22    2
    29    17    12    1
    30    17    19   ar
    31    17    20   ar
    32    18    19   ar
    33    18    22   ar
    34    18    23    1
    35     9    10    1
    36     9    11    1
    37    10    12    1
    38    11     5    1
    39    33    34    1
    40    33    35    1
    41    34    36    1
    42    35    37    1
    43    36    42    1
    44    20    21   ar
    45    21    22   ar
@<TRIPOS>MOLECULE
*****
 43 45 0 0 0
SMALL
GASTEIGER

@<TRIPOS>ATOM
      1 P          23.4495   72.7079   -3.1405 P.3     1  UNL1        0.2189
      2 O          23.6923   71.2189   -2.5562 O.co2   1  UNL1       -0.4371
      3 O          24.5871   73.2668   -3.9435 O.2     1  UNL1       -0.5170
      4 O          23.0168   73.5693   -1.8410 O.3     1  UNL1       -0.3112
      5 C          22.5645   74.8986   -2.0309 C.3     1  UNL1        0.1811
      6 O          21.3083   74.0384   -0.1720 O.3     1  UNL1       -0.3308
      7 O          20.6263   76.8920    0.4466 O.3     1  UNL1       -0.3794
      8 O          22.6105   76.3533    2.2381 O.3     1  UNL1       -0.3779
      9 C          21.8396   76.3455   -0.0678 C.3     1  UNL1        0.1713
     10 C          22.5974   75.6246    1.0275 C.3     1  UNL1        0.1895
     11 C          21.4778   75.2033   -1.0090 C.3     1  UNL1        0.1764
     12 C          21.8262   74.3204    1.1384 C.3     1  UNL1        0.2383
     13 H          20.8318   77.6236    1.0503 H       1  UNL1        0.2105
     14 H          23.1128   77.1740    2.1163 H       1  UNL1        0.2106
     15 O          20.8602   71.9432    2.3191 O.2     1  UNL1       -0.2464
     16 O          25.1061   70.1926    2.7047 O.2     1  UNL1       -0.2670
     17 N          22.6570   73.2267    1.5567 N.ar    1  UNL1       -0.2551
     18 N          22.9751   71.0734    2.5099 N.ar    1  UNL1       -0.2743
     19 C          22.0723   72.0784    2.1397 C.ar    1  UNL1        0.3323
     20 C          24.0354   73.2992    1.3871 C.ar    1  UNL1        0.0869
     21 C          24.8827   72.3327    1.7467 C.ar    1  UNL1        0.0795
     22 C          24.3530   71.0993    2.3632 C.ar    1  UNL1        0.2626
     23 H          22.5905   70.2642    2.9185 H       1  UNL1        0.1734
     24 O          22.0614   72.5569   -3.9549 O.3     1  UNL1       -0.2703
     25 P          21.6667   72.9732   -5.4661 P.3     1  UNL1        0.2208
     26 O          22.8032   72.2472   -6.3599 O.co2   1  UNL1       -0.4371
     27 O          21.5568   74.4540   -5.6877 O.2     1  UNL1       -0.5170
     28 O          20.3148   72.1482   -5.7772 O.3     1  UNL1       -0.2858
     29 O          19.3878   71.7713   -7.9255 O.3     1  UNL1       -0.3258
     30 O          15.9132   71.7487   -5.6945 O.3     1  UNL1       -0.3794
     31 O          16.9267   69.2841   -6.7652 O.3     1  UNL1       -0.3794
     32 O          18.0335   73.6098   -5.0461 O.3     1  UNL1       -0.3775
     33 C          17.2984   71.5023   -5.9512 C.3     1  UNL1        0.1715
     34 C          17.4036   70.5681   -7.1583 C.3     1  UNL1        0.1694
     35 C          17.9971   72.8303   -6.2367 C.3     1  UNL1        0.1967
     36 C          18.8510   70.4703   -7.6587 C.3     1  UNL1        0.1761
     37 C          19.4132   72.6191   -6.7756 C.3     1  UNL1        0.2704
     38 H          15.4638   70.9096   -5.5120 H       1  UNL1        0.2105
     39 H          16.0120   69.3599   -6.4509 H       1  UNL1        0.2105
     40 H          17.1311   73.7367   -4.7152 H       1  UNL1        0.2106
     41 O          17.8119   69.9430   -9.7446 O.3     1  UNL1       -0.3794
     42 C          18.9551   69.6703   -8.9553 C.3     1  UNL1        0.1693
     43 H          17.8647   69.4408  -10.5733 H       1  UNL1        0.2105
@<TRIPOS>UNITY_ATOM_ATTR
2 1
charge -1
26 1
charge -1
@<TRIPOS>BOND
     1    25    28    1
     2    25    24    1
     3    25    26    1
     4    25    27    2
     5     1     4    1
     6     1    24    1
     7     1     2    1
     8     1     3    2
     9     6    11    1
    10     6    12    1
    11    29    36    1
    12    29    37    1
    13     7     9    1
    14     7    13    1
    15     8    10    1
    16     8    14    1
    17    28    37    1
    18     4     5    1
    19    30    33    1
    20    30    38    1
    21    31    34    1
    22    31    39    1
    23    32    35    1
    24    32    40    1
    25    41    42    1
    26    41    43    1
    27    15    19    2
    28    16    22    2
    29    17    12    1
    30    17    19   ar
    31    17    20   ar
    32    18    19   ar
    33    18    22   ar
    34    18    23    1
    35     9    10    1
    36     9    11    1
    37    10    12    1
    38    11     5    1
    39    33    34    1
    40    33    35    1
    41    34    36    1
    42    35    37    1
    43    36    42    1
    44    20    21   ar
    45    21    22   ar
@<TRIPOS>MOLECULE
*****
 43 45 0 0 0
SMALL
GASTEIGER

@<TRIPOS>ATOM
      1 P          23.8140   73.3078   -3.6289 P.3     1  UNL1        0.2189
      2 O          24.2506   71.7513   -3.6921 O.co2   1  UNL1       -0.4371
      3 O          24.7485   74.2567   -4.3200 O.2     1  UNL1       -0.5170
      4 O          23.5751   73.5804   -2.0520 O.3     1  UNL1       -0.3112
      5 C          22.2610   73.4583   -1.5362 C.3     1  UNL1        0.1811
      6 O          23.2822   71.5743   -0.4493 O.3     1  UNL1       -0.3308
      7 O          20.4951   70.5781    0.0305 O.3     1  UNL1       -0.3794
      8 O          21.1686   71.6468    2.4472 O.3     1  UNL1       -0.3779
      9 C          20.9885   71.9167    0.0377 C.3     1  UNL1        0.1713
     10 C          21.7934   72.1737    1.2945 C.3     1  UNL1        0.1895
     11 C          22.0502   72.0313   -1.0490 C.3     1  UNL1        0.1764
     12 C          23.1075   71.4819    0.9740 C.3     1  UNL1        0.2383
     13 H          19.8152   70.4806    0.7162 H       1  UNL1        0.2105
     14 H          20.3372   72.1195    2.6091 H       1  UNL1        0.2106
     15 O          25.0755   70.0903    2.4465 O.2     1  UNL1       -0.2464
     16 O          27.3557   73.9752    3.4204 O.2     1  UNL1       -0.2670
     17 N          24.2268   72.1047    1.6226 N.ar    1  UNL1       -0.2551
     18 N          26.2094   72.0258    2.9301 N.ar    1  UNL1       -0.2743
     19 C          25.1574   71.3155    2.3377 C.ar    1  UNL1        0.3323
     20 C          24.3932   73.4832    1.5457 C.ar    1  UNL1        0.0869
     21 C          25.4011   74.1455    2.1173 C.ar    1  UNL1        0.0795
     22 C          26.4172   73.3952    2.8832 C.ar    1  UNL1        0.2626
     23 H          26.8698   71.4968    3.4338 H       1  UNL1        0.1734
     24 O          22.3119   73.2884   -4.2259 O.3     1  UNL1       -0.2703
     25 P          21.7759   73.2476   -5.7504 P.3     1  UNL1        0.2208
     26 O          22.8704   72.3246   -6.5039 O.co2   1  UNL1       -0.4371
     27 O          21.5760   74.6009   -6.3688 O.2     1  UNL1       -0.5170
     28 O          20.4453   72.3360   -5.6913 O.3     1  UNL1       -0.2858
     29 O          18.7046   72.3966   -7.2984 O.3     1  UNL1       -0.3258
     30 O          16.5202   71.2016   -4.0042 O.3     1  UNL1       -0.3794
     31 O          17.0730   69.3163   -6.0989 O.3     1  UNL1       -0.3794
     32 O          18.6408   73.1487   -3.7017 O.3     1  UNL1       -0.3775
     33 C          17.6712   71.2668   -4.8506 C.3     1  UNL1        0.1715
     34 C          17.2864   70.7193   -6.2264 C.3     1  UNL1        0.1694
     35 C          18.1293   72.7200   -4.9591 C.3     1  UNL1        0.1967
     36 C          18.3838   71.0010   -7.2615 C.3     1  UNL1        0.1761
     37 C          19.1862   72.8990   -6.0504 C.3     1  UNL1        0.2704
     38 H          16.2245   70.2815   -3.9307 H       1  UNL1        0.2105
     39 H          16.3782   69.1520   -5.4421 H       1  UNL1        0.2105
     40 H          17.9622   73.0306   -3.0195 H       1  UNL1        0.2106
     41 O          16.5403   70.6207   -8.7331 O.3     1  UNL1       -0.3794
     42 C          17.9546   70.6045   -8.6724 C.3     1  UNL1        0.1693
     43 H          16.2527   70.3706   -9.6256 H       1  UNL1        0.2105
@<TRIPOS>UNITY_ATOM_ATTR
2 1
charge -1
26 1
charge -1
@<TRIPOS>BOND
     1    25    28    1
     2    25    24    1
     3    25    26    1
     4    25    27    2
     5     1     4    1
     6     1    24    1
     7     1     2    1
     8     1     3    2
     9     6    11    1
    10     6    12    1
    11    29    36    1
    12    29    37    1
    13     7     9    1
    14     7    13    1
    15     8    10    1
    16     8    14    1
    17    28    37    1
    18     4     5    1
    19    30    33    1
    20    30    38    1
    21    31    34    1
    22    31    39    1
    23    32    35    1
    24    32    40    1
    25    41    42    1
    26    41    43    1
    27    15    19    2
    28    16    22    2
    29    17    12    1
    30    17    19   ar
    31    17    20   ar
    32    18    19   ar
    33    18    22   ar
    34    18    23    1
    35     9    10    1
    36     9    11    1
    37    10    12    1
    38    11     5    1
    39    33    34    1
    40    33    35    1
    41    34    36    1
    42    35    37    1
    43    36    42    1
    44    20    21   ar
    45    21    22   ar
@<TRIPOS>MOLECULE
*****
 43 45 0 0 0
SMALL
GASTEIGER

@<TRIPOS>ATOM
      1 P          21.8278   72.4390   -5.6237 P.3     1  UNL1        0.2189
      2 O          21.1543   73.8418   -5.1809 O.co2   1  UNL1       -0.4371
      3 O          23.0388   72.5663   -6.5004 O.2     1  UNL1       -0.5170
      4 O          20.5952   71.5957   -6.2462 O.3     1  UNL1       -0.3112
      5 C          20.0945   71.9693   -7.5180 C.3     1  UNL1        0.1811
      6 O          18.8629   69.9443   -7.1220 O.3     1  UNL1       -0.3308
      7 O          18.1125   70.0547  -10.0230 O.3     1  UNL1       -0.3794
      8 O          15.8752   71.0133   -8.7934 O.3     1  UNL1       -0.3779
      9 C          18.2852   71.1240   -9.0944 C.3     1  UNL1        0.1713
     10 C          17.1144   71.1820   -8.1356 C.3     1  UNL1        0.1895
     11 C          19.4378   70.7588   -8.1673 C.3     1  UNL1        0.1764
     12 C          17.4306   70.0417   -7.1828 C.3     1  UNL1        0.2383
     13 H          17.3818   70.2652  -10.6261 H       1  UNL1        0.2105
     14 H          15.7196   71.7637   -9.3878 H       1  UNL1        0.2106
     15 O          16.3336   68.0416   -5.5171 O.2     1  UNL1       -0.2464
     16 O          15.5113   71.0564   -2.1295 O.2     1  UNL1       -0.2670
     17 N          16.9226   70.2760   -5.8605 N.ar    1  UNL1       -0.2551
     18 N          15.9252   69.5444   -3.8316 N.ar    1  UNL1       -0.2743
     19 C          16.3919   69.2029   -5.1074 C.ar    1  UNL1        0.3323
     20 C          16.9540   71.5583   -5.3232 C.ar    1  UNL1        0.0869
     21 C          16.5039   71.8676   -4.1055 C.ar    1  UNL1        0.0795
     22 C          15.9336   70.8040   -3.2537 C.ar    1  UNL1        0.2626
     23 H          15.5508   68.8129   -3.2889 H       1  UNL1        0.1734
     24 O          22.0951   71.7020   -4.2101 O.3     1  UNL1       -0.2703
     25 P          23.2862   71.8752   -3.1311 P.3     1  UNL1        0.2208
     26 O          23.9442   73.2983   -3.5301 O.co2   1  UNL1       -0.4371
     27 O          24.2579   70.7312   -3.0982 O.2     1  UNL1       -0.5170
     28 O          22.5322   72.1528   -1.7313 O.3     1  UNL1       -0.2858
     29 O          22.3195   74.0111   -0.2759 O.3     1  UNL1       -0.3258
     30 O          23.0600   71.0644    2.5204 O.3     1  UNL1       -0.3794
     31 O          20.4202   72.1724    2.2932 O.3     1  UNL1       -0.3794
     32 O          24.4495   71.0274   -0.0188 O.3     1  UNL1       -0.3775
     33 C          22.5260   71.6072    1.3098 C.3     1  UNL1        0.1715
     34 C          21.5696   72.7442    1.6750 C.3     1  UNL1        0.1694
     35 C          23.6741   72.1268    0.4466 C.3     1  UNL1        0.1967
     36 C          21.1638   73.5475    0.4320 C.3     1  UNL1        0.1761
     37 C          23.1632   72.9532   -0.7350 C.3     1  UNL1        0.2704
     38 H          22.3362   70.7323    3.0729 H       1  UNL1        0.2105
     39 H          20.6903   71.6675    3.0764 H       1  UNL1        0.2105
     40 H          24.7673   70.5124    0.7386 H       1  UNL1        0.2106
     41 O          19.0177   74.3642    1.0926 O.3     1  UNL1       -0.3794
     42 C          20.3373   74.7801    0.7923 C.3     1  UNL1        0.1693
     43 H          18.4802   75.1382    1.3241 H       1  UNL1        0.2105
@<TRIPOS>UNITY_ATOM_ATTR
2 1
charge -1
26 1
charge -1
@<TRIPOS>BOND
     1    25    28    1
     2    25    24    1
     3    25    26    1
     4    25    27    2
     5     1     4    1
     6     1    24    1
     7     1     2    1
     8     1     3    2
     9     6    11    1
    10     6    12    1
    11    29    36    1
    12    29    37    1
    13     7     9    1
    14     7    13    1
    15     8    10    1
    16     8    14    1
    17    28    37    1
    18     4     5    1
    19    30    33    1
    20    30    38    1
    21    31    34    1
    22    31    39    1
    23    32    35    1
    24    32    40    1
    25    41    42    1
    26    41    43    1
    27    15    19    2
    28    16    22    2
    29    17    12    1
    30    17    19   ar
    31    17    20   ar
    32    18    19   ar
    33    18    22   ar
    34    18    23    1
    35     9    10    1
    36     9    11    1
    37    10    12    1
    38    11     5    1
    39    33    34    1
    40    33    35    1
    41    34    36    1
    42    35    37    1
    43    36    42    1
    44    20    21   ar
    45    21    22   ar
@<TRIPOS>MOLECULE
*****
 43 45 0 0 0
SMALL
GASTEIGER

@<TRIPOS>ATOM
      1 P          19.8509   72.4096   -3.0676 P.3     1  UNL1        0.2189
      2 O          18.9285   73.6856   -3.4394 O.co2   1  UNL1       -0.4371
      3 O          19.1665   71.0789   -3.1786 O.2     1  UNL1       -0.5170
      4 O          20.4471   72.7734   -1.6081 O.3     1  UNL1       -0.3112
      5 C          20.0396   73.9835   -0.9938 C.3     1  UNL1        0.1811
      6 O          20.1232   72.4903    0.8869 O.3     1  UNL1       -0.3308
      7 O          18.7426   74.6582    2.4313 O.3     1  UNL1       -0.3794
      8 O          21.3389   74.9268    3.2211 O.3     1  UNL1       -0.3779
      9 C          19.7287   74.7685    1.4063 C.3     1  UNL1        0.1713
     10 C          21.0904   74.3789    1.9425 C.3     1  UNL1        0.1895
     11 C          19.4649   73.6724    0.3814 C.3     1  UNL1        0.1764
     12 C          20.9985   72.8626    1.9639 C.3     1  UNL1        0.2383
     13 H          18.8904   75.3483    3.0975 H       1  UNL1        0.2105
     14 H          21.3887   75.8932    3.1548 H       1  UNL1        0.2106
     15 O          21.3471   70.2130    1.0495 O.2     1  UNL1       -0.2464
     16 O          25.9390   70.5549    1.2460 O.2     1  UNL1       -0.2670
     17 N          22.2741   72.2338    1.7667 N.ar    1  UNL1       -0.2551
     18 N          23.6332   70.3855    1.1479 N.ar    1  UNL1       -0.2743
     19 C          22.3393   70.8984    1.3051 C.ar    1  UNL1        0.3323
     20 C          23.4429   72.9398    2.0299 C.ar    1  UNL1        0.0869
     21 C          24.6691   72.4358    1.8762 C.ar    1  UNL1        0.0795
     22 C          24.8252   71.0471    1.3975 C.ar    1  UNL1        0.2626
     23 H          23.7033   69.4568    0.8277 H       1  UNL1        0.1734
     24 O          21.1307   72.5910   -4.0383 O.3     1  UNL1       -0.2703
     25 P          21.2301   73.0076   -5.5970 P.3     1  UNL1        0.2208
     26 O          22.5118   72.1721   -6.1233 O.co2   1  UNL1       -0.4371
     27 O          21.3158   74.4875   -5.8341 O.2     1  UNL1       -0.5170
     28 O          19.9625   72.2909   -6.2931 O.3     1  UNL1       -0.2858
     29 O          19.0994   70.0837   -6.2864 O.3     1  UNL1       -0.3258
     30 O          18.7049   70.9343  -10.3078 O.3     1  UNL1       -0.3794
     31 O          16.3648   70.8169   -8.6471 O.3     1  UNL1       -0.3794
     32 O          21.0274   71.8699   -8.8551 O.3     1  UNL1       -0.3775
     33 C          18.7066   71.2276   -8.9080 C.3     1  UNL1        0.1715
     34 C          17.6472   70.3536   -8.2336 C.3     1  UNL1        0.1694
     35 C          20.0919   70.9300   -8.3373 C.3     1  UNL1        0.1967
     36 C          17.7701   70.4144   -6.7051 C.3     1  UNL1        0.1761
     37 C          20.0930   70.9684   -6.8081 C.3     1  UNL1        0.2704
     38 H          17.8282   71.1215  -10.6764 H       1  UNL1        0.2105
     39 H          16.3004   70.7739   -9.6141 H       1  UNL1        0.2105
     40 H          21.0174   71.8357   -9.8239 H       1  UNL1        0.2106
     41 O          17.0691   69.4776   -4.6219 O.3     1  UNL1       -0.3794
     42 C          16.8276   69.4301   -6.0160 C.3     1  UNL1        0.1693
     43 H          16.4760   68.8563   -4.1702 H       1  UNL1        0.2105
@<TRIPOS>UNITY_ATOM_ATTR
2 1
charge -1
26 1
charge -1
@<TRIPOS>BOND
     1    25    28    1
     2    25    24    1
     3    25    26    1
     4    25    27    2
     5     1     4    1
     6     1    24    1
     7     1     2    1
     8     1     3    2
     9     6    11    1
    10     6    12    1
    11    29    36    1
    12    29    37    1
    13     7     9    1
    14     7    13    1
    15     8    10    1
    16     8    14    1
    17    28    37    1
    18     4     5    1
    19    30    33    1
    20    30    38    1
    21    31    34    1
    22    31    39    1
    23    32    35    1
    24    32    40    1
    25    41    42    1
    26    41    43    1
    27    15    19    2
    28    16    22    2
    29    17    12    1
    30    17    19   ar
    31    17    20   ar
    32    18    19   ar
    33    18    22   ar
    34    18    23    1
    35     9    10    1
    36     9    11    1
    37    10    12    1
    38    11     5    1
    39    33    34    1
    40    33    35    1
    41    34    36    1
    42    35    37    1
    43    36    42    1
    44    20    21   ar
    45    21    22   ar
@<TRIPOS>MOLECULE
*****
 43 45 0 0 0
SMALL
GASTEIGER

@<TRIPOS>ATOM
      1 P          23.5274   72.3546   -3.3874 P.3     1  UNL1        0.2189
      2 O          24.0562   70.8436   -3.1537 O.co2   1  UNL1       -0.4371
      3 O          24.5825   73.3388   -3.7992 O.2     1  UNL1       -0.5170
      4 O          22.7352   72.7046   -2.0207 O.3     1  UNL1       -0.3112
      5 C          23.4750   72.8001   -0.8159 C.3     1  UNL1        0.1811
      6 O          24.5546   71.2858    0.7056 O.3     1  UNL1       -0.3308
      7 O          21.8238   70.1660    1.2344 O.3     1  UNL1       -0.3794
      8 O          22.2359   71.7743    3.3978 O.3     1  UNL1       -0.3779
      9 C          22.2120   71.5152    0.9805 C.3     1  UNL1        0.1713
     10 C          22.9013   72.1014    2.1949 C.3     1  UNL1        0.1895
     11 C          23.3384   71.4941   -0.0453 C.3     1  UNL1        0.1764
     12 C          24.2841   71.4788    2.1036 C.3     1  UNL1        0.2383
     13 H          21.1051   70.1539    1.8865 H       1  UNL1        0.2105
     14 H          21.3614   72.1937    3.4082 H       1  UNL1        0.2106
     15 O          26.9878   70.7234    2.4154 O.2     1  UNL1       -0.2464
     16 O          28.1023   74.7947    4.2657 O.2     1  UNL1       -0.2670
     17 N          25.3024   72.3218    2.6636 N.ar    1  UNL1       -0.2551
     18 N          27.5406   72.7513    3.3363 N.ar    1  UNL1       -0.2743
     19 C          26.6296   71.8463    2.7767 C.ar    1  UNL1        0.3323
     20 C          24.9810   73.6048    3.0933 C.ar    1  UNL1        0.0869
     21 C          25.8611   74.4550    3.6260 C.ar    1  UNL1        0.0795
     22 C          27.2693   74.0361    3.7795 C.ar    1  UNL1        0.2626
     23 H          28.4712   72.4417    3.4253 H       1  UNL1        0.1734
     24 O          22.3336   72.1602   -4.4597 O.3     1  UNL1       -0.2703
     25 P          21.8963   73.0523   -5.7348 P.3     1  UNL1        0.2208
     26 O          22.9646   72.6235   -6.8716 O.co2   1  UNL1       -0.4371
     27 O          21.8397   74.5277   -5.4632 O.2     1  UNL1       -0.5170
     28 O          20.4996   72.4082   -6.2242 O.3     1  UNL1       -0.2858
     29 O          19.5249   70.2635   -5.9660 O.3     1  UNL1       -0.3258
     30 O          18.5135   70.9780   -9.9053 O.3     1  UNL1       -0.3794
     31 O          16.4808   71.0781   -7.8789 O.3     1  UNL1       -0.3794
     32 O          21.0957   71.8182   -8.9022 O.3     1  UNL1       -0.3775
     33 C          18.7658   71.3258   -8.5411 C.3     1  UNL1        0.1715
     34 C          17.7857   70.5496   -7.6592 C.3     1  UNL1        0.1694
     35 C          20.2076   70.9620   -8.1917 C.3     1  UNL1        0.1967
     36 C          18.1654   70.6626   -6.1766 C.3     1  UNL1        0.1761
     37 C          20.4663   71.0607   -6.6872 C.3     1  UNL1        0.2704
     38 H          17.5997   71.2069  -10.1337 H       1  UNL1        0.2105
     39 H          16.2535   71.0011   -8.8189 H       1  UNL1        0.2105
     40 H          20.9221   71.7464   -9.8533 H       1  UNL1        0.2106
     41 O          16.0539   70.4154   -5.0861 O.3     1  UNL1       -0.3794
     42 C          17.2965   69.7695   -5.2939 C.3     1  UNL1        0.1693
     43 H          15.4903   69.8582   -4.5261 H       1  UNL1        0.2105
@<TRIPOS>UNITY_ATOM_ATTR
2 1
charge -1
26 1
charge -1
@<TRIPOS>BOND
     1    25    28    1
     2    25    24    1
     3    25    26    1
     4    25    27    2
     5     1     4    1
     6     1    24    1
     7     1     2    1
     8     1     3    2
     9     6    11    1
    10     6    12    1
    11    29    36    1
    12    29    37    1
    13     7     9    1
    14     7    13    1
    15     8    10    1
    16     8    14    1
    17    28    37    1
    18     4     5    1
    19    30    33    1
    20    30    38    1
    21    31    34    1
    22    31    39    1
    23    32    35    1
    24    32    40    1
    25    41    42    1
    26    41    43    1
    27    15    19    2
    28    16    22    2
    29    17    12    1
    30    17    19   ar
    31    17    20   ar
    32    18    19   ar
    33    18    22   ar
    34    18    23    1
    35     9    10    1
    36     9    11    1
    37    10    12    1
    38    11     5    1
    39    33    34    1
    40    33    35    1
    41    34    36    1
    42    35    37    1
    43    36    42    1
    44    20    21   ar
    45    21    22   ar
@<TRIPOS>MOLECULE
*****
 43 45 0 0 0
SMALL
GASTEIGER

@<TRIPOS>ATOM
      1 P          21.1603   73.0562   -3.5494 P.3     1  UNL1        0.2189
      2 O          21.4588   74.4985   -4.2188 O.co2   1  UNL1       -0.4371
      3 O          22.2105   72.0133   -3.7966 O.2     1  UNL1       -0.5170
      4 O          19.6710   72.6895   -4.0647 O.3     1  UNL1       -0.3112
      5 C          19.0673   71.4970   -3.5943 C.3     1  UNL1        0.1811
      6 O          17.3273   71.9730   -5.1816 O.3     1  UNL1       -0.3308
      7 O          15.4841   70.5222   -3.3139 O.3     1  UNL1       -0.3794
      8 O          15.9770   68.6508   -5.2353 O.3     1  UNL1       -0.3779
      9 C          16.8495   70.2507   -3.6257 C.3     1  UNL1        0.1713
     10 C          16.9618   69.6380   -5.0061 C.3     1  UNL1        0.1895
     11 C          17.5627   71.5842   -3.8106 C.3     1  UNL1        0.1764
     12 C          16.7931   70.8517   -5.9042 C.3     1  UNL1        0.2383
     13 H          15.0081   69.6854   -3.1910 H       1  UNL1        0.2105
     14 H          16.1273   67.8997   -4.6403 H       1  UNL1        0.2106
     15 O          15.5540   70.6608   -8.4353 O.2     1  UNL1       -0.2464
     16 O          19.6099   70.3361  -10.5999 O.2     1  UNL1       -0.2670
     17 N          17.5012   70.7169   -7.1459 N.ar    1  UNL1       -0.2551
     18 N          17.5745   70.4995   -9.5110 N.ar    1  UNL1       -0.2743
     19 C          16.7841   70.6280   -8.3618 C.ar    1  UNL1        0.3323
     20 C          18.8912   70.6744   -7.1499 C.ar    1  UNL1        0.0869
     21 C          19.6301   70.5502   -8.2544 C.ar    1  UNL1        0.0795
     22 C          18.9585   70.4512   -9.5663 C.ar    1  UNL1        0.2626
     23 H          17.0967   70.4354  -10.3697 H       1  UNL1        0.1734
     24 O          20.9266   73.4197   -1.9918 O.3     1  UNL1       -0.2703
     25 P          20.1964   74.6818   -1.2943 P.3     1  UNL1        0.2208
     26 O          18.6239   74.3395   -1.4613 O.co2   1  UNL1       -0.4371
     27 O          20.6029   76.0143   -1.8538 O.2     1  UNL1       -0.5170
     28 O          20.4874   74.5018    0.2830 O.3     1  UNL1       -0.2858
     29 O          20.6673   72.2009    0.8220 O.3     1  UNL1       -0.3258
     30 O          20.7620   73.7812    4.6357 O.3     1  UNL1       -0.3794
     31 O          23.1639   72.7047    3.4869 O.3     1  UNL1       -0.3794
     32 O          19.0209   74.9410    2.6349 O.3     1  UNL1       -0.3775
     33 C          21.0284   73.7510    3.2309 C.3     1  UNL1        0.1715
     34 C          21.8678   72.5081    2.9286 C.3     1  UNL1        0.1694
     35 C          19.7033   73.7023    2.4725 C.3     1  UNL1        0.1967
     36 C          21.9687   72.2619    1.4172 C.3     1  UNL1        0.1761
     37 C          19.9134   73.4035    0.9870 C.3     1  UNL1        0.2704
     38 H          21.5993   73.8127    5.1230 H       1  UNL1        0.2105
     39 H          23.0861   72.8596    4.4414 H       1  UNL1        0.2105
     40 H          18.8938   75.1186    3.5795 H       1  UNL1        0.2106
     41 O          21.6862   69.9260    1.0013 O.3     1  UNL1       -0.3794
     42 C          22.6674   70.9420    1.0982 C.3     1  UNL1        0.1693
     43 H          22.1164   69.0802    0.7982 H       1  UNL1        0.2105
@<TRIPOS>UNITY_ATOM_ATTR
2 1
charge -1
26 1
charge -1
@<TRIPOS>BOND
     1    25    28    1
     2    25    24    1
     3    25    26    1
     4    25    27    2
     5     1     4    1
     6     1    24    1
     7     1     2    1
     8     1     3    2
     9     6    11    1
    10     6    12    1
    11    29    36    1
    12    29    37    1
    13     7     9    1
    14     7    13    1
    15     8    10    1
    16     8    14    1
    17    28    37    1
    18     4     5    1
    19    30    33    1
    20    30    38    1
    21    31    34    1
    22    31    39    1
    23    32    35    1
    24    32    40    1
    25    41    42    1
    26    41    43    1
    27    15    19    2
    28    16    22    2
    29    17    12    1
    30    17    19   ar
    31    17    20   ar
    32    18    19   ar
    33    18    22   ar
    34    18    23    1
    35     9    10    1
    36     9    11    1
    37    10    12    1
    38    11     5    1
    39    33    34    1
    40    33    35    1
    41    34    36    1
    42    35    37    1
    43    36    42    1
    44    20    21   ar
    45    21    22   ar
@<TRIPOS>MOLECULE
*****
 43 45 0 0 0
SMALL
GASTEIGER

@<TRIPOS>ATOM
      1 P          21.8597   72.5064   -5.6305 P.3     1  UNL1        0.2189
      2 O          21.0938   73.8945   -5.3085 O.co2   1  UNL1       -0.4371
      3 O          23.1254   72.6501   -6.4236 O.2     1  UNL1       -0.5170
      4 O          20.7152   71.5765   -6.2963 O.3     1  UNL1       -0.3112
      5 C          20.1433   71.9850   -7.5267 C.3     1  UNL1        0.1811
      6 O          18.9080   69.9603   -7.1415 O.3     1  UNL1       -0.3308
      7 O          18.1174   70.1144  -10.0297 O.3     1  UNL1       -0.3794
      8 O          15.9020   71.0658   -8.7555 O.3     1  UNL1       -0.3779
      9 C          18.3081   71.1698   -9.0890 C.3     1  UNL1        0.1713
     10 C          17.1512   71.2198   -8.1130 C.3     1  UNL1        0.1895
     11 C          19.4719   70.7866   -8.1834 C.3     1  UNL1        0.1764
     12 C          17.4754   70.0649   -7.1807 C.3     1  UNL1        0.2383
     13 H          17.3792   70.3366  -10.6195 H       1  UNL1        0.2105
     14 H          15.7417   71.8252   -9.3372 H       1  UNL1        0.2106
     15 O          16.2421   68.0843   -5.5888 O.2     1  UNL1       -0.2464
     16 O          15.6400   71.0160   -2.0840 O.2     1  UNL1       -0.2670
     17 N          16.9872   70.2831   -5.8482 N.ar    1  UNL1       -0.2551
     18 N          15.9435   69.5456   -3.8449 N.ar    1  UNL1       -0.2743
     19 C          16.3830   69.2217   -5.1349 C.ar    1  UNL1        0.3323
     20 C          17.1100   71.5381   -5.2620 C.ar    1  UNL1        0.0869
     21 C          16.6846   71.8310   -4.0314 C.ar    1  UNL1        0.0795
     22 C          16.0418   70.7781   -3.2188 C.ar    1  UNL1        0.2626
     23 H          15.5190   68.8220   -3.3292 H       1  UNL1        0.1734
     24 O          22.0544   71.8504   -4.1660 O.3     1  UNL1       -0.2703
     25 P          23.2626   71.9744   -3.0994 P.3     1  UNL1        0.2208
     26 O          23.9386   73.3973   -3.4681 O.co2   1  UNL1       -0.4371
     27 O          24.2156   70.8144   -3.1115 O.2     1  UNL1       -0.5170
     28 O          22.5322   72.2251   -1.6821 O.3     1  UNL1       -0.2858
     29 O          23.4089   70.7371   -0.0592 O.3     1  UNL1       -0.3258
     30 O          20.3509   72.4048    2.1584 O.3     1  UNL1       -0.3794
     31 O          23.0733   73.1080    2.7435 O.3     1  UNL1       -0.3794
     32 O          19.9517   71.8338   -0.6512 O.3     1  UNL1       -0.3775
     33 C          21.4016   72.3955    1.1882 C.3     1  UNL1        0.1715
     34 C          22.7053   72.0226    1.8968 C.3     1  UNL1        0.1694
     35 C          21.0689   71.3744    0.1019 C.3     1  UNL1        0.1967
     36 C          23.8220   71.7317    0.8851 C.3     1  UNL1        0.1761
     37 C          22.2627   71.1221   -0.8207 C.3     1  UNL1        0.2704
     38 H          20.5557   73.0515    2.8508 H       1  UNL1        0.2105
     39 H          22.3595   73.2817    3.3771 H       1  UNL1        0.2105
     40 H          19.2026   71.9895   -0.0559 H       1  UNL1        0.2106
     41 O          24.8028   69.9323    2.1135 O.3     1  UNL1       -0.3794
     42 C          25.0852   71.2057    1.5632 C.3     1  UNL1        0.1693
     43 H          25.5979   69.5849    2.5481 H       1  UNL1        0.2105
@<TRIPOS>UNITY_ATOM_ATTR
2 1
charge -1
26 1
charge -1
@<TRIPOS>BOND
     1    25    28    1
     2    25    24    1
     3    25    26    1
     4    25    27    2
     5     1     4    1
     6     1    24    1
     7     1     2    1
     8     1     3    2
     9     6    11    1
    10     6    12    1
    11    29    36    1
    12    29    37    1
    13     7     9    1
    14     7    13    1
    15     8    10    1
    16     8    14    1
    17    28    37    1
    18     4     5    1
    19    30    33    1
    20    30    38    1
    21    31    34    1
    22    31    39    1
    23    32    35    1
    24    32    40    1
    25    41    42    1
    26    41    43    1
    27    15    19    2
    28    16    22    2
    29    17    12    1
    30    17    19   ar
    31    17    20   ar
    32    18    19   ar
    33    18    22   ar
    34    18    23    1
    35     9    10    1
    36     9    11    1
    37    10    12    1
    38    11     5    1
    39    33    34    1
    40    33    35    1
    41    34    36    1
    42    35    37    1
    43    36    42    1
    44    20    21   ar
    45    21    22   ar
@<TRIPOS>MOLECULE
*****
 43 45 0 0 0
SMALL
GASTEIGER

@<TRIPOS>ATOM
      1 P          22.7384   71.3643   -2.3490 P.3     1  UNL1        0.2189
      2 O          24.1708   71.0089   -3.0118 O.co2   1  UNL1       -0.4371
      3 O          22.3460   72.8105   -2.4255 O.2     1  UNL1       -0.5170
      4 O          22.8343   70.7402   -0.8592 O.3     1  UNL1       -0.3112
      5 C          23.4068   71.5295    0.1689 C.3     1  UNL1        0.1811
      6 O          23.3837   71.4993    2.5715 O.3     1  UNL1       -0.3308
      7 O          20.4719   72.1846    2.3657 O.3     1  UNL1       -0.3794
      8 O          21.6097   74.5934    2.9485 O.3     1  UNL1       -0.3779
      9 C          21.5588   72.6089    1.5448 C.3     1  UNL1        0.1713
     10 C          22.3999   73.6349    2.2750 C.3     1  UNL1        0.1895
     11 C          22.5281   71.4412    1.4092 C.3     1  UNL1        0.1764
     12 C          23.2017   72.7646    3.2278 C.3     1  UNL1        0.2383
     13 H          19.8392   72.9137    2.4665 H       1  UNL1        0.2105
     14 H          21.1191   75.1218    2.2997 H       1  UNL1        0.2106
     15 O          23.6658   74.7370    5.1955 O.2     1  UNL1       -0.2464
     16 O          28.1840   74.8368    4.2918 O.2     1  UNL1       -0.2670
     17 N          24.4896   73.3237    3.5280 N.ar    1  UNL1       -0.2551
     18 N          25.9152   74.7850    4.7441 N.ar    1  UNL1       -0.2743
     19 C          24.6143   74.3098    4.5342 C.ar    1  UNL1        0.3323
     20 C          25.6119   72.8936    2.8284 C.ar    1  UNL1        0.0869
     21 C          26.8453   73.3577    3.0397 C.ar    1  UNL1        0.0795
     22 C          27.0621   74.3900    4.0738 C.ar    1  UNL1        0.2626
     23 H          26.0262   75.4728    5.4400 H       1  UNL1        0.1734
     24 O          21.7280   70.3523   -3.1025 O.3     1  UNL1       -0.2703
     25 P          20.2561   70.5910   -3.7266 P.3     1  UNL1        0.2208
     26 O          19.6602   69.0924   -3.8553 O.co2   1  UNL1       -0.4371
     27 O          20.2506   71.3718   -5.0088 O.2     1  UNL1       -0.5170
     28 O          19.4092   71.2650   -2.5293 O.3     1  UNL1       -0.2858
     29 O          17.7004   72.4485   -3.6677 O.3     1  UNL1       -0.3258
     30 O          16.6324   68.5949   -4.6975 O.3     1  UNL1       -0.3794
     31 O          17.8030   70.3182   -6.6744 O.3     1  UNL1       -0.3794
     32 O          17.6244   69.1562   -2.0365 O.3     1  UNL1       -0.3775
     33 C          17.5386   69.6580   -4.3907 C.3     1  UNL1        0.1715
     34 C          17.3279   70.7775   -5.4120 C.3     1  UNL1        0.1694
     35 C          17.2576   70.1609   -2.9760 C.3     1  UNL1        0.1967
     36 C          18.0691   72.0548   -4.9947 C.3     1  UNL1        0.1761
     37 C          18.0057   71.4620   -2.6800 C.3     1  UNL1        0.2704
     38 H          16.8059   68.2708   -5.5943 H       1  UNL1        0.2105
     39 H          17.3273   69.5110   -6.9261 H       1  UNL1        0.2105
     40 H          17.1439   68.3378   -2.2344 H       1  UNL1        0.2106
     41 O          18.4643   73.0654   -7.1234 O.3     1  UNL1       -0.3794
     42 C          17.7459   73.2301   -5.9147 C.3     1  UNL1        0.1693
     43 H          18.2681   73.8061   -7.7189 H       1  UNL1        0.2105
@<TRIPOS>UNITY_ATOM_ATTR
2 1
charge -1
26 1
charge -1
@<TRIPOS>BOND
     1    25    28    1
     2    25    24    1
     3    25    26    1
     4    25    27    2
     5     1     4    1
     6     1    24    1
     7     1     2    1
     8     1     3    2
     9     6    11    1
    10     6    12    1
    11    29    36    1
    12    29    37    1
    13     7     9    1
    14     7    13    1
    15     8    10    1
    16     8    14    1
    17    28    37    1
    18     4     5    1
    19    30    33    1
    20    30    38    1
    21    31    34    1
    22    31    39    1
    23    32    35    1
    24    32    40    1
    25    41    42    1
    26    41    43    1
    27    15    19    2
    28    16    22    2
    29    17    12    1
    30    17    19   ar
    31    17    20   ar
    32    18    19   ar
    33    18    22   ar
    34    18    23    1
    35     9    10    1
    36     9    11    1
    37    10    12    1
    38    11     5    1
    39    33    34    1
    40    33    35    1
    41    34    36    1
    42    35    37    1
    43    36    42    1
    44    20    21   ar
    45    21    22   ar
@<TRIPOS>MOLECULE
*****
 43 45 0 0 0
SMALL
GASTEIGER

@<TRIPOS>ATOM
      1 P          21.0766   72.6618   -2.6594 P.3     1  UNL1        0.2189
      2 O          21.6868   74.1023   -2.2469 O.co2   1  UNL1       -0.4371
      3 O          19.5789   72.6052   -2.7317 O.2     1  UNL1       -0.5170
      4 O          21.7692   71.6342   -1.6191 O.3     1  UNL1       -0.3112
      5 C          21.9985   72.0695   -0.2903 C.3     1  UNL1        0.1811
      6 O          23.7728   73.0573    0.9942 O.3     1  UNL1       -0.3308
      7 O          25.3974   70.6483    0.2539 O.3     1  UNL1       -0.3794
      8 O          24.6078   70.0732    2.7999 O.3     1  UNL1       -0.3779
      9 C          24.0034   70.7426    0.5420 C.3     1  UNL1        0.1713
     10 C          23.7851   70.9255    2.0295 C.3     1  UNL1        0.1895
     11 C          23.4967   72.0654   -0.0189 C.3     1  UNL1        0.1764
     12 C          24.1245   72.3941    2.2195 C.3     1  UNL1        0.2383
     13 H          25.7436   69.8112    0.6022 H       1  UNL1        0.2105
     14 H          24.3529   69.1504    2.6445 H       1  UNL1        0.2106
     15 O          21.4025   71.8826    2.7735 O.2     1  UNL1       -0.2464
     16 O          21.4124   74.7403    6.3895 O.2     1  UNL1       -0.2670
     17 N          23.3907   72.9906    3.2998 N.ar    1  UNL1       -0.2551
     18 N          21.4097   73.3058    4.5737 N.ar    1  UNL1       -0.2743
     19 C          22.0271   72.6672    3.4906 C.ar    1  UNL1        0.3323
     20 C          24.0230   73.8850    4.1565 C.ar    1  UNL1        0.0869
     21 C          23.4198   74.4864    5.1840 C.ar    1  UNL1        0.0795
     22 C          21.9952   74.2032    5.4526 C.ar    1  UNL1        0.2626
     23 H          20.4596   73.0961    4.7257 H       1  UNL1        0.1734
     24 O          21.8301   72.3329   -4.0511 O.3     1  UNL1       -0.2703
     25 P          21.6948   73.0032   -5.5158 P.3     1  UNL1        0.2208
     26 O          22.8818   72.2969   -6.3582 O.co2   1  UNL1       -0.4371
     27 O          21.7456   74.5036   -5.5130 O.2     1  UNL1       -0.5170
     28 O          20.3362   72.3811   -6.1258 O.3     1  UNL1       -0.2858
     29 O          19.6540   70.2116   -5.4592 O.3     1  UNL1       -0.3258
     30 O          17.5146   70.5240   -8.9772 O.3     1  UNL1       -0.3794
     31 O          16.1370   70.6747   -6.4617 O.3     1  UNL1       -0.3794
     32 O          20.1969   71.6009   -8.8178 O.3     1  UNL1       -0.3775
     33 C          18.1129   71.0019   -7.7692 C.3     1  UNL1        0.1715
     34 C          17.4895   70.2464   -6.5939 C.3     1  UNL1        0.1694
     35 C          19.6195   70.7568   -7.8275 C.3     1  UNL1        0.1967
     36 C          18.2625   70.5087   -5.2943 C.3     1  UNL1        0.1761
     37 C          20.2841   70.9993   -6.4712 C.3     1  UNL1        0.2704
     38 H          16.5580   70.6771   -8.9468 H       1  UNL1        0.2105
     39 H          15.6602   70.5040   -7.2892 H       1  UNL1        0.2105
     40 H          19.7679   71.4376   -9.6718 H       1  UNL1        0.2106
     41 O          16.9664   68.5978   -4.6797 O.3     1  UNL1       -0.3794
     42 C          17.7551   69.6437   -4.1426 C.3     1  UNL1        0.1693
     43 H          16.6369   68.0389   -3.9581 H       1  UNL1        0.2105
@<TRIPOS>UNITY_ATOM_ATTR
2 1
charge -1
26 1
charge -1
@<TRIPOS>BOND
     1    25    28    1
     2    25    24    1
     3    25    26    1
     4    25    27    2
     5     1     4    1
     6     1    24    1
     7     1     2    1
     8     1     3    2
     9     6    11    1
    10     6    12    1
    11    29    36    1
    12    29    37    1
    13     7     9    1
    14     7    13    1
    15     8    10    1
    16     8    14    1
    17    28    37    1
    18     4     5    1
    19    30    33    1
    20    30    38    1
    21    31    34    1
    22    31    39    1
    23    32    35    1
    24    32    40    1
    25    41    42    1
    26    41    43    1
    27    15    19    2
    28    16    22    2
    29    17    12    1
    30    17    19   ar
    31    17    20   ar
    32    18    19   ar
    33    18    22   ar
    34    18    23    1
    35     9    10    1
    36     9    11    1
    37    10    12    1
    38    11     5    1
    39    33    34    1
    40    33    35    1
    41    34    36    1
    42    35    37    1
    43    36    42    1
    44    20    21   ar
    45    21    22   ar
@<TRIPOS>MOLECULE
*****
 43 45 0 0 0
SMALL
GASTEIGER

@<TRIPOS>ATOM
      1 P          23.6796   72.4318   -3.2121 P.3     1  UNL1        0.2189
      2 O          24.2047   70.9073   -3.0790 O.co2   1  UNL1       -0.4371
      3 O          24.6726   73.3958   -3.7918 O.2     1  UNL1       -0.5170
      4 O          23.1387   72.7872   -1.7292 O.3     1  UNL1       -0.3112
      5 C          22.0783   73.7183   -1.6014 C.3     1  UNL1        0.1811
      6 O          21.0017   72.2638   -0.0205 O.3     1  UNL1       -0.3308
      7 O          18.4161   73.1305   -1.2673 O.3     1  UNL1       -0.3794
      8 O          18.5135   74.6343    1.0055 O.3     1  UNL1       -0.3779
      9 C          19.6036   73.8862   -1.0349 C.3     1  UNL1        0.1713
     10 C          19.7376   74.2156    0.4372 C.3     1  UNL1        0.1895
     11 C          20.7971   72.9675   -1.2652 C.3     1  UNL1        0.1764
     12 C          20.2283   72.8975    1.0116 C.3     1  UNL1        0.2383
     13 H          17.6403   73.6963   -1.1266 H       1  UNL1        0.2105
     14 H          18.2436   75.4767    0.6077 H       1  UNL1        0.2106
     15 O          21.9887   70.9414    2.0375 O.2     1  UNL1       -0.2464
     16 O          23.3568   73.7055    5.4623 O.2     1  UNL1       -0.2670
     17 N          21.0568   73.0794    2.1700 N.ar    1  UNL1       -0.2551
     18 N          22.6686   72.3194    3.7419 N.ar    1  UNL1       -0.2743
     19 C          21.9051   72.0337    2.6028 C.ar    1  UNL1        0.3323
     20 C          21.0234   74.2842    2.8636 C.ar    1  UNL1        0.0869
     21 C          21.7568   74.5404    3.9488 C.ar    1  UNL1        0.0795
     22 C          22.6694   73.5006    4.4666 C.ar    1  UNL1        0.2626
     23 H          23.2667   71.6055    4.0620 H       1  UNL1        0.1734
     24 O          22.3173   72.2736   -4.0676 O.3     1  UNL1       -0.2703
     25 P          21.8970   72.8625   -5.5131 P.3     1  UNL1        0.2208
     26 O          23.0847   72.3471   -6.4833 O.co2   1  UNL1       -0.4371
     27 O          21.6816   74.3482   -5.5333 O.2     1  UNL1       -0.5170
     28 O          20.6085   71.9938   -5.9492 O.3     1  UNL1       -0.2858
     29 O          19.4762   71.7113   -8.0119 O.3     1  UNL1       -0.3258
     30 O          16.2125   71.9232   -5.4912 O.3     1  UNL1       -0.3794
     31 O          16.9425   69.4020   -6.6568 O.3     1  UNL1       -0.3794
     32 O          18.5145   73.6134   -5.0181 O.3     1  UNL1       -0.3775
     33 C          17.5482   71.5769   -5.8670 C.3     1  UNL1        0.1715
     34 C          17.4795   70.6511   -7.0831 C.3     1  UNL1        0.1694
     35 C          18.3182   72.8522   -6.2049 C.3     1  UNL1        0.1967
     36 C          18.8676   70.4512   -7.7063 C.3     1  UNL1        0.1761
     37 C          19.6632   72.5419   -6.8643 C.3     1  UNL1        0.2704
     38 H          15.7183   71.1179   -5.2748 H       1  UNL1        0.2105
     39 H          16.0663   69.5423   -6.2648 H       1  UNL1        0.2105
     40 H          17.6557   73.8035   -4.6104 H       1  UNL1        0.2106
     41 O          17.6475   70.0677   -9.7245 O.3     1  UNL1       -0.3794
     42 C          18.8003   69.6602   -9.0108 C.3     1  UNL1        0.1693
     43 H          17.5918   69.5728  -10.5573 H       1  UNL1        0.2105
@<TRIPOS>UNITY_ATOM_ATTR
2 1
charge -1
26 1
charge -1
@<TRIPOS>BOND
     1    25    28    1
     2    25    24    1
     3    25    26    1
     4    25    27    2
     5     1     4    1
     6     1    24    1
     7     1     2    1
     8     1     3    2
     9     6    11    1
    10     6    12    1
    11    29    36    1
    12    29    37    1
    13     7     9    1
    14     7    13    1
    15     8    10    1
    16     8    14    1
    17    28    37    1
    18     4     5    1
    19    30    33    1
    20    30    38    1
    21    31    34    1
    22    31    39    1
    23    32    35    1
    24    32    40    1
    25    41    42    1
    26    41    43    1
    27    15    19    2
    28    16    22    2
    29    17    12    1
    30    17    19   ar
    31    17    20   ar
    32    18    19   ar
    33    18    22   ar
    34    18    23    1
    35     9    10    1
    36     9    11    1
    37    10    12    1
    38    11     5    1
    39    33    34    1
    40    33    35    1
    41    34    36    1
    42    35    37    1
    43    36    42    1
    44    20    21   ar
    45    21    22   ar
