@<TRIPOS>MOLECULE
UDP-glaA
 43 45 0 0 0
SMALL
GASTEIGER

@<TRIPOS>ATOM
      1 P          21.5213   74.0741   -5.3125 P.3     1  UNL1        0.2189
      2 O          20.0761   74.3082   -4.6239 O.3     1  UNL1       -0.4371
      3 O          22.4875   75.2120   -5.1590 O.2     1  UNL1       -0.5170
      4 O          21.1649   73.6548   -6.8333 O.3     1  UNL1       -0.3112
      5 C          20.0298   74.2394   -7.4489 C.3     1  UNL1        0.1811
      6 O          19.6056   71.9605   -8.0824 O.3     1  UNL1       -0.3308
      7 O          17.8966   73.0845  -10.2749 O.3     1  UNL1       -0.3794
      8 O          16.0549   72.3375   -8.4079 O.3     1  UNL1       -0.3779
      9 C          18.0862   73.5616   -8.9429 C.3     1  UNL1        0.1713
     10 C          17.3504   72.6770   -7.9586 C.3     1  UNL1        0.1895
     11 C          19.5409   73.3222   -8.5609 C.3     1  UNL1        0.1764
     12 C          18.2713   71.4721   -7.8673 C.3     1  UNL1        0.2383
     13 H          18.4163   73.6571  -10.8645 H       1  UNL1        0.2105
     14 H          15.5659   73.1671   -8.5451 H       1  UNL1        0.2106
     15 O          16.1007   69.9037   -6.9705 O.2     1  UNL1       -0.2464
     16 O          18.1432   69.0618   -2.9260 O.2     1  UNL1       -0.2670
     17 N          18.2095   70.8309   -6.5850 N.ar    1  UNL1       -0.2551
     18 N          17.1190   69.4859   -4.9569 N.ar    1  UNL1       -0.2743
     19 C          17.0734   70.0661   -6.2315 C.ar    1  UNL1        0.3323
     20 C          19.2673   70.9631   -5.6922 C.ar    1  UNL1        0.0869
     21 C          19.2960   70.4034   -4.4808 C.ar    1  UNL1        0.0795
     22 C          18.1482   69.5893   -4.0340 C.ar    1  UNL1        0.2626
     23 H          16.3126   68.9320   -4.6811 H       1  UNL1        0.1734
     24 O          22.0132   72.6798   -4.6573 O.3     1  UNL1       -0.2703
     25 P          23.1127   72.3761   -3.5122 P.3     1  UNL1        0.2208
     26 O          24.4031   73.2181   -4.0041 O.3     1  UNL1       -0.4371
     27 O          23.3761   70.9153   -3.2831 O.2     1  UNL1       -0.5170
     28 O          22.5789   73.1691   -2.2121 O.3     1  UNL1       -0.2858
     29 O          21.5654   71.4941   -0.8831 O.3     1  UNL1       -0.3226
     30 O          21.2991   74.8358    1.5749 O.3     1  UNL1       -0.3794
     31 O          20.7897   75.0580   -1.2882 O.3     1  UNL1       -0.3775
     32 O          20.8290   72.1247    1.8185 O.3     1  UNL1       -0.3792
     33 C          21.8419   73.9486    0.6009 C.3     1  UNL1        0.1718
     34 C          20.8906   73.8194   -0.5935 C.3     1  UNL1        0.1968
     35 C          22.0607   72.5778    1.2470 C.3     1  UNL1        0.1723
     36 C          21.3820   72.7392   -1.5650 C.3     1  UNL1        0.2706
     37 C          22.5077   71.5754    0.1851 C.3     1  UNL1        0.1830
     38 H          21.9317   74.8851    2.3117 H       1  UNL1        0.2105
     39 H          20.1866   74.9252   -2.0388 H       1  UNL1        0.2106
     40 H          20.2369   71.8497    1.0981 H       1  UNL1        0.2106
     41 O          21.5134   69.4638    0.4220 O.co2   1  UNL1       -0.5466
     42 O          23.5479   69.7694    1.4041 O.co2   1  UNL1       -0.5466
     43 C          22.6087   70.1926    0.7459 C.2     1  UNL1        0.0799
@<TRIPOS>UNITY_ATOM_ATTR
41 1
charge -1
@<TRIPOS>BOND
     1     1     4    1
     2     1    24    1
     3     1     2    1
     4     1     3    2
     5    25    28    1
     6    25    24    1
     7    25    26    1
     8    25    27    2
     9     6    11    1
    10     6    12    1
    11    29    36    1
    12    29    37    1
    13     7     9    1
    14     7    13    1
    15     8    10    1
    16     8    14    1
    17     4     5    1
    18    28    36    1
    19    30    33    1
    20    30    38    1
    21    31    34    1
    22    31    39    1
    23    32    35    1
    24    32    40    1
    25    41    43   ar
    26    15    19    2
    27    42    43   ar
    28    16    22    2
    29    17    12    1
    30    17    19   ar
    31    17    20   ar
    32    18    19   ar
    33    18    22   ar
    34    18    23    1
    35     9    10    1
    36     9    11    1
    37    10    12    1
    38    11     5    1
    39    33    34    1
    40    33    35    1
    41    34    36    1
    42    35    37    1
    43    37    43    1
    44    20    21   ar
    45    21    22   ar
@<TRIPOS>MOLECULE
UDP-glaA
 43 45 0 0 0
SMALL
GASTEIGER

@<TRIPOS>ATOM
      1 P          22.9769   71.8947   -3.2952 P.3     1  UNL1        0.2189
      2 O          23.7731   72.9261   -4.2541 O.3     1  UNL1       -0.4371
      3 O          23.6788   70.5919   -3.0457 O.2     1  UNL1       -0.5170
      4 O          21.5119   71.7855   -3.9716 O.3     1  UNL1       -0.3112
      5 C          20.6726   70.7056   -3.5992 C.3     1  UNL1        0.1811
      6 O          18.8468   71.8364   -4.6772 O.3     1  UNL1       -0.3308
      7 O          17.1081   70.6896   -2.5200 O.3     1  UNL1       -0.3794
      8 O          16.6134   69.0318   -4.6278 O.3     1  UNL1       -0.3779
      9 C          18.2367   70.1098   -3.1740 C.3     1  UNL1        0.1713
     10 C          17.8670   69.6812   -4.5783 C.3     1  UNL1        0.1895
     11 C          19.2487   71.2178   -3.4351 C.3     1  UNL1        0.1764
     12 C          17.8686   71.0051   -5.3234 C.3     1  UNL1        0.2383
     13 H          17.4020   70.9837   -1.6410 H       1  UNL1        0.2105
     14 H          16.6617   68.2572   -4.0414 H       1  UNL1        0.2106
     15 O          16.0269   70.4490   -7.3908 O.2     1  UNL1       -0.2464
     16 O          19.3416   70.4507  -10.5927 O.2     1  UNL1       -0.2670
     17 N          18.2226   70.8557   -6.7060 N.ar    1  UNL1       -0.2551
     18 N          17.6788   70.4497   -8.9838 N.ar    1  UNL1       -0.2743
     19 C          17.2215   70.5761   -7.6654 C.ar    1  UNL1        0.3323
     20 C          19.5498   70.9860   -7.0997 C.ar    1  UNL1        0.0869
     21 C          19.9698   70.8630   -8.3607 C.ar    1  UNL1        0.0795
     22 C          18.9879   70.5703   -9.4237 C.ar    1  UNL1        0.2626
     23 H          16.9766   70.2481   -9.6904 H       1  UNL1        0.1734
     24 O          22.6991   72.7752   -1.9675 O.3     1  UNL1       -0.2703
     25 P          22.0838   74.2591   -1.7889 P.3     1  UNL1        0.2208
     26 O          20.5664   74.0986   -2.3256 O.3     1  UNL1       -0.4371
     27 O          22.8722   75.3392   -2.4726 O.2     1  UNL1       -0.5170
     28 O          21.9347   74.4507   -0.1936 O.3     1  UNL1       -0.2858
     29 O          21.1250   72.3471    0.5266 O.3     1  UNL1       -0.3226
     30 O          21.8080   74.2987    4.1327 O.3     1  UNL1       -0.3794
     31 O          20.6259   75.7222    1.8784 O.3     1  UNL1       -0.3775
     32 O          21.1502   71.7383    3.3315 O.3     1  UNL1       -0.3792
     33 C          22.0015   73.9282    2.7705 C.3     1  UNL1        0.1718
     34 C          20.7748   74.3074    1.9341 C.3     1  UNL1        0.1968
     35 C          22.2390   72.4174    2.6971 C.3     1  UNL1        0.1723
     36 C          20.9005   73.7607    0.5067 C.3     1  UNL1        0.2706
     37 C          22.3070   71.9790    1.2358 C.3     1  UNL1        0.1830
     38 H          22.6059   74.0382    4.6238 H       1  UNL1        0.2105
     39 H          19.8448   75.9137    1.3324 H       1  UNL1        0.2106
     40 H          20.3733   71.7888    2.7492 H       1  UNL1        0.2106
     41 O          21.4617   70.0145    0.2714 O.co2   1  UNL1       -0.5466
     42 O          23.2314   69.7955    1.6916 O.co2   1  UNL1       -0.5466
     43 C          22.4085   70.4917    1.1149 C.2     1  UNL1        0.0799
@<TRIPOS>UNITY_ATOM_ATTR
41 1
charge -1
@<TRIPOS>BOND
     1     1     4    1
     2     1    24    1
     3     1     2    1
     4     1     3    2
     5    25    28    1
     6    25    24    1
     7    25    26    1
     8    25    27    2
     9     6    11    1
    10     6    12    1
    11    29    36    1
    12    29    37    1
    13     7     9    1
    14     7    13    1
    15     8    10    1
    16     8    14    1
    17     4     5    1
    18    28    36    1
    19    30    33    1
    20    30    38    1
    21    31    34    1
    22    31    39    1
    23    32    35    1
    24    32    40    1
    25    41    43   ar
    26    15    19    2
    27    42    43   ar
    28    16    22    2
    29    17    12    1
    30    17    19   ar
    31    17    20   ar
    32    18    19   ar
    33    18    22   ar
    34    18    23    1
    35     9    10    1
    36     9    11    1
    37    10    12    1
    38    11     5    1
    39    33    34    1
    40    33    35    1
    41    34    36    1
    42    35    37    1
    43    37    43    1
    44    20    21   ar
    45    21    22   ar
@<TRIPOS>MOLECULE
UDP-glaA
 43 45 0 0 0
SMALL
GASTEIGER

@<TRIPOS>ATOM
      1 P          21.5831   75.8321   -4.3060 P.3     1  UNL1        0.2189
      2 O          20.9253   76.5954   -3.0403 O.3     1  UNL1       -0.4371
      3 O          21.6463   76.6397   -5.5693 O.2     1  UNL1       -0.5170
      4 O          20.7552   74.4459   -4.3985 O.3     1  UNL1       -0.3112
      5 C          19.4325   74.4795   -4.9070 C.3     1  UNL1        0.1811
      6 O          17.8598   72.6897   -5.2195 O.3     1  UNL1       -0.3308
      7 O          18.6518   71.7655   -2.4791 O.3     1  UNL1       -0.3794
      8 O          20.0582   70.0864   -4.1034 O.3     1  UNL1       -0.3779
      9 C          19.4540   72.3622   -3.4979 C.3     1  UNL1        0.1713
     10 C          19.7254   71.3647   -4.6042 C.3     1  UNL1        0.1895
     11 C          18.6062   73.4069   -4.2117 C.3     1  UNL1        0.1764
     12 C          18.4097   71.3698   -5.3638 C.3     1  UNL1        0.2383
     13 H          18.4716   72.4511   -1.8134 H       1  UNL1        0.2105
     14 H          20.8458   70.1882   -3.5416 H       1  UNL1        0.2106
     15 O          16.3950   70.3120   -7.0363 O.2     1  UNL1       -0.2464
     16 O          19.1835   70.3165  -10.7055 O.2     1  UNL1       -0.2670
     17 N          18.5815   71.0854   -6.7598 N.ar    1  UNL1       -0.2551
     18 N          17.7850   70.3145   -8.8622 N.ar    1  UNL1       -0.2743
     19 C          17.5064   70.5545   -7.5102 C.ar    1  UNL1        0.3323
     20 C          19.8053   71.3322   -7.3720 C.ar    1  UNL1        0.0869
     21 C          20.0551   71.0984   -8.6622 C.ar    1  UNL1        0.0795
     22 C          18.9860   70.5434   -9.5158 C.ar    1  UNL1        0.2626
     23 H          17.0269   69.9322   -9.4210 H       1  UNL1        0.1734
     24 O          23.0209   75.3590   -3.7365 O.3     1  UNL1       -0.2703
     25 P          23.6895   73.8911   -3.6334 P.3     1  UNL1        0.2208
     26 O          25.2746   74.1975   -3.7326 O.3     1  UNL1       -0.4371
     27 O          23.1827   72.9104   -4.6518 O.2     1  UNL1       -0.5170
     28 O          23.4556   73.4419   -2.1012 O.3     1  UNL1       -0.2858
     29 O          21.7174   72.0342   -1.3287 O.3     1  UNL1       -0.3226
     30 O          22.5995   74.2703    2.0626 O.3     1  UNL1       -0.3794
     31 O          22.5149   75.5339   -0.5646 O.3     1  UNL1       -0.3775
     32 O          21.0382   72.0729    1.4598 O.3     1  UNL1       -0.3792
     33 C          22.8255   73.5748    0.8397 C.3     1  UNL1        0.1718
     34 C          22.0294   74.2223   -0.2984 C.3     1  UNL1        0.1968
     35 C          22.3977   72.1150    1.0139 C.3     1  UNL1        0.1723
     36 C          22.1295   73.3822   -1.5777 C.3     1  UNL1        0.2706
     37 C          22.4984   71.3875   -0.3251 C.3     1  UNL1        0.1830
     38 H          23.1197   73.8256    2.7535 H       1  UNL1        0.2105
     39 H          21.9886   75.8987   -1.2959 H       1  UNL1        0.2106
     40 H          20.4606   72.3023    0.7121 H       1  UNL1        0.2106
     41 O          21.3785   69.6253   -1.3948 O.co2   1  UNL1       -0.5466
     42 O          22.0517   69.2746    0.7548 O.co2   1  UNL1       -0.5466
     43 C          21.9673   69.9924   -0.2311 C.2     1  UNL1        0.0799
@<TRIPOS>UNITY_ATOM_ATTR
41 1
charge -1
@<TRIPOS>BOND
     1     1     4    1
     2     1    24    1
     3     1     2    1
     4     1     3    2
     5    25    28    1
     6    25    24    1
     7    25    26    1
     8    25    27    2
     9     6    11    1
    10     6    12    1
    11    29    36    1
    12    29    37    1
    13     7     9    1
    14     7    13    1
    15     8    10    1
    16     8    14    1
    17     4     5    1
    18    28    36    1
    19    30    33    1
    20    30    38    1
    21    31    34    1
    22    31    39    1
    23    32    35    1
    24    32    40    1
    25    41    43   ar
    26    15    19    2
    27    42    43   ar
    28    16    22    2
    29    17    12    1
    30    17    19   ar
    31    17    20   ar
    32    18    19   ar
    33    18    22   ar
    34    18    23    1
    35     9    10    1
    36     9    11    1
    37    10    12    1
    38    11     5    1
    39    33    34    1
    40    33    35    1
    41    34    36    1
    42    35    37    1
    43    37    43    1
    44    20    21   ar
    45    21    22   ar
@<TRIPOS>MOLECULE
UDP-glaA
 43 45 0 0 0
SMALL
GASTEIGER

@<TRIPOS>ATOM
      1 P          22.9731   71.6129   -2.6019 P.3     1  UNL1        0.2189
      2 O          23.7814   72.9464   -3.0331 O.3     1  UNL1       -0.4371
      3 O          23.4522   70.3457   -3.2474 O.2     1  UNL1       -0.5170
      4 O          21.4237   71.9940   -2.8658 O.3     1  UNL1       -0.3112
      5 C          20.6115   71.0748   -3.5762 C.3     1  UNL1        0.1811
      6 O          18.7256   72.0347   -4.7147 O.3     1  UNL1       -0.3308
      7 O          17.0446   70.8611   -2.5265 O.3     1  UNL1       -0.3794
      8 O          16.6857   69.0896   -4.5682 O.3     1  UNL1       -0.3779
      9 C          18.2168   70.3331   -3.1468 C.3     1  UNL1        0.1713
     10 C          17.8921   69.8238   -4.5353 C.3     1  UNL1        0.1895
     11 C          19.1546   71.4955   -3.4449 C.3     1  UNL1        0.1764
     12 C          17.8127   71.1136   -5.3342 C.3     1  UNL1        0.2383
     13 H          17.3084   71.2098   -1.6579 H       1  UNL1        0.2105
     14 H          16.7797   68.3444   -3.9502 H       1  UNL1        0.2106
     15 O          16.0245   70.4062   -7.4023 O.2     1  UNL1       -0.2464
     16 O          19.3778   70.4445  -10.5634 O.2     1  UNL1       -0.2670
     17 N          18.1911   70.9327   -6.7065 N.ar    1  UNL1       -0.2551
     18 N          17.6956   70.4252   -8.9750 N.ar    1  UNL1       -0.2743
     19 C          17.2160   70.5765   -7.6672 C.ar    1  UNL1        0.3323
     20 C          19.5164   71.1078   -7.0890 C.ar    1  UNL1        0.0869
     21 C          19.9580   70.9604   -8.3400 C.ar    1  UNL1        0.0795
     22 C          19.0039   70.5883   -9.4035 C.ar    1  UNL1        0.2626
     23 H          17.0123   70.1687   -9.6823 H       1  UNL1        0.1734
     24 O          23.0812   71.6295   -0.9884 O.3     1  UNL1       -0.2703
     25 P          22.3255   70.7454    0.1340 P.3     1  UNL1        0.2208
     26 O          23.4162   69.6117    0.5097 O.3     1  UNL1       -0.4371
     27 O          20.9938   70.2045   -0.3016 O.2     1  UNL1       -0.5170
     28 O          22.2645   71.7000    1.4337 O.3     1  UNL1       -0.2858
     29 O          20.9332   72.4640    3.2346 O.3     1  UNL1       -0.3226
     30 O          21.5531   75.9563    1.0668 O.3     1  UNL1       -0.3794
     31 O          21.0066   73.4398   -0.3023 O.3     1  UNL1       -0.3775
     32 O          20.4655   75.2821    3.5148 O.3     1  UNL1       -0.3792
     33 C          21.8353   74.6740    1.6204 C.3     1  UNL1        0.1718
     34 C          20.8375   73.6350    1.0977 C.3     1  UNL1        0.1968
     35 C          21.7477   74.7632    3.1464 C.3     1  UNL1        0.1723
     36 C          21.0243   72.2929    1.8164 C.3     1  UNL1        0.2706
     37 C          21.9064   73.3702    3.7518 C.3     1  UNL1        0.1830
     38 H          22.2059   76.5811    1.4262 H       1  UNL1        0.2105
     39 H          20.3623   72.7692   -0.5850 H       1  UNL1        0.2106
     40 H          19.7994   74.5881    3.3743 H       1  UNL1        0.2106
     41 O          22.8388   73.0506    5.8807 O.co2   1  UNL1       -0.5466
     42 O          20.6484   73.6758    5.7899 O.co2   1  UNL1       -0.5466
     43 C          21.6984   73.3902    5.2328 C.2     1  UNL1        0.0799
@<TRIPOS>UNITY_ATOM_ATTR
41 1
charge -1
@<TRIPOS>BOND
     1     1     4    1
     2     1    24    1
     3     1     2    1
     4     1     3    2
     5    25    28    1
     6    25    24    1
     7    25    26    1
     8    25    27    2
     9     6    11    1
    10     6    12    1
    11    29    36    1
    12    29    37    1
    13     7     9    1
    14     7    13    1
    15     8    10    1
    16     8    14    1
    17     4     5    1
    18    28    36    1
    19    30    33    1
    20    30    38    1
    21    31    34    1
    22    31    39    1
    23    32    35    1
    24    32    40    1
    25    41    43   ar
    26    15    19    2
    27    42    43   ar
    28    16    22    2
    29    17    12    1
    30    17    19   ar
    31    17    20   ar
    32    18    19   ar
    33    18    22   ar
    34    18    23    1
    35     9    10    1
    36     9    11    1
    37    10    12    1
    38    11     5    1
    39    33    34    1
    40    33    35    1
    41    34    36    1
    42    35    37    1
    43    37    43    1
    44    20    21   ar
    45    21    22   ar
@<TRIPOS>MOLECULE
UDP-glaA
 43 45 0 0 0
SMALL
GASTEIGER

@<TRIPOS>ATOM
      1 P          21.8858   70.6992   -1.3548 P.3     1  UNL1        0.2189
      2 O          22.9011   69.8477   -0.4267 O.3     1  UNL1       -0.4371
      3 O          20.8952   71.5396   -0.6034 O.2     1  UNL1       -0.5170
      4 O          21.2557   69.5968   -2.3564 O.3     1  UNL1       -0.3112
      5 C          20.7576   70.0280   -3.6115 C.3     1  UNL1        0.1811
      6 O          19.1666   71.5345   -4.5981 O.3     1  UNL1       -0.3308
      7 O          17.2683   70.6335   -2.4589 O.3     1  UNL1       -0.3794
      8 O          16.4423   69.2035   -4.6289 O.3     1  UNL1       -0.3779
      9 C          18.2583   69.8833   -3.1624 C.3     1  UNL1        0.1713
     10 C          17.7969   69.6010   -4.5766 C.3     1  UNL1        0.1895
     11 C          19.4589   70.7914   -3.3942 C.3     1  UNL1        0.1764
     12 C          18.0406   70.9355   -5.2606 C.3     1  UNL1        0.2383
     13 H          17.6234   70.8237   -1.5739 H       1  UNL1        0.2105
     14 H          16.3499   68.4061   -4.0795 H       1  UNL1        0.2106
     15 O          16.1105   70.4886   -7.2731 O.2     1  UNL1       -0.2464
     16 O          19.3173   70.3877  -10.5815 O.2     1  UNL1       -0.2670
     17 N          18.3430   70.7892   -6.6557 N.ar    1  UNL1       -0.2551
     18 N          17.7087   70.4382   -8.9192 N.ar    1  UNL1       -0.2743
     19 C          17.3002   70.5669   -7.5851 C.ar    1  UNL1        0.3323
     20 C          19.6613   70.8663   -7.0910 C.ar    1  UNL1        0.0869
     21 C          20.0346   70.7420   -8.3666 C.ar    1  UNL1        0.0795
     22 C          19.0070   70.5070   -9.4002 C.ar    1  UNL1        0.2626
     23 H          16.9759   70.2771   -9.6049 H       1  UNL1        0.1734
     24 O          22.8852   71.5329   -2.3148 O.3     1  UNL1       -0.2703
     25 P          23.1223   73.1240   -2.4723 P.3     1  UNL1        0.2208
     26 O          21.6347   73.6951   -2.7502 O.3     1  UNL1       -0.4371
     27 O          24.1344   73.4954   -3.5180 O.2     1  UNL1       -0.5170
     28 O          23.4837   73.6329   -0.9843 O.3     1  UNL1       -0.2858
     29 O          21.8541   74.1117    0.6634 O.3     1  UNL1       -0.3226
     30 O          25.1062   76.3402    1.9814 O.3     1  UNL1       -0.3794
     31 O          24.4470   76.2172   -0.8570 O.3     1  UNL1       -0.3775
     32 O          22.6181   75.6503    2.9629 O.3     1  UNL1       -0.3792
     33 C          24.3982   75.2614    1.3770 C.3     1  UNL1        0.1718
     34 C          23.5836   75.7612    0.1791 C.3     1  UNL1        0.1968
     35 C          23.4674   74.6346    2.4187 C.3     1  UNL1        0.1723
     36 C          22.6867   74.6455   -0.3714 C.3     1  UNL1        0.2706
     37 C          22.5968   73.5701    1.7545 C.3     1  UNL1        0.1830
     38 H          25.6045   75.9789    2.7342 H       1  UNL1        0.2105
     39 H          23.8884   76.5138   -1.5951 H       1  UNL1        0.2106
     40 H          21.9497   75.8836    2.2966 H       1  UNL1        0.2106
     41 O          21.2013   73.9679    3.5979 O.co2   1  UNL1       -0.5466
     42 O          21.1476   71.8788    2.6869 O.co2   1  UNL1       -0.5466
     43 C          21.5818   73.0214    2.7062 C.2     1  UNL1        0.0799
@<TRIPOS>UNITY_ATOM_ATTR
41 1
charge -1
@<TRIPOS>BOND
     1     1     4    1
     2     1    24    1
     3     1     2    1
     4     1     3    2
     5    25    28    1
     6    25    24    1
     7    25    26    1
     8    25    27    2
     9     6    11    1
    10     6    12    1
    11    29    36    1
    12    29    37    1
    13     7     9    1
    14     7    13    1
    15     8    10    1
    16     8    14    1
    17     4     5    1
    18    28    36    1
    19    30    33    1
    20    30    38    1
    21    31    34    1
    22    31    39    1
    23    32    35    1
    24    32    40    1
    25    41    43   ar
    26    15    19    2
    27    42    43   ar
    28    16    22    2
    29    17    12    1
    30    17    19   ar
    31    17    20   ar
    32    18    19   ar
    33    18    22   ar
    34    18    23    1
    35     9    10    1
    36     9    11    1
    37    10    12    1
    38    11     5    1
    39    33    34    1
    40    33    35    1
    41    34    36    1
    42    35    37    1
    43    37    43    1
    44    20    21   ar
    45    21    22   ar
@<TRIPOS>MOLECULE
UDP-glaA
 43 45 0 0 0
SMALL
GASTEIGER

@<TRIPOS>ATOM
      1 P          22.8142   71.6665   -2.2500 P.3     1  UNL1        0.2189
      2 O          23.3714   73.1793   -2.3860 O.3     1  UNL1       -0.4371
      3 O          23.4199   70.6806   -3.2055 O.2     1  UNL1       -0.5170
      4 O          21.2079   71.8336   -2.3368 O.3     1  UNL1       -0.3112
      5 C          20.5478   71.4279   -3.5237 C.3     1  UNL1        0.1811
      6 O          18.6069   72.2289   -4.6924 O.3     1  UNL1       -0.3308
      7 O          16.9996   71.0224   -2.4671 O.3     1  UNL1       -0.3794
      8 O          16.7576   69.1667   -4.4503 O.3     1  UNL1       -0.3779
      9 C          18.2041   70.5500   -3.0702 C.3     1  UNL1        0.1713
     10 C          17.9150   69.9766   -4.4414 C.3     1  UNL1        0.1895
     11 C          19.0669   71.7594   -3.4059 C.3     1  UNL1        0.1764
     12 C          17.7555   71.2323   -5.2815 C.3     1  UNL1        0.2383
     13 H          17.2391   71.4150   -1.6103 H       1  UNL1        0.2105
     14 H          16.8975   68.4493   -3.8085 H       1  UNL1        0.2106
     15 O          16.0159   70.3615   -7.3287 O.2     1  UNL1       -0.2464
     16 O          19.3699   70.4943  -10.4865 O.2     1  UNL1       -0.2670
     17 N          18.1472   71.0314   -6.6474 N.ar    1  UNL1       -0.2551
     18 N          17.6873   70.4277   -8.8997 N.ar    1  UNL1       -0.2743
     19 C          17.1964   70.5912   -7.5976 C.ar    1  UNL1        0.3323
     20 C          19.4614   71.2700   -7.0338 C.ar    1  UNL1        0.0869
     21 C          19.9139   71.1099   -8.2794 C.ar    1  UNL1        0.0795
     22 C          18.9853   70.6519   -9.3318 C.ar    1  UNL1        0.2626
     23 H          17.0215   70.1113   -9.5995 H       1  UNL1        0.1734
     24 O          23.0603   71.3289   -0.6878 O.3     1  UNL1       -0.2703
     25 P          22.1414   70.5424    0.3845 P.3     1  UNL1        0.2208
     26 O          23.2222   69.9266    1.4183 O.3     1  UNL1       -0.4371
     27 O          21.2170   69.5269   -0.2239 O.2     1  UNL1       -0.5170
     28 O          21.3971   71.7070    1.2173 O.3     1  UNL1       -0.2858
     29 O          21.9905   73.9798    0.9316 O.3     1  UNL1       -0.3226
     30 O          20.0388   74.0438    4.6012 O.3     1  UNL1       -0.3794
     31 O          21.8667   71.8717    3.9330 O.3     1  UNL1       -0.3775
     32 O          21.0287   75.9121    2.8236 O.3     1  UNL1       -0.3792
     33 C          20.3382   73.6403    3.2679 C.3     1  UNL1        0.1718
     34 C          21.7619   73.0793    3.1862 C.3     1  UNL1        0.1968
     35 C          20.1982   74.8509    2.3408 C.3     1  UNL1        0.1723
     36 C          22.1541   72.8027    1.7295 C.3     1  UNL1        0.2706
     37 C          20.6520   74.4738    0.9323 C.3     1  UNL1        0.1830
     38 H          19.1315   74.3937    4.6051 H       1  UNL1        0.2105
     39 H          22.7797   71.5501    3.8441 H       1  UNL1        0.2106
     40 H          21.9556   75.6912    2.6305 H       1  UNL1        0.2106
     41 O          19.6843   76.5372    0.3759 O.co2   1  UNL1       -0.5466
     42 O          21.4258   75.8263   -0.9121 O.co2   1  UNL1       -0.5466
     43 C          20.6550   75.6607    0.0222 C.2     1  UNL1        0.0799
@<TRIPOS>UNITY_ATOM_ATTR
41 1
charge -1
@<TRIPOS>BOND
     1     1     4    1
     2     1    24    1
     3     1     2    1
     4     1     3    2
     5    25    28    1
     6    25    24    1
     7    25    26    1
     8    25    27    2
     9     6    11    1
    10     6    12    1
    11    29    36    1
    12    29    37    1
    13     7     9    1
    14     7    13    1
    15     8    10    1
    16     8    14    1
    17     4     5    1
    18    28    36    1
    19    30    33    1
    20    30    38    1
    21    31    34    1
    22    31    39    1
    23    32    35    1
    24    32    40    1
    25    41    43   ar
    26    15    19    2
    27    42    43   ar
    28    16    22    2
    29    17    12    1
    30    17    19   ar
    31    17    20   ar
    32    18    19   ar
    33    18    22   ar
    34    18    23    1
    35     9    10    1
    36     9    11    1
    37    10    12    1
    38    11     5    1
    39    33    34    1
    40    33    35    1
    41    34    36    1
    42    35    37    1
    43    37    43    1
    44    20    21   ar
    45    21    22   ar
@<TRIPOS>MOLECULE
UDP-glaA
 43 45 0 0 0
SMALL
GASTEIGER

@<TRIPOS>ATOM
      1 P          21.6346   70.2481   -0.9298 P.3     1  UNL1        0.2189
      2 O          23.0966   70.6032   -1.5247 O.3     1  UNL1       -0.4371
      3 O          21.6379   69.3022    0.2352 O.2     1  UNL1       -0.5170
      4 O          20.7937   69.7658   -2.2244 O.3     1  UNL1       -0.3112
      5 C          20.6229   70.6749   -3.2984 C.3     1  UNL1        0.1811
      6 O          18.9418   71.9428   -4.4563 O.3     1  UNL1       -0.3308
      7 O          17.0410   71.0073   -2.3343 O.3     1  UNL1       -0.3794
      8 O          16.4604   69.3548   -4.4242 O.3     1  UNL1       -0.3779
      9 C          18.1310   70.3128   -2.9403 C.3     1  UNL1        0.1713
     10 C          17.7661   69.8884   -4.3472 C.3     1  UNL1        0.1895
     11 C          19.2476   71.3180   -3.1901 C.3     1  UNL1        0.1764
     12 C          17.9115   71.1898   -5.1173 C.3     1  UNL1        0.2383
     13 H          17.3339   71.2930   -1.4521 H       1  UNL1        0.2105
     14 H          16.4198   68.5923   -3.8217 H       1  UNL1        0.2106
     15 O          16.1102   70.5368   -7.1919 O.2     1  UNL1       -0.2464
     16 O          19.4853   70.3980  -10.3268 O.2     1  UNL1       -0.2670
     17 N          18.2920   70.9780   -6.4847 N.ar    1  UNL1       -0.2551
     18 N          17.7921   70.4676   -8.7515 N.ar    1  UNL1       -0.2743
     19 C          17.3097   70.6533   -7.4492 C.ar    1  UNL1        0.3323
     20 C          19.6264   71.0924   -6.8586 C.ar    1  UNL1        0.0869
     21 C          20.0705   70.9128   -8.1045 C.ar    1  UNL1        0.0795
     22 C          19.1093   70.5702   -9.1714 C.ar    1  UNL1        0.2626
     23 H          17.1037   70.2327   -9.4615 H       1  UNL1        0.1734
     24 O          21.0088   71.7051   -0.6126 O.3     1  UNL1       -0.2703
     25 P          21.3019   72.7463    0.5885 P.3     1  UNL1        0.2208
     26 O          21.2515   71.8134    1.9089 O.3     1  UNL1       -0.4371
     27 O          20.3694   73.9231    0.6249 O.2     1  UNL1       -0.5170
     28 O          22.8592   73.1347    0.4221 O.3     1  UNL1       -0.2858
     29 O          23.8281   74.1638   -1.4757 O.3     1  UNL1       -0.3226
     30 O          19.9348   75.6158   -1.5899 O.3     1  UNL1       -0.3794
     31 O          21.3591   75.3927    0.9453 O.3     1  UNL1       -0.3775
     32 O          22.1453   75.6723   -3.2453 O.3     1  UNL1       -0.3792
     33 C          20.9990   74.6978   -1.3555 C.3     1  UNL1        0.1718
     34 C          21.9822   75.2701   -0.3289 C.3     1  UNL1        0.1968
     35 C          21.7209   74.4283   -2.6786 C.3     1  UNL1        0.1723
     36 C          23.2165   74.3692   -0.1979 C.3     1  UNL1        0.2706
     37 C          22.9507   73.5591   -2.4245 C.3     1  UNL1        0.1830
     38 H          19.3400   75.2142   -2.2460 H       1  UNL1        0.2105
     39 H          22.0205   75.7487    1.5623 H       1  UNL1        0.2106
     40 H          22.9036   76.0020   -2.7339 H       1  UNL1        0.2106
     41 O          24.8580   74.1698   -3.6464 O.co2   1  UNL1       -0.5466
     42 O          23.4763   72.6184   -4.5852 O.co2   1  UNL1       -0.5466
     43 C          23.7592   73.3775   -3.6696 C.2     1  UNL1        0.0799
@<TRIPOS>UNITY_ATOM_ATTR
41 1
charge -1
@<TRIPOS>BOND
     1     1     4    1
     2     1    24    1
     3     1     2    1
     4     1     3    2
     5    25    28    1
     6    25    24    1
     7    25    26    1
     8    25    27    2
     9     6    11    1
    10     6    12    1
    11    29    36    1
    12    29    37    1
    13     7     9    1
    14     7    13    1
    15     8    10    1
    16     8    14    1
    17     4     5    1
    18    28    36    1
    19    30    33    1
    20    30    38    1
    21    31    34    1
    22    31    39    1
    23    32    35    1
    24    32    40    1
    25    41    43   ar
    26    15    19    2
    27    42    43   ar
    28    16    22    2
    29    17    12    1
    30    17    19   ar
    31    17    20   ar
    32    18    19   ar
    33    18    22   ar
    34    18    23    1
    35     9    10    1
    36     9    11    1
    37    10    12    1
    38    11     5    1
    39    33    34    1
    40    33    35    1
    41    34    36    1
    42    35    37    1
    43    37    43    1
    44    20    21   ar
    45    21    22   ar
@<TRIPOS>MOLECULE
UDP-glaA
 43 45 0 0 0
SMALL
GASTEIGER

@<TRIPOS>ATOM
      1 P          22.9281   71.9044   -3.0176 P.3     1  UNL1        0.2189
      2 O          23.7024   70.4881   -3.1266 O.3     1  UNL1       -0.4371
      3 O          22.6838   72.3861   -1.6175 O.2     1  UNL1       -0.5170
      4 O          21.6089   71.6987   -3.9304 O.3     1  UNL1       -0.3112
      5 C          20.7222   70.6401   -3.6105 C.3     1  UNL1        0.1811
      6 O          18.9301   71.8375   -4.6731 O.3     1  UNL1       -0.3308
      7 O          17.1686   70.7546   -2.5015 O.3     1  UNL1       -0.3794
      8 O          16.5958   69.1168   -4.6051 O.3     1  UNL1       -0.3779
      9 C          18.2697   70.1340   -3.1650 C.3     1  UNL1        0.1713
     10 C          17.8728   69.7197   -4.5662 C.3     1  UNL1        0.1895
     11 C          19.3195   71.2041   -3.4344 C.3     1  UNL1        0.1764
     12 C          17.9167   71.0430   -5.3111 C.3     1  UNL1        0.2383
     13 H          17.4805   71.0373   -1.6249 H       1  UNL1        0.2105
     14 H          16.6206   68.3407   -4.0193 H       1  UNL1        0.2106
     15 O          16.0502   70.4632   -7.3495 O.2     1  UNL1       -0.2464
     16 O          19.3238   70.4417  -10.5933 O.2     1  UNL1       -0.2670
     17 N          18.2535   70.8812   -6.6967 N.ar    1  UNL1       -0.2551
     18 N          17.6816   70.4523   -8.9634 N.ar    1  UNL1       -0.2743
     19 C          17.2409   70.5903   -7.6405 C.ar    1  UNL1        0.3323
     20 C          19.5753   71.0106   -7.1084 C.ar    1  UNL1        0.0869
     21 C          19.9794   70.8766   -8.3735 C.ar    1  UNL1        0.0795
     22 C          18.9847   70.5716   -9.4210 C.ar    1  UNL1        0.2626
     23 H          16.9709   70.2425   -9.6591 H       1  UNL1        0.1734
     24 O          23.8430   72.8878   -3.9182 O.3     1  UNL1       -0.2703
     25 P          24.0017   74.4963   -3.9045 P.3     1  UNL1        0.2208
     26 O          25.6046   74.7112   -3.9247 O.3     1  UNL1       -0.4371
     27 O          23.2995   75.1748   -2.7632 O.2     1  UNL1       -0.5170
     28 O          23.5078   74.9684   -5.3663 O.3     1  UNL1       -0.2858
     29 O          21.5241   76.0504   -6.0691 O.3     1  UNL1       -0.3226
     30 O          22.3579   73.5743   -9.3022 O.3     1  UNL1       -0.3794
     31 O          22.7126   72.6148   -6.5710 O.3     1  UNL1       -0.3775
     32 O          20.5789   75.6122   -8.7436 O.3     1  UNL1       -0.3792
     33 C          22.6086   74.4263   -8.1879 C.3     1  UNL1        0.1718
     34 C          22.0276   73.8166   -6.9077 C.3     1  UNL1        0.1968
     35 C          21.9693   75.7917   -8.4549 C.3     1  UNL1        0.1723
     36 C          22.1401   74.8016   -5.7374 C.3     1  UNL1        0.2706
     37 C          22.1039   76.6726   -7.2147 C.3     1  UNL1        0.1830
     38 H          22.7398   73.9999  -10.0887 H       1  UNL1        0.2105
     39 H          22.3178   72.2717   -5.7517 H       1  UNL1        0.2106
     40 H          20.1166   75.3980   -7.9156 H       1  UNL1        0.2106
     41 O          22.2466   78.9652   -7.6915 O.co2   1  UNL1       -0.5466
     42 O          20.1723   78.1205   -7.2663 O.co2   1  UNL1       -0.5466
     43 C          21.3798   77.9703   -7.3840 C.2     1  UNL1        0.0799
@<TRIPOS>UNITY_ATOM_ATTR
41 1
charge -1
@<TRIPOS>BOND
     1     1     4    1
     2     1    24    1
     3     1     2    1
     4     1     3    2
     5    25    28    1
     6    25    24    1
     7    25    26    1
     8    25    27    2
     9     6    11    1
    10     6    12    1
    11    29    36    1
    12    29    37    1
    13     7     9    1
    14     7    13    1
    15     8    10    1
    16     8    14    1
    17     4     5    1
    18    28    36    1
    19    30    33    1
    20    30    38    1
    21    31    34    1
    22    31    39    1
    23    32    35    1
    24    32    40    1
    25    41    43   ar
    26    15    19    2
    27    42    43   ar
    28    16    22    2
    29    17    12    1
    30    17    19   ar
    31    17    20   ar
    32    18    19   ar
    33    18    22   ar
    34    18    23    1
    35     9    10    1
    36     9    11    1
    37    10    12    1
    38    11     5    1
    39    33    34    1
    40    33    35    1
    41    34    36    1
    42    35    37    1
    43    37    43    1
    44    20    21   ar
    45    21    22   ar
@<TRIPOS>MOLECULE
UDP-glaA
 43 45 0 0 0
SMALL
GASTEIGER

@<TRIPOS>ATOM
      1 P          21.6754   70.2800   -1.0659 P.3     1  UNL1        0.2189
      2 O          23.2086   70.5952   -1.4752 O.3     1  UNL1       -0.4371
      3 O          21.5081   69.4768    0.1907 O.2     1  UNL1       -0.5170
      4 O          21.0402   69.6315   -2.4044 O.3     1  UNL1       -0.3112
      5 C          20.7615   70.4827   -3.5030 C.3     1  UNL1        0.1811
      6 O          19.0111   71.7498   -4.5542 O.3     1  UNL1       -0.3308
      7 O          17.2087   70.6897   -2.4050 O.3     1  UNL1       -0.3794
      8 O          16.5945   69.1010   -4.5345 O.3     1  UNL1       -0.3779
      9 C          18.2930   70.0454   -3.0737 C.3     1  UNL1        0.1713
     10 C          17.8891   69.6639   -4.4822 C.3     1  UNL1        0.1895
     11 C          19.3759   71.0867   -3.3236 C.3     1  UNL1        0.1764
     12 C          17.9764   70.9960   -5.2074 C.3     1  UNL1        0.2383
     13 H          17.5256   70.9499   -1.5233 H       1  UNL1        0.2105
     14 H          16.5932   68.3161   -3.9601 H       1  UNL1        0.2106
     15 O          16.1127   70.4164   -7.2484 O.2     1  UNL1       -0.2464
     16 O          19.3850   70.4336  -10.4935 O.2     1  UNL1       -0.2670
     17 N          18.3136   70.8442   -6.5940 N.ar    1  UNL1       -0.2551
     18 N          17.7434   70.4248   -8.8629 N.ar    1  UNL1       -0.2743
     19 C          17.3024   70.5525   -7.5392 C.ar    1  UNL1        0.3323
     20 C          19.6344   70.9841   -7.0056 C.ar    1  UNL1        0.0869
     21 C          20.0388   70.8599   -8.2716 C.ar    1  UNL1        0.0795
     22 C          19.0456   70.5547   -9.3204 C.ar    1  UNL1        0.2626
     23 H          17.0338   70.2146   -9.5596 H       1  UNL1        0.1734
     24 O          21.0030   71.7500   -1.0203 O.3     1  UNL1       -0.2703
     25 P          21.5154   73.1300   -0.3526 P.3     1  UNL1        0.2208
     26 O          22.2097   72.6408    1.0239 O.3     1  UNL1       -0.4371
     27 O          20.4403   74.1631   -0.1717 O.2     1  UNL1       -0.5170
     28 O          22.7448   73.6034   -1.2844 O.3     1  UNL1       -0.2858
     29 O          22.3260   75.6686   -2.3608 O.3     1  UNL1       -0.3226
     30 O          25.8906   74.4703   -4.1321 O.3     1  UNL1       -0.3794
     31 O          23.7692   72.5366   -3.6158 O.3     1  UNL1       -0.3775
     32 O          24.3210   76.7432   -4.1227 O.3     1  UNL1       -0.3792
     33 C          24.9043   74.6265   -3.1156 C.3     1  UNL1        0.1718
     34 C          23.5954   73.9471   -3.5320 C.3     1  UNL1        0.1968
     35 C          24.6674   76.1209   -2.8810 C.3     1  UNL1        0.1723
     36 C          22.4795   74.2551   -2.5258 C.3     1  UNL1        0.2706
     37 C          23.5138   76.3095   -1.8982 C.3     1  UNL1        0.1830
     38 H          26.6990   74.9166   -3.8276 H       1  UNL1        0.2105
     39 H          22.9148   72.1504   -3.8722 H       1  UNL1        0.2106
     40 H          23.4111   76.4891   -4.3523 H       1  UNL1        0.2106
     41 O          22.0299   78.0494   -2.4220 O.co2   1  UNL1       -0.5466
     42 O          23.8002   78.5633   -1.0808 O.co2   1  UNL1       -0.5466
     43 C          23.1618   77.7544   -1.7384 C.2     1  UNL1        0.0799
@<TRIPOS>UNITY_ATOM_ATTR
41 1
charge -1
@<TRIPOS>BOND
     1     1     4    1
     2     1    24    1
     3     1     2    1
     4     1     3    2
     5    25    28    1
     6    25    24    1
     7    25    26    1
     8    25    27    2
     9     6    11    1
    10     6    12    1
    11    29    36    1
    12    29    37    1
    13     7     9    1
    14     7    13    1
    15     8    10    1
    16     8    14    1
    17     4     5    1
    18    28    36    1
    19    30    33    1
    20    30    38    1
    21    31    34    1
    22    31    39    1
    23    32    35    1
    24    32    40    1
    25    41    43   ar
    26    15    19    2
    27    42    43   ar
    28    16    22    2
    29    17    12    1
    30    17    19   ar
    31    17    20   ar
    32    18    19   ar
    33    18    22   ar
    34    18    23    1
    35     9    10    1
    36     9    11    1
    37    10    12    1
    38    11     5    1
    39    33    34    1
    40    33    35    1
    41    34    36    1
    42    35    37    1
    43    37    43    1
    44    20    21   ar
    45    21    22   ar
@<TRIPOS>MOLECULE
UDP-glaA
 43 45 0 0 0
SMALL
GASTEIGER

@<TRIPOS>ATOM
      1 P          21.8712   70.6197   -0.9752 P.3     1  UNL1        0.2189
      2 O          23.3946   70.2003   -0.6276 O.3     1  UNL1       -0.4371
      3 O          20.8699   70.3156    0.1005 O.2     1  UNL1       -0.5170
      4 O          21.5938   69.9268   -2.4099 O.3     1  UNL1       -0.3112
      5 C          21.0717   70.7254   -3.4582 C.3     1  UNL1        0.1811
      6 O          19.0523   71.7032   -4.3185 O.3     1  UNL1       -0.3308
      7 O          17.6172   70.1554   -2.1887 O.3     1  UNL1       -0.3794
      8 O          17.1888   68.6416   -4.4160 O.3     1  UNL1       -0.3779
      9 C          18.7618   69.7860   -2.9576 C.3     1  UNL1        0.1713
     10 C          18.3536   69.4397   -4.3739 C.3     1  UNL1        0.1895
     11 C          19.6100   71.0336   -3.1663 C.3     1  UNL1        0.1764
     12 C          18.1423   70.8138   -4.9865 C.3     1  UNL1        0.2383
     13 H          17.9313   70.4056   -1.3032 H       1  UNL1        0.2105
     14 H          17.3713   67.8306   -3.9108 H       1  UNL1        0.2106
     15 O          16.2526   70.1936   -6.9915 O.2     1  UNL1       -0.2464
     16 O          19.3132   70.9246  -10.3586 O.2     1  UNL1       -0.2670
     17 N          18.4179   70.8346   -6.3947 N.ar    1  UNL1       -0.2551
     18 N          17.7781   70.5575   -8.6668 N.ar    1  UNL1       -0.2743
     19 C          17.3990   70.5056   -7.3190 C.ar    1  UNL1        0.3323
     20 C          19.6869   71.1780   -6.8476 C.ar    1  UNL1        0.0869
     21 C          20.0325   71.2234   -8.1361 C.ar    1  UNL1        0.0795
     22 C          19.0273   70.8930   -9.1656 C.ar    1  UNL1        0.2626
     23 H          17.0618   70.3243   -9.3492 H       1  UNL1        0.1734
     24 O          22.0033   72.1876   -1.3486 O.3     1  UNL1       -0.2703
     25 P          21.3132   73.4950   -0.6950 P.3     1  UNL1        0.2208
     26 O          19.7405   73.2785   -1.0047 O.3     1  UNL1       -0.4371
     27 O          21.8693   74.7986   -1.1921 O.2     1  UNL1       -0.5170
     28 O          21.4497   73.2762    0.8980 O.3     1  UNL1       -0.2858
     29 O          23.1374   74.6335    1.8514 O.3     1  UNL1       -0.3226
     30 O          22.0412   72.2258    5.0577 O.3     1  UNL1       -0.3794
     31 O          22.2895   71.1020    2.3779 O.3     1  UNL1       -0.3775
     32 O          23.6398   74.4450    4.6711 O.3     1  UNL1       -0.3792
     33 C          21.8933   72.9858    3.8615 C.3     1  UNL1        0.1718
     34 C          22.7587   72.3956    2.7430 C.3     1  UNL1        0.1968
     35 C          22.3110   74.4325    4.1391 C.3     1  UNL1        0.1723
     36 C          22.7403   73.3023    1.5061 C.3     1  UNL1        0.2706
     37 C          22.2955   75.2299    2.8368 C.3     1  UNL1        0.1830
     38 H          21.4791   72.6358    5.7371 H       1  UNL1        0.2105
     39 H          22.8603   70.7738    1.6629 H       1  UNL1        0.2106
     40 H          24.2630   74.2527    3.9501 H       1  UNL1        0.2106
     41 O          21.8214   77.5251    2.9427 O.co2   1  UNL1       -0.5466
     42 O          23.9899   76.8972    3.2600 O.co2   1  UNL1       -0.5466
     43 C          22.8212   76.6157    3.0375 C.2     1  UNL1        0.0799
@<TRIPOS>UNITY_ATOM_ATTR
41 1
charge -1
@<TRIPOS>BOND
     1     1     4    1
     2     1    24    1
     3     1     2    1
     4     1     3    2
     5    25    28    1
     6    25    24    1
     7    25    26    1
     8    25    27    2
     9     6    11    1
    10     6    12    1
    11    29    36    1
    12    29    37    1
    13     7     9    1
    14     7    13    1
    15     8    10    1
    16     8    14    1
    17     4     5    1
    18    28    36    1
    19    30    33    1
    20    30    38    1
    21    31    34    1
    22    31    39    1
    23    32    35    1
    24    32    40    1
    25    41    43   ar
    26    15    19    2
    27    42    43   ar
    28    16    22    2
    29    17    12    1
    30    17    19   ar
    31    17    20   ar
    32    18    19   ar
    33    18    22   ar
    34    18    23    1
    35     9    10    1
    36     9    11    1
    37    10    12    1
    38    11     5    1
    39    33    34    1
    40    33    35    1
    41    34    36    1
    42    35    37    1
    43    37    43    1
    44    20    21   ar
    45    21    22   ar
@<TRIPOS>MOLECULE
UDP-glaA
 43 45 0 0 0
SMALL
GASTEIGER

@<TRIPOS>ATOM
      1 P          22.8714   72.1524   -3.5889 P.3     1  UNL1        0.2189
      2 O          24.1220   73.0856   -4.0161 O.3     1  UNL1       -0.4371
      3 O          23.2330   70.7491   -3.1988 O.2     1  UNL1       -0.5170
      4 O          21.8390   72.2942   -4.8257 O.3     1  UNL1       -0.3112
      5 C          21.8421   73.4966   -5.5763 C.3     1  UNL1        0.1811
      6 O          21.1681   72.6572   -7.7246 O.3     1  UNL1       -0.3308
      7 O          23.6121   74.0118   -8.8123 O.3     1  UNL1       -0.3794
      8 O          21.6214   75.7539   -9.4740 O.3     1  UNL1       -0.3779
      9 C          22.7369   74.4319   -7.7657 C.3     1  UNL1        0.1713
     10 C          21.4287   74.9297   -8.3431 C.3     1  UNL1        0.1895
     11 C          22.2953   73.1933   -6.9973 C.3     1  UNL1        0.1764
     12 C          20.7183   73.6302   -8.6818 C.3     1  UNL1        0.2383
     13 H          24.4188   73.6657   -8.3941 H       1  UNL1        0.2105
     14 H          22.1745   76.5049   -9.1980 H       1  UNL1        0.2106
     15 O          18.8955   72.0964  -10.1985 O.2     1  UNL1       -0.2464
     16 O          15.2612   74.1652   -8.2620 O.2     1  UNL1       -0.2670
     17 N          19.2907   73.7468   -8.5937 N.ar    1  UNL1       -0.2551
     18 N          17.0870   73.1280   -9.2336 N.ar    1  UNL1       -0.2743
     19 C          18.4640   72.9301   -9.4001 C.ar    1  UNL1        0.3323
     20 C          18.7230   74.6632   -7.7155 C.ar    1  UNL1        0.0869
     21 C          17.4081   74.8397   -7.5679 C.ar    1  UNL1        0.0795
     22 C          16.4754   74.0269   -8.3736 C.ar    1  UNL1        0.2626
     23 H          16.4734   72.5521   -9.8036 H       1  UNL1        0.1734
     24 O          22.1588   73.0139   -2.4205 O.3     1  UNL1       -0.2703
     25 P          20.6650   72.9378   -1.8080 P.3     1  UNL1        0.2208
     26 O          20.1538   74.4704   -1.8851 O.3     1  UNL1       -0.4371
     27 O          20.5915   72.3279   -0.4375 O.2     1  UNL1       -0.5170
     28 O          19.8020   72.1626   -2.9298 O.3     1  UNL1       -0.2858
     29 O          17.5326   71.7074   -3.4216 O.3     1  UNL1       -0.3226
     30 O          19.2905   67.9688   -3.8822 O.3     1  UNL1       -0.3794
     31 O          20.0768   69.7149   -1.6825 O.3     1  UNL1       -0.3775
     32 O          16.8176   69.0963   -4.3755 O.3     1  UNL1       -0.3792
     33 C          19.1706   69.3883   -3.9137 C.3     1  UNL1        0.1718
     34 C          18.9341   69.9361   -2.5023 C.3     1  UNL1        0.1968
     35 C          17.9999   69.7662   -4.8254 C.3     1  UNL1        0.1723
     36 C          18.6332   71.4394   -2.5465 C.3     1  UNL1        0.2706
     37 C          17.7652   71.2738   -4.7608 C.3     1  UNL1        0.1830
     38 H          19.4363   67.6663   -4.7948 H       1  UNL1        0.2105
     39 H          19.8844   70.0856   -0.8047 H       1  UNL1        0.2106
     40 H          16.5090   69.5281   -3.5609 H       1  UNL1        0.2106
     41 O          16.4906   71.0024   -6.7116 O.co2   1  UNL1       -0.5466
     42 O          15.7161   72.4859   -5.1636 O.co2   1  UNL1       -0.5466
     43 C          16.5491   71.6719   -5.5352 C.2     1  UNL1        0.0799
@<TRIPOS>UNITY_ATOM_ATTR
41 1
charge -1
@<TRIPOS>BOND
     1     1     4    1
     2     1    24    1
     3     1     2    1
     4     1     3    2
     5    25    28    1
     6    25    24    1
     7    25    26    1
     8    25    27    2
     9     6    11    1
    10     6    12    1
    11    29    36    1
    12    29    37    1
    13     7     9    1
    14     7    13    1
    15     8    10    1
    16     8    14    1
    17     4     5    1
    18    28    36    1
    19    30    33    1
    20    30    38    1
    21    31    34    1
    22    31    39    1
    23    32    35    1
    24    32    40    1
    25    41    43   ar
    26    15    19    2
    27    42    43   ar
    28    16    22    2
    29    17    12    1
    30    17    19   ar
    31    17    20   ar
    32    18    19   ar
    33    18    22   ar
    34    18    23    1
    35     9    10    1
    36     9    11    1
    37    10    12    1
    38    11     5    1
    39    33    34    1
    40    33    35    1
    41    34    36    1
    42    35    37    1
    43    37    43    1
    44    20    21   ar
    45    21    22   ar
@<TRIPOS>MOLECULE
UDP-glaA
 43 45 0 0 0
SMALL
GASTEIGER

@<TRIPOS>ATOM
      1 P          22.6433   73.7395   -4.8129 P.3     1  UNL1        0.2189
      2 O          23.5315   74.9416   -5.4321 O.3     1  UNL1       -0.4371
      3 O          23.4290   72.5543   -4.3330 O.2     1  UNL1       -0.5170
      4 O          21.5440   73.4364   -5.9597 O.3     1  UNL1       -0.3112
      5 C          21.9579   72.7549   -7.1316 C.3     1  UNL1        0.1811
      6 O          20.0691   71.3854   -7.7071 O.3     1  UNL1       -0.3308
      7 O          18.9978   73.7918   -9.1399 O.3     1  UNL1       -0.3794
      8 O          17.5854   73.8098   -6.8074 O.3     1  UNL1       -0.3779
      9 C          19.7430   73.7218   -7.9244 C.3     1  UNL1        0.1713
     10 C          18.8662   73.2139   -6.7993 C.3     1  UNL1        0.1895
     11 C          20.7644   72.6006   -8.0635 C.3     1  UNL1        0.1764
     12 C          18.8183   71.7226   -7.0849 C.3     1  UNL1        0.2383
     13 H          19.6087   74.0835   -9.8380 H       1  UNL1        0.2105
     14 H          17.7094   74.7714   -6.7292 H       1  UNL1        0.2106
     15 O          16.3315   71.0503   -5.9277 O.2     1  UNL1       -0.2464
     16 O          18.3490   68.7180   -2.5029 O.2     1  UNL1       -0.2670
     17 N          18.6643   70.9405   -5.8916 N.ar    1  UNL1       -0.2551
     18 N          17.3378   69.8898   -4.2228 N.ar    1  UNL1       -0.2743
     19 C          17.3708   70.6600   -5.3927 C.ar    1  UNL1        0.3323
     20 C          19.7878   70.4602   -5.2279 C.ar    1  UNL1        0.0869
     21 C          19.7397   69.7267   -4.1137 C.ar    1  UNL1        0.0795
     22 C          18.4275   69.3899   -3.5268 C.ar    1  UNL1        0.2626
     23 H          16.4184   69.6763   -3.8456 H       1  UNL1        0.1734
     24 O          21.7772   74.4821   -3.6668 O.3     1  UNL1       -0.2703
     25 P          20.5855   73.9391   -2.7194 P.3     1  UNL1        0.2208
     26 O          19.4550   73.4705   -3.7769 O.3     1  UNL1       -0.4371
     27 O          20.1072   74.9332   -1.7003 O.2     1  UNL1       -0.5170
     28 O          21.1545   72.5646   -2.0941 O.3     1  UNL1       -0.2858
     29 O          22.0920   73.2598   -0.0356 O.3     1  UNL1       -0.3226
     30 O          22.4170   69.1231    0.2122 O.3     1  UNL1       -0.3794
     31 O          22.9842   70.5065   -2.2919 O.3     1  UNL1       -0.3775
     32 O          22.7989   71.2697    1.9082 O.3     1  UNL1       -0.3792
     33 C          21.8646   70.3890   -0.1379 C.3     1  UNL1        0.1718
     34 C          22.8328   71.1640   -1.0382 C.3     1  UNL1        0.1968
     35 C          21.5922   71.1819    1.1433 C.3     1  UNL1        0.1723
     36 C          22.3258   72.5912   -1.2795 C.3     1  UNL1        0.2706
     37 C          21.1336   72.5939    0.7852 C.3     1  UNL1        0.1830
     38 H          21.7731   68.6698    0.7827 H       1  UNL1        0.2105
     39 H          23.5962   71.0369   -2.8293 H       1  UNL1        0.2106
     40 H          23.3950   71.9025    1.4732 H       1  UNL1        0.2106
     41 O          20.7293   72.6796    3.0945 O.co2   1  UNL1       -0.5466
     42 O          21.0702   74.6643    2.0260 O.co2   1  UNL1       -0.5466
     43 C          20.9800   73.4453    2.0053 C.2     1  UNL1        0.0799
@<TRIPOS>UNITY_ATOM_ATTR
41 1
charge -1
@<TRIPOS>BOND
     1     1     4    1
     2     1    24    1
     3     1     2    1
     4     1     3    2
     5    25    28    1
     6    25    24    1
     7    25    26    1
     8    25    27    2
     9     6    11    1
    10     6    12    1
    11    29    36    1
    12    29    37    1
    13     7     9    1
    14     7    13    1
    15     8    10    1
    16     8    14    1
    17     4     5    1
    18    28    36    1
    19    30    33    1
    20    30    38    1
    21    31    34    1
    22    31    39    1
    23    32    35    1
    24    32    40    1
    25    41    43   ar
    26    15    19    2
    27    42    43   ar
    28    16    22    2
    29    17    12    1
    30    17    19   ar
    31    17    20   ar
    32    18    19   ar
    33    18    22   ar
    34    18    23    1
    35     9    10    1
    36     9    11    1
    37    10    12    1
    38    11     5    1
    39    33    34    1
    40    33    35    1
    41    34    36    1
    42    35    37    1
    43    37    43    1
    44    20    21   ar
    45    21    22   ar
@<TRIPOS>MOLECULE
UDP-glaA
 43 45 0 0 0
SMALL
GASTEIGER

@<TRIPOS>ATOM
      1 P          22.4676   73.1454   -3.9772 P.3     1  UNL1        0.2189
      2 O          22.0836   74.5256   -4.7288 O.3     1  UNL1       -0.4371
      3 O          23.9174   72.7652   -4.0538 O.2     1  UNL1       -0.5170
      4 O          21.4254   72.0680   -4.5842 O.3     1  UNL1       -0.3112
      5 C          20.8007   71.1557   -3.6972 C.3     1  UNL1        0.1811
      6 O          18.8591   72.0808   -4.7689 O.3     1  UNL1       -0.3308
      7 O          17.2821   70.9149   -2.5006 O.3     1  UNL1       -0.3794
      8 O          16.8612   69.1152   -4.5055 O.3     1  UNL1       -0.3779
      9 C          18.4342   70.3926   -3.1621 C.3     1  UNL1        0.1713
     10 C          18.0593   69.8632   -4.5302 C.3     1  UNL1        0.1895
     11 C          19.3456   71.5617   -3.5115 C.3     1  UNL1        0.1764
     12 C          17.9326   71.1423   -5.3399 C.3     1  UNL1        0.2383
     13 H          17.5770   71.2768   -1.6475 H       1  UNL1        0.2105
     14 H          16.9889   68.3785   -3.8832 H       1  UNL1        0.2106
     15 O          16.0646   70.4185   -7.3304 O.2     1  UNL1       -0.2464
     16 O          19.2918   70.4266  -10.6203 O.2     1  UNL1       -0.2670
     17 N          18.2569   70.9492   -6.7244 N.ar    1  UNL1       -0.2551
     18 N          17.6729   70.4225   -8.9673 N.ar    1  UNL1       -0.2743
     19 C          17.2448   70.5855   -7.6431 C.ar    1  UNL1        0.3323
     20 C          19.5664   71.1199   -7.1599 C.ar    1  UNL1        0.0869
     21 C          19.9586   70.9613   -8.4259 C.ar    1  UNL1        0.0795
     22 C          18.9635   70.5808   -9.4480 C.ar    1  UNL1        0.2626
     23 H          16.9623   70.1605   -9.6451 H       1  UNL1        0.1734
     24 O          21.9120   73.3829   -2.4772 O.3     1  UNL1       -0.2703
     25 P          21.3254   74.7080   -1.7612 P.3     1  UNL1        0.2208
     26 O          19.8895   74.9119   -2.4774 O.3     1  UNL1       -0.4371
     27 O          22.2322   75.9027   -1.8389 O.2     1  UNL1       -0.5170
     28 O          20.9695   74.2376   -0.2592 O.3     1  UNL1       -0.2858
     29 O          21.4002   74.8721    1.9794 O.3     1  UNL1       -0.3226
     30 O          22.2759   70.8090    2.0418 O.3     1  UNL1       -0.3794
     31 O          23.0855   72.4646   -0.2186 O.3     1  UNL1       -0.3775
     32 O          22.0208   72.8341    3.9030 O.3     1  UNL1       -0.3792
     33 C          21.6182   72.0159    1.6661 C.3     1  UNL1        0.1718
     34 C          22.6115   72.9865    1.0182 C.3     1  UNL1        0.1968
     35 C          21.0016   72.6531    2.9144 C.3     1  UNL1        0.1723
     36 C          21.9542   74.3494    0.7675 C.3     1  UNL1        0.2706
     37 C          20.4151   74.0173    2.5578 C.3     1  UNL1        0.1830
     38 H          21.6115   70.2272    2.4486 H       1  UNL1        0.2105
     39 H          23.7017   73.1155   -0.5948 H       1  UNL1        0.2106
     40 H          22.5877   73.5752    3.6300 H       1  UNL1        0.2106
     41 O          20.9429   75.3128    4.4411 O.co2   1  UNL1       -0.5466
     42 O          18.7463   74.7944    4.1201 O.co2   1  UNL1       -0.5466
     43 C          19.9167   74.7332    3.7728 C.2     1  UNL1        0.0799
@<TRIPOS>UNITY_ATOM_ATTR
41 1
charge -1
@<TRIPOS>BOND
     1     1     4    1
     2     1    24    1
     3     1     2    1
     4     1     3    2
     5    25    28    1
     6    25    24    1
     7    25    26    1
     8    25    27    2
     9     6    11    1
    10     6    12    1
    11    29    36    1
    12    29    37    1
    13     7     9    1
    14     7    13    1
    15     8    10    1
    16     8    14    1
    17     4     5    1
    18    28    36    1
    19    30    33    1
    20    30    38    1
    21    31    34    1
    22    31    39    1
    23    32    35    1
    24    32    40    1
    25    41    43   ar
    26    15    19    2
    27    42    43   ar
    28    16    22    2
    29    17    12    1
    30    17    19   ar
    31    17    20   ar
    32    18    19   ar
    33    18    22   ar
    34    18    23    1
    35     9    10    1
    36     9    11    1
    37    10    12    1
    38    11     5    1
    39    33    34    1
    40    33    35    1
    41    34    36    1
    42    35    37    1
    43    37    43    1
    44    20    21   ar
    45    21    22   ar
@<TRIPOS>MOLECULE
UDP-glaA
 43 45 0 0 0
SMALL
GASTEIGER

@<TRIPOS>ATOM
      1 P          21.8680   73.1459   -4.8075 P.3     1  UNL1        0.2189
      2 O          22.5759   74.0832   -3.6950 O.3     1  UNL1       -0.4371
      3 O          22.7845   72.6340   -5.8799 O.2     1  UNL1       -0.5170
      4 O          20.6121   74.0277   -5.3180 O.3     1  UNL1       -0.3112
      5 C          20.2629   75.1936   -4.5913 C.3     1  UNL1        0.1811
      6 O          18.6798   75.2193   -6.3989 O.3     1  UNL1       -0.3308
      7 O          16.6208   75.9293   -4.3379 O.3     1  UNL1       -0.3794
      8 O          16.1890   73.2638   -4.7173 O.3     1  UNL1       -0.3779
      9 C          17.7492   75.0623   -4.2259 C.3     1  UNL1        0.1713
     10 C          17.4882   73.7632   -4.9585 C.3     1  UNL1        0.1895
     11 C          18.8868   75.6644   -5.0401 C.3     1  UNL1        0.1764
     12 C          17.6977   74.1701   -6.4072 C.3     1  UNL1        0.2383
     13 H          16.8485   76.7610   -3.8884 H       1  UNL1        0.2105
     14 H          16.0994   73.1325   -3.7577 H       1  UNL1        0.2106
     15 O          17.8324   74.2241   -9.2275 O.2     1  UNL1       -0.2464
     16 O          19.5568   69.9542   -9.4093 O.2     1  UNL1       -0.2670
     17 N          18.1781   73.0870   -7.2168 N.ar    1  UNL1       -0.2551
     18 N          18.6905   72.0976   -9.3162 N.ar    1  UNL1       -0.2743
     19 C          18.2037   73.2151   -8.6252 C.ar    1  UNL1        0.3323
     20 C          18.6174   71.9133   -6.6145 C.ar    1  UNL1        0.0869
     21 C          19.0792   70.8568   -7.2872 C.ar    1  UNL1        0.0795
     22 C          19.1381   70.9087   -8.7614 C.ar    1  UNL1        0.2626
     23 H          18.7175   72.1670  -10.3299 H       1  UNL1        0.1734
     24 O          21.1646   71.9942   -3.9164 O.3     1  UNL1       -0.2703
     25 P          21.8007   70.8577   -2.9591 P.3     1  UNL1        0.2208
     26 O          23.3910   71.0044   -3.2150 O.3     1  UNL1       -0.4371
     27 O          21.2590   69.4773   -3.1979 O.2     1  UNL1       -0.5170
     28 O          21.5752   71.4122   -1.4606 O.3     1  UNL1       -0.2858
     29 O          23.1790   72.9085   -0.5726 O.3     1  UNL1       -0.3226
     30 O          21.1008   71.7382    2.8319 O.3     1  UNL1       -0.3794
     31 O          21.7764   69.7929    0.7666 O.3     1  UNL1       -0.3775
     32 O          23.0249   73.6181    2.2043 O.3     1  UNL1       -0.3792
     33 C          21.3194   72.0755    1.4649 C.3     1  UNL1        0.1718
     34 C          22.3219   71.1065    0.8290 C.3     1  UNL1        0.1968
     35 C          21.8544   73.5081    1.3878 C.3     1  UNL1        0.1723
     36 C          22.6939   71.5619   -0.5875 C.3     1  UNL1        0.2706
     37 C          22.2291   73.8390   -0.0552 C.3     1  UNL1        0.1830
     38 H          20.4635   72.3774    3.1935 H       1  UNL1        0.2105
     39 H          22.4408   69.2189    0.3496 H       1  UNL1        0.2106
     40 H          23.7592   73.1674    1.7539 H       1  UNL1        0.2106
     41 O          22.0533   76.0658   -0.7721 O.co2   1  UNL1       -0.5466
     42 O          23.9946   75.4563    0.2558 O.co2   1  UNL1       -0.5466
     43 C          22.8772   75.1830   -0.1579 C.2     1  UNL1        0.0799
@<TRIPOS>UNITY_ATOM_ATTR
41 1
charge -1
@<TRIPOS>BOND
     1     1     4    1
     2     1    24    1
     3     1     2    1
     4     1     3    2
     5    25    28    1
     6    25    24    1
     7    25    26    1
     8    25    27    2
     9     6    11    1
    10     6    12    1
    11    29    36    1
    12    29    37    1
    13     7     9    1
    14     7    13    1
    15     8    10    1
    16     8    14    1
    17     4     5    1
    18    28    36    1
    19    30    33    1
    20    30    38    1
    21    31    34    1
    22    31    39    1
    23    32    35    1
    24    32    40    1
    25    41    43   ar
    26    15    19    2
    27    42    43   ar
    28    16    22    2
    29    17    12    1
    30    17    19   ar
    31    17    20   ar
    32    18    19   ar
    33    18    22   ar
    34    18    23    1
    35     9    10    1
    36     9    11    1
    37    10    12    1
    38    11     5    1
    39    33    34    1
    40    33    35    1
    41    34    36    1
    42    35    37    1
    43    37    43    1
    44    20    21   ar
    45    21    22   ar
@<TRIPOS>MOLECULE
UDP-glaA
 43 45 0 0 0
SMALL
GASTEIGER

@<TRIPOS>ATOM
      1 P          21.6149   70.3934   -0.6179 P.3     1  UNL1        0.2189
      2 O          22.9488   70.7637   -1.4551 O.3     1  UNL1       -0.4371
      3 O          21.7611   69.2361    0.3262 O.2     1  UNL1       -0.5170
      4 O          20.4738   70.2347   -1.7529 O.3     1  UNL1       -0.3112
      5 C          20.5655   71.0315   -2.9217 C.3     1  UNL1        0.1811
      6 O          19.2724   72.5772   -4.2305 O.3     1  UNL1       -0.3308
      7 O          17.3683   72.6550   -1.9153 O.3     1  UNL1       -0.3794
      8 O          16.1170   70.9731   -3.6592 O.3     1  UNL1       -0.3779
      9 C          18.1275   71.5583   -2.4239 C.3     1  UNL1        0.1713
     10 C          17.5257   71.0594   -3.7206 C.3     1  UNL1        0.1895
     11 C          19.4767   72.0944   -2.8842 C.3     1  UNL1        0.1764
     12 C          18.0039   72.1050   -4.7136 C.3     1  UNL1        0.2383
     13 H          17.8125   72.9652   -1.1078 H       1  UNL1        0.2105
     14 H          15.8922   70.3697   -2.9301 H       1  UNL1        0.2106
     15 O          15.9059   71.7066   -6.5615 O.2     1  UNL1       -0.2464
     16 O          18.7856   70.0389   -9.7497 O.2     1  UNL1       -0.2670
     17 N          18.1769   71.5689   -6.0334 N.ar    1  UNL1       -0.2551
     18 N          17.3412   70.8759   -8.1477 N.ar    1  UNL1       -0.2743
     19 C          17.0575   71.4081   -6.8830 C.ar    1  UNL1        0.3323
     20 C          19.4454   71.2084   -6.4744 C.ar    1  UNL1        0.0869
     21 C          19.6996   70.7028   -7.6833 C.ar    1  UNL1        0.0795
     22 C          18.5855   70.5022   -8.6311 C.ar    1  UNL1        0.2626
     23 H          16.5514   70.7509   -8.7752 H       1  UNL1        0.1734
     24 O          21.2304   71.7956    0.0900 O.3     1  UNL1       -0.2703
     25 P          21.8991   72.5701    1.3413 P.3     1  UNL1        0.2208
     26 O          22.7489   73.7514    0.6353 O.3     1  UNL1       -0.4371
     27 O          22.7029   71.6881    2.2533 O.2     1  UNL1       -0.5170
     28 O          20.6678   73.3260    2.0597 O.3     1  UNL1       -0.2858
     29 O          20.1958   75.5590    2.6843 O.3     1  UNL1       -0.3226
     30 O          18.7965   73.4230    5.9643 O.3     1  UNL1       -0.3794
     31 O          21.2995   72.6752    4.6674 O.3     1  UNL1       -0.3775
     32 O          18.6995   76.0400    5.0861 O.3     1  UNL1       -0.3792
     33 C          19.1004   73.7077    4.6017 C.3     1  UNL1        0.1718
     34 C          20.6102   73.8958    4.4188 C.3     1  UNL1        0.1968
     35 C          18.3595   74.9813    4.1848 C.3     1  UNL1        0.1723
     36 C          20.9301   74.3705    2.9959 C.3     1  UNL1        0.2706
     37 C          18.7828   75.3825    2.7734 C.3     1  UNL1        0.1830
     38 H          17.8327   73.3143    6.0334 H       1  UNL1        0.2105
     39 H          22.2475   72.8405    4.5306 H       1  UNL1        0.2106
     40 H          19.6060   76.3324    4.8912 H       1  UNL1        0.2106
     41 O          19.0284   77.3818    1.5708 O.co2   1  UNL1       -0.5466
     42 O          17.0791   77.0925    2.7169 O.co2   1  UNL1       -0.5466
     43 C          18.1822   76.6926    2.3736 C.2     1  UNL1        0.0799
@<TRIPOS>UNITY_ATOM_ATTR
41 1
charge -1
@<TRIPOS>BOND
     1     1     4    1
     2     1    24    1
     3     1     2    1
     4     1     3    2
     5    25    28    1
     6    25    24    1
     7    25    26    1
     8    25    27    2
     9     6    11    1
    10     6    12    1
    11    29    36    1
    12    29    37    1
    13     7     9    1
    14     7    13    1
    15     8    10    1
    16     8    14    1
    17     4     5    1
    18    28    36    1
    19    30    33    1
    20    30    38    1
    21    31    34    1
    22    31    39    1
    23    32    35    1
    24    32    40    1
    25    41    43   ar
    26    15    19    2
    27    42    43   ar
    28    16    22    2
    29    17    12    1
    30    17    19   ar
    31    17    20   ar
    32    18    19   ar
    33    18    22   ar
    34    18    23    1
    35     9    10    1
    36     9    11    1
    37    10    12    1
    38    11     5    1
    39    33    34    1
    40    33    35    1
    41    34    36    1
    42    35    37    1
    43    37    43    1
    44    20    21   ar
    45    21    22   ar
@<TRIPOS>MOLECULE
UDP-glaA
 43 45 0 0 0
SMALL
GASTEIGER

@<TRIPOS>ATOM
      1 P          21.6490   73.6527   -5.7339 P.3     1  UNL1        0.2189
      2 O          21.5294   75.1571   -6.3171 O.3     1  UNL1       -0.4371
      3 O          22.4820   72.7177   -6.5609 O.2     1  UNL1       -0.5170
      4 O          20.1135   73.2034   -5.4970 O.3     1  UNL1       -0.3112
      5 C          19.8123   71.8191   -5.4502 C.3     1  UNL1        0.1811
      6 O          17.5530   72.6374   -5.4577 O.3     1  UNL1       -0.3308
      7 O          16.7914   69.9988   -4.2539 O.3     1  UNL1       -0.3794
      8 O          16.1080   69.6774   -6.8741 O.3     1  UNL1       -0.3779
      9 C          17.7908   70.2913   -5.2303 C.3     1  UNL1        0.1713
     10 C          17.1471   70.5844   -6.5691 C.3     1  UNL1        0.1895
     11 C          18.4149   71.6346   -4.8758 C.3     1  UNL1        0.1764
     12 C          16.6440   72.0045   -6.3734 C.3     1  UNL1        0.2383
     13 H          17.2469   69.8567   -3.4066 H       1  UNL1        0.2105
     14 H          16.4905   68.7831   -6.8736 H       1  UNL1        0.2106
     15 O          18.6980   71.9583   -8.3111 O.2     1  UNL1       -0.2464
     16 O          16.4437   74.9128  -11.0365 O.2     1  UNL1       -0.2670
     17 N          16.6197   72.7512   -7.5986 N.ar    1  UNL1       -0.2551
     18 N          17.5743   73.4300   -9.6667 N.ar    1  UNL1       -0.2743
     19 C          17.7025   72.6587   -8.5040 C.ar    1  UNL1        0.3323
     20 C          15.5312   73.5648   -7.8930 C.ar    1  UNL1        0.0869
     21 C          15.4236   74.2937   -9.0061 C.ar    1  UNL1        0.0795
     22 C          16.5117   74.2541  -10.0033 C.ar    1  UNL1        0.2626
     23 H          18.3412   73.3795  -10.3318 H       1  UNL1        0.1734
     24 O          22.1943   73.8894   -4.2300 O.3     1  UNL1       -0.2703
     25 P          23.4146   73.2011   -3.4241 P.3     1  UNL1        0.2208
     26 O          24.7091   74.0240   -3.9372 O.3     1  UNL1       -0.4371
     27 O          23.5128   71.7136   -3.6077 O.2     1  UNL1       -0.5170
     28 O          23.2114   73.6719   -1.8941 O.3     1  UNL1       -0.2858
     29 O          21.5221   72.1733   -1.1871 O.3     1  UNL1       -0.3226
     30 O          22.6962   73.9168    2.3991 O.3     1  UNL1       -0.3794
     31 O          22.4208   75.5322   -0.0135 O.3     1  UNL1       -0.3775
     32 O          21.0650   71.8263    1.6252 O.3     1  UNL1       -0.3792
     33 C          22.8166   73.3971    1.0779 C.3     1  UNL1        0.1718
     34 C          21.9414   74.1971    0.1071 C.3     1  UNL1        0.1968
     35 C          22.3856   71.9278    1.0825 C.3     1  UNL1        0.1723
     36 C          21.9300   73.5422   -1.2798 C.3     1  UNL1        0.2706
     37 C          22.3716   71.3926   -0.3477 C.3     1  UNL1        0.1830
     38 H          23.2635   73.3800    2.9783 H       1  UNL1        0.2105
     39 H          21.8431   75.9956   -0.6431 H       1  UNL1        0.2106
     40 H          20.4333   72.1579    0.9648 H       1  UNL1        0.2106
     41 O          22.1321   69.3226    0.7299 O.co2   1  UNL1       -0.5466
     42 O          21.2036   69.5279   -1.3420 O.co2   1  UNL1       -0.5466
     43 C          21.8322   69.9988   -0.4052 C.2     1  UNL1        0.0799
@<TRIPOS>UNITY_ATOM_ATTR
41 1
charge -1
@<TRIPOS>BOND
     1     1     4    1
     2     1    24    1
     3     1     2    1
     4     1     3    2
     5    25    28    1
     6    25    24    1
     7    25    26    1
     8    25    27    2
     9     6    11    1
    10     6    12    1
    11    29    36    1
    12    29    37    1
    13     7     9    1
    14     7    13    1
    15     8    10    1
    16     8    14    1
    17     4     5    1
    18    28    36    1
    19    30    33    1
    20    30    38    1
    21    31    34    1
    22    31    39    1
    23    32    35    1
    24    32    40    1
    25    41    43   ar
    26    15    19    2
    27    42    43   ar
    28    16    22    2
    29    17    12    1
    30    17    19   ar
    31    17    20   ar
    32    18    19   ar
    33    18    22   ar
    34    18    23    1
    35     9    10    1
    36     9    11    1
    37    10    12    1
    38    11     5    1
    39    33    34    1
    40    33    35    1
    41    34    36    1
    42    35    37    1
    43    37    43    1
    44    20    21   ar
    45    21    22   ar
@<TRIPOS>MOLECULE
UDP-glaA
 43 45 0 0 0
SMALL
GASTEIGER

@<TRIPOS>ATOM
      1 P          23.4602   74.3903   -4.0757 P.3     1  UNL1        0.2189
      2 O          24.0868   72.9013   -3.9885 O.3     1  UNL1       -0.4371
      3 O          24.3777   75.4305   -4.6487 O.2     1  UNL1       -0.5170
      4 O          22.9231   74.6755   -2.5771 O.3     1  UNL1       -0.3112
      5 C          23.4491   73.9039   -1.5107 C.3     1  UNL1        0.1811
      6 O          22.7641   72.6046    0.3911 O.3     1  UNL1       -0.3308
      7 O          19.9652   72.9183   -0.6380 O.3     1  UNL1       -0.3794
      8 O          20.0783   74.7754    1.3554 O.3     1  UNL1       -0.3779
      9 C          21.0489   73.8468   -0.6709 C.3     1  UNL1        0.1713
     10 C          21.2844   74.4282    0.7072 C.3     1  UNL1        0.1895
     11 C          22.3324   73.0623   -0.9094 C.3     1  UNL1        0.1764
     12 C          22.0182   73.2964    1.4062 C.3     1  UNL1        0.2383
     13 H          19.8772   72.5438   -1.5311 H       1  UNL1        0.2105
     14 H          19.6186   75.4215    0.7919 H       1  UNL1        0.2106
     15 O          22.0533   72.3875    4.0798 O.2     1  UNL1       -0.2464
     16 O          25.5449   75.1876    5.1782 O.2     1  UNL1       -0.2670
     17 N          22.9258   73.7701    2.4118 N.ar    1  UNL1       -0.2551
     18 N          23.7916   73.7828    4.6251 N.ar    1  UNL1       -0.2743
     19 C          22.8599   73.2490    3.7251 C.ar    1  UNL1        0.3323
     20 C          23.8686   74.7410    2.0926 C.ar    1  UNL1        0.0869
     21 C          24.7505   75.2394    2.9619 C.ar    1  UNL1        0.0795
     22 C          24.7477   74.7494    4.3545 C.ar    1  UNL1        0.2626
     23 H          23.7622   73.4233    5.5754 H       1  UNL1        0.1734
     24 O          22.0958   74.1608   -4.9129 O.3     1  UNL1       -0.2703
     25 P          21.8409   73.9974   -6.5007 P.3     1  UNL1        0.2208
     26 O          22.7074   72.6861   -6.8826 O.3     1  UNL1       -0.4371
     27 O          22.1767   75.2190   -7.3074 O.2     1  UNL1       -0.5170
     28 O          20.3040   73.5207   -6.6212 O.3     1  UNL1       -0.2858
     29 O          18.8779   71.6393   -6.4594 O.3     1  UNL1       -0.3226
     30 O          18.1710   72.9366  -10.3448 O.3     1  UNL1       -0.3794
     31 O          20.8764   72.9255   -9.2557 O.3     1  UNL1       -0.3775
     32 O          17.0779   71.0741   -8.6225 O.3     1  UNL1       -0.3792
     33 C          18.4669   73.0225   -8.9537 C.3     1  UNL1        0.1718
     34 C          19.7690   72.2789   -8.6373 C.3     1  UNL1        0.1968
     35 C          17.3082   72.4098   -8.1621 C.3     1  UNL1        0.1723
     36 C          20.0060   72.2187   -7.1232 C.3     1  UNL1        0.2706
     37 C          17.6681   72.3630   -6.6788 C.3     1  UNL1        0.1830
     38 H          17.3399   73.4175  -10.4982 H       1  UNL1        0.2105
     39 H          21.6765   72.4263   -9.0201 H       1  UNL1        0.2106
     40 H          17.7933   70.5054   -8.2909 H       1  UNL1        0.2106
     41 O          16.7448   70.3112   -6.0144 O.co2   1  UNL1       -0.5466
     42 O          15.7638   72.2024   -5.2031 O.co2   1  UNL1       -0.5466
     43 C          16.6188   71.6538   -5.8832 C.2     1  UNL1        0.0799
@<TRIPOS>UNITY_ATOM_ATTR
41 1
charge -1
@<TRIPOS>BOND
     1     1     4    1
     2     1    24    1
     3     1     2    1
     4     1     3    2
     5    25    28    1
     6    25    24    1
     7    25    26    1
     8    25    27    2
     9     6    11    1
    10     6    12    1
    11    29    36    1
    12    29    37    1
    13     7     9    1
    14     7    13    1
    15     8    10    1
    16     8    14    1
    17     4     5    1
    18    28    36    1
    19    30    33    1
    20    30    38    1
    21    31    34    1
    22    31    39    1
    23    32    35    1
    24    32    40    1
    25    41    43   ar
    26    15    19    2
    27    42    43   ar
    28    16    22    2
    29    17    12    1
    30    17    19   ar
    31    17    20   ar
    32    18    19   ar
    33    18    22   ar
    34    18    23    1
    35     9    10    1
    36     9    11    1
    37    10    12    1
    38    11     5    1
    39    33    34    1
    40    33    35    1
    41    34    36    1
    42    35    37    1
    43    37    43    1
    44    20    21   ar
    45    21    22   ar
@<TRIPOS>MOLECULE
UDP-glaA
 43 45 0 0 0
SMALL
GASTEIGER

@<TRIPOS>ATOM
      1 P          22.7187   71.8833   -2.4989 P.3     1  UNL1        0.2189
      2 O          23.1634   73.2747   -1.8033 O.3     1  UNL1       -0.4371
      3 O          23.3503   71.6124   -3.8330 O.2     1  UNL1       -0.5170
      4 O          21.1025   71.9397   -2.4848 O.3     1  UNL1       -0.3112
      5 C          20.3896   71.1760   -3.4428 C.3     1  UNL1        0.1811
      6 O          18.1147   71.3425   -2.6871 O.3     1  UNL1       -0.3308
      7 O          18.1308   68.3462   -2.5707 O.3     1  UNL1       -0.3794
      8 O          16.8188   68.8442   -4.9087 O.3     1  UNL1       -0.3779
      9 C          18.7683   69.2172   -3.5048 C.3     1  UNL1        0.1713
     10 C          17.7470   69.8073   -4.4542 C.3     1  UNL1        0.1895
     11 C          19.2479   70.4484   -2.7473 C.3     1  UNL1        0.1764
     12 C          17.1010   70.8812   -3.5955 C.3     1  UNL1        0.2383
     13 H          18.8161   68.0239   -1.9607 H       1  UNL1        0.2105
     14 H          17.3217   68.1392   -5.3516 H       1  UNL1        0.2106
     15 O          18.2109   71.6931   -6.0621 O.2     1  UNL1       -0.2464
     16 O          15.2051   75.1611   -6.4816 O.2     1  UNL1       -0.2670
     17 N          16.6280   71.9922   -4.3709 N.ar    1  UNL1       -0.2551
     18 N          16.7137   73.4198   -6.2691 N.ar    1  UNL1       -0.2743
     19 C          17.2559   72.3171   -5.5960 C.ar    1  UNL1        0.3323
     20 C          15.5529   72.7474   -3.9157 C.ar    1  UNL1        0.0869
     21 C          15.0473   73.7957   -4.5694 C.ar    1  UNL1        0.0795
     22 C          15.6461   74.2017   -5.8563 C.ar    1  UNL1        0.2626
     23 H          17.1497   73.6721   -7.1520 H       1  UNL1        0.1734
     24 O          23.0537   70.7855   -1.3598 O.3     1  UNL1       -0.2703
     25 P          22.3793   70.5163    0.0843 P.3     1  UNL1        0.2208
     26 O          23.5067   69.6600    0.8665 O.3     1  UNL1       -0.4371
     27 O          21.0319   69.8558    0.0213 O.2     1  UNL1       -0.5170
     28 O          22.3824   71.9566    0.8119 O.3     1  UNL1       -0.2858
     29 O          21.5847   72.4539    2.9835 O.3     1  UNL1       -0.3226
     30 O          21.0862   76.0837    1.0200 O.3     1  UNL1       -0.3794
     31 O          20.4538   73.5734   -0.3234 O.3     1  UNL1       -0.3775
     32 O          20.8897   75.1656    3.6178 O.3     1  UNL1       -0.3792
     33 C          21.6764   74.8317    1.3584 C.3     1  UNL1        0.1718
     34 C          20.6992   73.6860    1.0745 C.3     1  UNL1        0.1968
     35 C          22.0501   74.8457    2.8432 C.3     1  UNL1        0.1723
     36 C          21.2570   72.3550    1.5936 C.3     1  UNL1        0.2706
     37 C          22.5530   73.4649    3.2588 C.3     1  UNL1        0.1830
     38 H          21.7375   76.7781    1.2179 H       1  UNL1        0.2105
     39 H          19.8394   72.8317   -0.4546 H       1  UNL1        0.2106
     40 H          20.3011   74.3919    3.6263 H       1  UNL1        0.2106
     41 O          24.0203   73.9193    5.0320 O.co2   1  UNL1       -0.5466
     42 O          22.0322   72.9345    5.5560 O.co2   1  UNL1       -0.5466
     43 C          22.8076   73.3956    4.7310 C.2     1  UNL1        0.0799
@<TRIPOS>UNITY_ATOM_ATTR
41 1
charge -1
@<TRIPOS>BOND
     1     1     4    1
     2     1    24    1
     3     1     2    1
     4     1     3    2
     5    25    28    1
     6    25    24    1
     7    25    26    1
     8    25    27    2
     9     6    11    1
    10     6    12    1
    11    29    36    1
    12    29    37    1
    13     7     9    1
    14     7    13    1
    15     8    10    1
    16     8    14    1
    17     4     5    1
    18    28    36    1
    19    30    33    1
    20    30    38    1
    21    31    34    1
    22    31    39    1
    23    32    35    1
    24    32    40    1
    25    41    43   ar
    26    15    19    2
    27    42    43   ar
    28    16    22    2
    29    17    12    1
    30    17    19   ar
    31    17    20   ar
    32    18    19   ar
    33    18    22   ar
    34    18    23    1
    35     9    10    1
    36     9    11    1
    37    10    12    1
    38    11     5    1
    39    33    34    1
    40    33    35    1
    41    34    36    1
    42    35    37    1
    43    37    43    1
    44    20    21   ar
    45    21    22   ar
@<TRIPOS>MOLECULE
UDP-glaA
 43 45 0 0 0
SMALL
GASTEIGER

@<TRIPOS>ATOM
      1 P          21.7650   74.6499   -5.9402 P.3     1  UNL1        0.2189
      2 O          21.3421   76.1892   -5.6775 O.3     1  UNL1       -0.4371
      3 O          23.0031   74.4661   -6.7683 O.2     1  UNL1       -0.5170
      4 O          20.4197   73.9708   -6.5271 O.3     1  UNL1       -0.3112
      5 C          19.7300   74.6298   -7.5756 C.3     1  UNL1        0.1811
      6 O          19.5394   72.2917   -8.0965 O.3     1  UNL1       -0.3308
      7 O          17.8540   73.1398  -10.4271 O.3     1  UNL1       -0.3794
      8 O          15.9908   72.3301   -8.6081 O.3     1  UNL1       -0.3779
      9 C          17.9324   73.7018   -9.1172 C.3     1  UNL1        0.1713
     10 C          17.2270   72.8081   -8.1192 C.3     1  UNL1        0.1895
     11 C          19.3810   73.6148   -8.6547 C.3     1  UNL1        0.1764
     12 C          18.2435   71.6974   -7.9162 C.3     1  UNL1        0.2383
     13 H          18.3515   73.7247  -11.0236 H       1  UNL1        0.2105
     14 H          15.4391   73.1039   -8.8153 H       1  UNL1        0.2106
     15 O          16.1998   69.9523   -7.0482 O.2     1  UNL1       -0.2464
     16 O          18.0705   69.5523   -2.8554 O.2     1  UNL1       -0.2670
     17 N          18.1719   71.1220   -6.6035 N.ar    1  UNL1       -0.2551
     18 N          17.1324   69.7547   -4.9608 N.ar    1  UNL1       -0.2743
     19 C          17.1033   70.2581   -6.2680 C.ar    1  UNL1        0.3323
     20 C          19.1538   71.4154   -5.6637 C.ar    1  UNL1        0.0869
     21 C          19.1677   70.9270   -4.4215 C.ar    1  UNL1        0.0795
     22 C          18.0871   70.0179   -3.9907 C.ar    1  UNL1        0.2626
     23 H          16.3736   69.1319   -4.6972 H       1  UNL1        0.1734
     24 O          21.8577   74.0395   -4.4456 O.3     1  UNL1       -0.2703
     25 P          23.1015   73.9335   -3.4188 P.3     1  UNL1        0.2208
     26 O          23.3732   75.4732   -3.0049 O.3     1  UNL1       -0.4371
     27 O          24.3005   73.2202   -3.9752 O.2     1  UNL1       -0.5170
     28 O          22.4800   73.2574   -2.0920 O.3     1  UNL1       -0.2858
     29 O          23.0603   72.2989   -0.0077 O.3     1  UNL1       -0.3226
     30 O          20.9094   69.2312   -1.8084 O.3     1  UNL1       -0.3794
     31 O          22.7977   70.8246   -3.3581 O.3     1  UNL1       -0.3775
     32 O          21.9724   69.7362    0.6906 O.3     1  UNL1       -0.3792
     33 C          21.2865   70.5637   -1.4727 C.3     1  UNL1        0.1718
     34 C          22.7193   70.8466   -1.9367 C.3     1  UNL1        0.1968
     35 C          21.1828   70.7403    0.0447 C.3     1  UNL1        0.1723
     36 C          23.1943   72.2142   -1.4304 C.3     1  UNL1        0.2706
     37 C          21.7178   72.1152    0.4391 C.3     1  UNL1        0.1830
     38 H          19.9991   69.0961   -1.4945 H       1  UNL1        0.2105
     39 H          23.7181   71.0175   -3.6042 H       1  UNL1        0.2106
     40 H          22.9112   69.9658    0.5844 H       1  UNL1        0.2106
     41 O          22.8473   72.9930    2.2986 O.co2   1  UNL1       -0.5466
     42 O          20.9207   71.8429    2.7019 O.co2   1  UNL1       -0.5466
     43 C          21.7562   72.2819    1.9249 C.2     1  UNL1        0.0799
@<TRIPOS>UNITY_ATOM_ATTR
41 1
charge -1
@<TRIPOS>BOND
     1     1     4    1
     2     1    24    1
     3     1     2    1
     4     1     3    2
     5    25    28    1
     6    25    24    1
     7    25    26    1
     8    25    27    2
     9     6    11    1
    10     6    12    1
    11    29    36    1
    12    29    37    1
    13     7     9    1
    14     7    13    1
    15     8    10    1
    16     8    14    1
    17     4     5    1
    18    28    36    1
    19    30    33    1
    20    30    38    1
    21    31    34    1
    22    31    39    1
    23    32    35    1
    24    32    40    1
    25    41    43   ar
    26    15    19    2
    27    42    43   ar
    28    16    22    2
    29    17    12    1
    30    17    19   ar
    31    17    20   ar
    32    18    19   ar
    33    18    22   ar
    34    18    23    1
    35     9    10    1
    36     9    11    1
    37    10    12    1
    38    11     5    1
    39    33    34    1
    40    33    35    1
    41    34    36    1
    42    35    37    1
    43    37    43    1
    44    20    21   ar
    45    21    22   ar
@<TRIPOS>MOLECULE
UDP-glaA
 43 45 0 0 0
SMALL
GASTEIGER

@<TRIPOS>ATOM
      1 P          22.1259   72.6957   -4.5324 P.3     1  UNL1        0.2189
      2 O          22.0898   72.6326   -6.1486 O.3     1  UNL1       -0.4371
      3 O          23.3793   72.1586   -3.9058 O.2     1  UNL1       -0.5170
      4 O          20.7503   71.9735   -4.0833 O.3     1  UNL1       -0.3112
      5 C          19.9108   71.4307   -5.0882 C.3     1  UNL1        0.1811
      6 O          17.6824   72.3120   -4.9106 O.3     1  UNL1       -0.3308
      7 O          16.8567   69.5500   -4.0855 O.3     1  UNL1       -0.3794
      8 O          16.1000   69.6405   -6.7037 O.3     1  UNL1       -0.3779
      9 C          17.8422   69.9517   -5.0368 C.3     1  UNL1        0.1713
     10 C          17.1777   70.4593   -6.2990 C.3     1  UNL1        0.1895
     11 C          18.5218   71.2076   -4.5072 C.3     1  UNL1        0.1764
     12 C          16.7300   71.8501   -5.8827 C.3     1  UNL1        0.2383
     13 H          17.3269   69.2701   -3.2816 H       1  UNL1        0.2105
     14 H          16.4506   68.7442   -6.8454 H       1  UNL1        0.2106
     15 O          14.8311   73.9181   -6.1883 O.2     1  UNL1       -0.2464
     16 O          16.7226   75.3181  -10.1507 O.2     1  UNL1       -0.2670
     17 N          16.7030   72.7699   -6.9839 N.ar    1  UNL1       -0.2551
     18 N          15.7739   74.6135   -8.1614 N.ar    1  UNL1       -0.2743
     19 C          15.7064   73.7719   -7.0434 C.ar    1  UNL1        0.3323
     20 C          17.6572   72.6738   -7.9908 C.ar    1  UNL1        0.0869
     21 C          17.7085   73.4843   -9.0502 C.ar    1  UNL1        0.0795
     22 C          16.7034   74.5568   -9.1884 C.ar    1  UNL1        0.2626
     23 H          15.0669   75.3410   -8.2254 H       1  UNL1        0.1734
     24 O          21.8341   74.2562   -4.2241 O.3     1  UNL1       -0.2703
     25 P          21.2935   74.9902   -2.8893 P.3     1  UNL1        0.2208
     26 O          19.6913   74.7865   -2.9769 O.3     1  UNL1       -0.4371
     27 O          21.7301   76.4208   -2.7533 O.2     1  UNL1       -0.5170
     28 O          21.7614   74.0323   -1.6779 O.3     1  UNL1       -0.2858
     29 O          20.7262   72.1400   -0.7048 O.3     1  UNL1       -0.3226
     30 O          22.6132   73.8788    2.5656 O.3     1  UNL1       -0.3794
     31 O          21.2590   75.5348    0.5833 O.3     1  UNL1       -0.3775
     32 O          21.2756   71.5191    2.0432 O.3     1  UNL1       -0.3792
     33 C          22.4050   73.4859    1.2119 C.3     1  UNL1        0.1718
     34 C          21.1226   74.1199    0.6625 C.3     1  UNL1        0.1968
     35 C          22.3032   71.9594    1.1493 C.3     1  UNL1        0.1723
     36 C          20.7987   73.5693   -0.7319 C.3     1  UNL1        0.2706
     37 C          21.9389   71.5271   -0.2693 C.3     1  UNL1        0.1830
     38 H          23.4321   73.4533    2.8720 H       1  UNL1        0.2105
     39 H          20.4291   75.8898    0.2225 H       1  UNL1        0.2106
     40 H          20.4123   71.7356    1.6520 H       1  UNL1        0.2106
     41 O          20.6630   69.7785   -1.1738 O.co2   1  UNL1       -0.5466
     42 O          22.3526   69.2046    0.2450 O.co2   1  UNL1       -0.5466
     43 C          21.7016   70.0525   -0.3481 C.2     1  UNL1        0.0799
@<TRIPOS>UNITY_ATOM_ATTR
41 1
charge -1
@<TRIPOS>BOND
     1     1     4    1
     2     1    24    1
     3     1     2    1
     4     1     3    2
     5    25    28    1
     6    25    24    1
     7    25    26    1
     8    25    27    2
     9     6    11    1
    10     6    12    1
    11    29    36    1
    12    29    37    1
    13     7     9    1
    14     7    13    1
    15     8    10    1
    16     8    14    1
    17     4     5    1
    18    28    36    1
    19    30    33    1
    20    30    38    1
    21    31    34    1
    22    31    39    1
    23    32    35    1
    24    32    40    1
    25    41    43   ar
    26    15    19    2
    27    42    43   ar
    28    16    22    2
    29    17    12    1
    30    17    19   ar
    31    17    20   ar
    32    18    19   ar
    33    18    22   ar
    34    18    23    1
    35     9    10    1
    36     9    11    1
    37    10    12    1
    38    11     5    1
    39    33    34    1
    40    33    35    1
    41    34    36    1
    42    35    37    1
    43    37    43    1
    44    20    21   ar
    45    21    22   ar
