@<TRIPOS>MOLECULE
*****
 43 45 0 0 0
SMALL
GASTEIGER

@<TRIPOS>ATOM
      1 P          22.9805   71.3701   -2.4155 P.3     1  UNL1        0.2189
      2 O          22.7963   72.9758   -2.4887 O.co2   1  UNL1       -0.4371
      3 O          24.2025   70.8403   -3.1064 O.2     1  UNL1       -0.5170
      4 O          21.5662   70.7923   -2.9479 O.3     1  UNL1       -0.3112
      5 C          20.9412   71.4381   -4.0435 C.3     1  UNL1        0.1811
      6 O          18.7913   72.0035   -4.9555 O.3     1  UNL1       -0.3308
      7 O          17.6236   70.6865   -2.5280 O.3     1  UNL1       -0.3794
      8 O          17.3273   68.7695   -4.4447 O.3     1  UNL1       -0.3779
      9 C          18.7830   70.3291   -3.2785 C.3     1  UNL1        0.1713
     10 C          18.3827   69.6970   -4.5953 C.3     1  UNL1        0.1895
     11 C          19.4606   71.6148   -3.7359 C.3     1  UNL1        0.1764
     12 C          17.9823   70.9097   -5.4182 C.3     1  UNL1        0.2383
     13 H          17.1741   69.8815   -2.2248 H       1  UNL1        0.2105
     14 H          17.6315   68.0166   -3.9143 H       1  UNL1        0.2106
     15 O          15.9607   70.3395   -7.3065 O.2     1  UNL1       -0.2464
     16 O          18.9885   70.1988  -10.7784 O.2     1  UNL1       -0.2670
     17 N          18.2142   70.7196   -6.8223 N.ar    1  UNL1       -0.2551
     18 N          17.4699   70.2701   -9.0337 N.ar    1  UNL1       -0.2743
     19 C          17.1298   70.4364   -7.6851 C.ar    1  UNL1        0.3323
     20 C          19.5051   70.8148   -7.3306 C.ar    1  UNL1        0.0869
     21 C          19.8128   70.6523   -8.6191 C.ar    1  UNL1        0.0795
     22 C          18.7377   70.3537   -9.5872 C.ar    1  UNL1        0.2626
     23 H          16.7307   70.0716   -9.6534 H       1  UNL1        0.1734
     24 O          22.9215   71.0695   -0.8283 O.3     1  UNL1       -0.2703
     25 P          21.8661   71.5388    0.3025 P.3     1  UNL1        0.2208
     26 O          21.5812   70.1789    1.1313 O.co2   1  UNL1       -0.4371
     27 O          20.6341   72.2013   -0.2428 O.2     1  UNL1       -0.5170
     28 O          22.7290   72.4575    1.3106 O.3     1  UNL1       -0.2858
     29 O          24.5426   72.1879    2.8121 O.3     1  UNL1       -0.3258
     30 O          21.9234   74.1946    5.2948 O.3     1  UNL1       -0.3794
     31 O          24.2349   75.5585    4.2727 O.3     1  UNL1       -0.3794
     32 O          20.9223   72.2072    3.4433 O.3     1  UNL1       -0.3775
     33 C          22.5524   73.8729    4.0513 C.3     1  UNL1        0.1715
     34 C          24.0513   74.1481    4.1868 C.3     1  UNL1        0.1694
     35 C          22.3029   72.4001    3.7319 C.3     1  UNL1        0.1967
     36 C          24.8291   73.5797    2.9922 C.3     1  UNL1        0.1761
     37 C          23.1614   71.9231    2.5591 C.3     1  UNL1        0.2704
     38 H          22.0776   75.1285    5.5032 H       1  UNL1        0.2105
     39 H          23.7383   75.9048    5.0307 H       1  UNL1        0.2105
     40 H          20.3895   72.5127    4.1934 H       1  UNL1        0.2106
     41 O          26.5937   74.0969    4.5179 O.3     1  UNL1       -0.3794
     42 C          26.3393   73.7034    3.1819 C.3     1  UNL1        0.1693
     43 H          27.5511   74.1793    4.6533 H       1  UNL1        0.2105
@<TRIPOS>UNITY_ATOM_ATTR
2 1
charge -1
26 1
charge -1
@<TRIPOS>BOND
     1    25    28    1
     2    25    24    1
     3    25    26    1
     4    25    27    2
     5     1     4    1
     6     1    24    1
     7     1     2    1
     8     1     3    2
     9     6    11    1
    10     6    12    1
    11    29    36    1
    12    29    37    1
    13     7     9    1
    14     7    13    1
    15     8    10    1
    16     8    14    1
    17    28    37    1
    18     4     5    1
    19    30    33    1
    20    30    38    1
    21    31    34    1
    22    31    39    1
    23    32    35    1
    24    32    40    1
    25    41    42    1
    26    41    43    1
    27    15    19    2
    28    16    22    2
    29    17    12    1
    30    17    19   ar
    31    17    20   ar
    32    18    19   ar
    33    18    22   ar
    34    18    23    1
    35     9    10    1
    36     9    11    1
    37    10    12    1
    38    11     5    1
    39    33    34    1
    40    33    35    1
    41    34    36    1
    42    35    37    1
    43    36    42    1
    44    20    21   ar
    45    21    22   ar
@<TRIPOS>MOLECULE
*****
 43 45 0 0 0
SMALL
GASTEIGER

@<TRIPOS>ATOM
      1 P          19.8377   72.1423   -1.6077 P.3     1  UNL1        0.2189
      2 O          20.2097   70.7866   -0.8070 O.co2   1  UNL1       -0.4371
      3 O          18.6150   72.8564   -1.1111 O.2     1  UNL1       -0.5170
      4 O          19.8005   71.6802   -3.1578 O.3     1  UNL1       -0.3112
      5 C          19.1490   70.4653   -3.4857 C.3     1  UNL1        0.1811
      6 O          17.4409   71.3702   -4.9129 O.3     1  UNL1       -0.3308
      7 O          15.4927   69.7931   -3.2674 O.3     1  UNL1       -0.3794
      8 O          15.7752   68.2481   -5.4967 O.3     1  UNL1       -0.3779
      9 C          16.8209   69.4547   -3.6631 C.3     1  UNL1        0.1713
     10 C          16.8539   69.0845   -5.1313 C.3     1  UNL1        0.1895
     11 C          17.6570   70.7281   -3.6373 C.3     1  UNL1        0.1764
     12 C          16.7906   70.4466   -5.8012 C.3     1  UNL1        0.2383
     13 H          14.9398   68.9954   -3.2759 H       1  UNL1        0.2105
     14 H          15.8606   67.3941   -5.0450 H       1  UNL1        0.2106
     15 O          15.4955   70.7488   -8.2930 O.2     1  UNL1       -0.2464
     16 O          19.4780   70.5028  -10.5995 O.2     1  UNL1       -0.2670
     17 N          17.4647   70.4655   -7.0687 N.ar    1  UNL1       -0.2551
     18 N          17.4795   70.6263   -9.4394 N.ar    1  UNL1       -0.2743
     19 C          16.7212   70.6217   -8.2617 C.ar    1  UNL1        0.3323
     20 C          18.8478   70.3305   -7.1201 C.ar    1  UNL1        0.0869
     21 C          19.5559   70.3356   -8.2514 C.ar    1  UNL1        0.0795
     22 C          18.8553   70.4942   -9.5421 C.ar    1  UNL1        0.2626
     23 H          16.9829   70.7334  -10.2830 H       1  UNL1        0.1734
     24 O          21.2027   73.0036   -1.5180 O.3     1  UNL1       -0.2703
     25 P          22.6829   72.5973   -1.0111 P.3     1  UNL1        0.2208
     26 O          23.6512   73.2576   -2.1264 O.co2   1  UNL1       -0.4371
     27 O          22.8822   71.1226   -0.8128 O.2     1  UNL1       -0.5170
     28 O          22.9199   73.4884    0.3136 O.3     1  UNL1       -0.2858
     29 O          23.5641   71.9348    1.9832 O.3     1  UNL1       -0.3258
     30 O          23.7503   75.4088    4.2075 O.3     1  UNL1       -0.3794
     31 O          26.1809   74.0970    3.4205 O.3     1  UNL1       -0.3794
     32 O          21.6389   75.0529    2.2595 O.3     1  UNL1       -0.3775
     33 C          23.8771   74.6073    3.0298 C.3     1  UNL1        0.1715
     34 C          24.8926   73.4982    3.3115 C.3     1  UNL1        0.1694
     35 C          22.5139   74.0124    2.6818 C.3     1  UNL1        0.1967
     36 C          24.8858   72.4444    2.1959 C.3     1  UNL1        0.1761
     37 C          22.6259   72.9406    1.5961 C.3     1  UNL1        0.2704
     38 H          24.6123   75.7899    4.4337 H       1  UNL1        0.2105
     39 H          26.1715   74.7607    4.1281 H       1  UNL1        0.2105
     40 H          21.5762   75.7249    2.9555 H       1  UNL1        0.2106
     41 O          26.1126   70.5872    1.3272 O.3     1  UNL1       -0.3794
     42 C          25.7758   71.2499    2.5321 C.3     1  UNL1        0.1693
     43 H          26.6792   69.8248    1.5257 H       1  UNL1        0.2105
@<TRIPOS>UNITY_ATOM_ATTR
2 1
charge -1
26 1
charge -1
@<TRIPOS>BOND
     1    25    28    1
     2    25    24    1
     3    25    26    1
     4    25    27    2
     5     1     4    1
     6     1    24    1
     7     1     2    1
     8     1     3    2
     9     6    11    1
    10     6    12    1
    11    29    36    1
    12    29    37    1
    13     7     9    1
    14     7    13    1
    15     8    10    1
    16     8    14    1
    17    28    37    1
    18     4     5    1
    19    30    33    1
    20    30    38    1
    21    31    34    1
    22    31    39    1
    23    32    35    1
    24    32    40    1
    25    41    42    1
    26    41    43    1
    27    15    19    2
    28    16    22    2
    29    17    12    1
    30    17    19   ar
    31    17    20   ar
    32    18    19   ar
    33    18    22   ar
    34    18    23    1
    35     9    10    1
    36     9    11    1
    37    10    12    1
    38    11     5    1
    39    33    34    1
    40    33    35    1
    41    34    36    1
    42    35    37    1
    43    36    42    1
    44    20    21   ar
    45    21    22   ar
@<TRIPOS>MOLECULE
*****
 43 45 0 0 0
SMALL
GASTEIGER

@<TRIPOS>ATOM
      1 P          22.5237   71.5481   -2.9092 P.3     1  UNL1        0.2189
      2 O          22.1892   73.1036   -2.6159 O.co2   1  UNL1       -0.4371
      3 O          23.9535   71.2633   -3.2640 O.2     1  UNL1       -0.5170
      4 O          21.4256   71.1169   -4.0166 O.3     1  UNL1       -0.3112
      5 C          20.5218   70.0721   -3.7014 C.3     1  UNL1        0.1811
      6 O          18.7731   71.3952   -4.6838 O.3     1  UNL1       -0.3308
      7 O          16.9653   70.2107   -2.6054 O.3     1  UNL1       -0.3794
      8 O          16.3597   68.7459   -4.8244 O.3     1  UNL1       -0.3779
      9 C          18.0518   69.6072   -3.3059 C.3     1  UNL1        0.1713
     10 C          17.6536   69.3070   -4.7358 C.3     1  UNL1        0.1895
     11 C          19.1343   70.6631   -3.4922 C.3     1  UNL1        0.1764
     12 C          17.7413   70.6791   -5.3821 C.3     1  UNL1        0.2383
     13 H          16.2616   69.5554   -2.4742 H       1  UNL1        0.2105
     14 H          16.3553   67.8741   -4.3994 H       1  UNL1        0.2106
     15 O          15.8717   70.3227   -7.4691 O.2     1  UNL1       -0.2464
     16 O          19.1698   70.4188  -10.6869 O.2     1  UNL1       -0.2670
     17 N          18.0838   70.6078   -6.7746 N.ar    1  UNL1       -0.2551
     18 N          17.5154   70.3710   -9.0696 N.ar    1  UNL1       -0.2743
     19 C          17.0692   70.4260   -7.7430 C.ar    1  UNL1        0.3323
     20 C          19.4132   70.7181   -7.1678 C.ar    1  UNL1        0.0869
     21 C          19.8223   70.6623   -8.4369 C.ar    1  UNL1        0.0795
     22 C          18.8252   70.4742   -9.5104 C.ar    1  UNL1        0.2626
     23 H          16.8262   70.2445   -9.7615 H       1  UNL1        0.1734
     24 O          22.0017   70.8056   -1.5716 O.3     1  UNL1       -0.2703
     25 P          21.4855   71.4005   -0.1600 P.3     1  UNL1        0.2208
     26 O          21.4809   70.1050    0.8091 O.co2   1  UNL1       -0.4371
     27 O          20.1698   72.1191   -0.2393 O.2     1  UNL1       -0.5170
     28 O          22.7106   72.3051    0.3745 O.3     1  UNL1       -0.2858
     29 O          22.1536   73.5503    2.3125 O.3     1  UNL1       -0.3258
     30 O          25.7490   75.3542    1.3799 O.3     1  UNL1       -0.3794
     31 O          25.5903   73.5963    3.6453 O.3     1  UNL1       -0.3794
     32 O          23.9335   74.5739   -0.7354 O.3     1  UNL1       -0.3775
     33 C          24.8238   74.2684    1.4816 C.3     1  UNL1        0.1715
     34 C          24.4481   74.0950    2.9546 C.3     1  UNL1        0.1694
     35 C          23.5861   74.5872    0.6450 C.3     1  UNL1        0.1967
     36 C          23.2642   73.1318    3.1146 C.3     1  UNL1        0.1761
     37 C          22.4512   73.5978    0.9157 C.3     1  UNL1        0.2704
     38 H          26.5374   75.1580    1.9084 H       1  UNL1        0.2105
     39 H          26.3308   74.2135    3.5359 H       1  UNL1        0.2105
     40 H          24.6526   75.2045   -0.8938 H       1  UNL1        0.2106
     41 O          21.3562   73.0432    4.5501 O.3     1  UNL1       -0.3794
     42 C          22.7717   73.0658    4.5586 C.3     1  UNL1        0.1693
     43 H          21.0286   73.0009    5.4626 H       1  UNL1        0.2105
@<TRIPOS>UNITY_ATOM_ATTR
2 1
charge -1
26 1
charge -1
@<TRIPOS>BOND
     1    25    28    1
     2    25    24    1
     3    25    26    1
     4    25    27    2
     5     1     4    1
     6     1    24    1
     7     1     2    1
     8     1     3    2
     9     6    11    1
    10     6    12    1
    11    29    36    1
    12    29    37    1
    13     7     9    1
    14     7    13    1
    15     8    10    1
    16     8    14    1
    17    28    37    1
    18     4     5    1
    19    30    33    1
    20    30    38    1
    21    31    34    1
    22    31    39    1
    23    32    35    1
    24    32    40    1
    25    41    42    1
    26    41    43    1
    27    15    19    2
    28    16    22    2
    29    17    12    1
    30    17    19   ar
    31    17    20   ar
    32    18    19   ar
    33    18    22   ar
    34    18    23    1
    35     9    10    1
    36     9    11    1
    37    10    12    1
    38    11     5    1
    39    33    34    1
    40    33    35    1
    41    34    36    1
    42    35    37    1
    43    36    42    1
    44    20    21   ar
    45    21    22   ar
@<TRIPOS>MOLECULE
*****
 43 45 0 0 0
SMALL
GASTEIGER

@<TRIPOS>ATOM
      1 P          22.2443   73.1326   -4.7368 P.3     1  UNL1        0.2189
      2 O          22.1726   74.7488   -4.7507 O.co2   1  UNL1       -0.4371
      3 O          23.0751   72.5258   -5.8291 O.2     1  UNL1       -0.5170
      4 O          20.6928   72.6753   -4.6975 O.3     1  UNL1       -0.3112
      5 C          19.6925   73.6786   -4.6768 C.3     1  UNL1        0.1811
      6 O          17.6741   72.7311   -5.5724 O.3     1  UNL1       -0.3308
      7 O          17.2832   71.4852   -2.8732 O.3     1  UNL1       -0.3794
      8 O          18.2659   69.4125   -4.3480 O.3     1  UNL1       -0.3779
      9 C          18.4925   71.7132   -3.5951 C.3     1  UNL1        0.1713
     10 C          18.6183   70.7249   -4.7357 C.3     1  UNL1        0.1895
     11 C          18.3543   73.0376   -4.3356 C.3     1  UNL1        0.1764
     12 C          17.6632   71.3070   -5.7638 C.3     1  UNL1        0.2383
     13 H          17.3478   70.6449   -2.3919 H       1  UNL1        0.2105
     14 H          18.9031   69.0865   -3.6934 H       1  UNL1        0.2106
     15 O          15.9267   70.3416   -7.7715 O.2     1  UNL1       -0.2464
     16 O          19.3117   70.2187  -10.8968 O.2     1  UNL1       -0.2670
     17 N          18.0640   71.0146   -7.1111 N.ar    1  UNL1       -0.2551
     18 N          17.6136   70.2814   -9.3260 N.ar    1  UNL1       -0.2743
     19 C          17.1141   70.5331   -8.0418 C.ar    1  UNL1        0.3323
     20 C          19.3861   71.2059   -7.4978 C.ar    1  UNL1        0.0869
     21 C          19.8467   70.9599   -8.7261 C.ar    1  UNL1        0.0795
     22 C          18.9189   70.4545   -9.7584 C.ar    1  UNL1        0.2626
     23 H          16.9700   69.9449   -9.9911 H       1  UNL1        0.1734
     24 O          22.7579   72.8045   -3.2397 O.3     1  UNL1       -0.2703
     25 P          22.8668   71.4052   -2.4376 P.3     1  UNL1        0.2208
     26 O          24.2848   70.8035   -2.9320 O.co2   1  UNL1       -0.4371
     27 O          21.6982   70.4855   -2.6434 O.2     1  UNL1       -0.5170
     28 O          23.1188   71.8332   -0.9019 O.3     1  UNL1       -0.2858
     29 O          24.3143   70.9111    0.9249 O.3     1  UNL1       -0.3258
     30 O          20.8176   71.9293    2.8711 O.3     1  UNL1       -0.3794
     31 O          23.1998   73.4634    3.3400 O.3     1  UNL1       -0.3794
     32 O          20.7159   70.8683    0.1797 O.3     1  UNL1       -0.3775
     33 C          21.8672   72.0831    1.9118 C.3     1  UNL1        0.1715
     34 C          23.1922   72.2078    2.6665 C.3     1  UNL1        0.1694
     35 C          21.8851   70.8638    0.9918 C.3     1  UNL1        0.1967
     36 C          24.3869   72.1080    1.7085 C.3     1  UNL1        0.1761
     37 C          23.1389   70.8356    0.1158 C.3     1  UNL1        0.2704
     38 H          20.8005   72.7004    3.4581 H       1  UNL1        0.2105
     39 H          22.4402   73.5137    3.9414 H       1  UNL1        0.2105
     40 H          19.9291   70.8858    0.7460 H       1  UNL1        0.2106
     41 O          26.3499   70.8333    2.1887 O.3     1  UNL1       -0.3794
     42 C          25.7180   72.0716    2.4561 C.3     1  UNL1        0.1693
     43 H          27.1985   70.7961    2.6578 H       1  UNL1        0.2105
@<TRIPOS>UNITY_ATOM_ATTR
2 1
charge -1
26 1
charge -1
@<TRIPOS>BOND
     1    25    28    1
     2    25    24    1
     3    25    26    1
     4    25    27    2
     5     1     4    1
     6     1    24    1
     7     1     2    1
     8     1     3    2
     9     6    11    1
    10     6    12    1
    11    29    36    1
    12    29    37    1
    13     7     9    1
    14     7    13    1
    15     8    10    1
    16     8    14    1
    17    28    37    1
    18     4     5    1
    19    30    33    1
    20    30    38    1
    21    31    34    1
    22    31    39    1
    23    32    35    1
    24    32    40    1
    25    41    42    1
    26    41    43    1
    27    15    19    2
    28    16    22    2
    29    17    12    1
    30    17    19   ar
    31    17    20   ar
    32    18    19   ar
    33    18    22   ar
    34    18    23    1
    35     9    10    1
    36     9    11    1
    37    10    12    1
    38    11     5    1
    39    33    34    1
    40    33    35    1
    41    34    36    1
    42    35    37    1
    43    36    42    1
    44    20    21   ar
    45    21    22   ar
@<TRIPOS>MOLECULE
*****
 43 45 0 0 0
SMALL
GASTEIGER

@<TRIPOS>ATOM
      1 P          21.5957   72.4950   -5.0753 P.3     1  UNL1        0.2189
      2 O          20.9964   73.9973   -5.1094 O.co2   1  UNL1       -0.4371
      3 O          22.6098   72.1929   -6.1391 O.2     1  UNL1       -0.5170
      4 O          20.2807   71.5522   -5.0701 O.3     1  UNL1       -0.3112
      5 C          19.7431   71.1486   -3.8227 C.3     1  UNL1        0.1811
      6 O          17.8602   71.8008   -5.1655 O.3     1  UNL1       -0.3308
      7 O          16.1611   70.4041   -3.1276 O.3     1  UNL1       -0.3794
      8 O          16.2817   68.5804   -5.1514 O.3     1  UNL1       -0.3779
      9 C          17.4555   70.0547   -3.6153 C.3     1  UNL1        0.1713
     10 C          17.3545   69.4902   -5.0169 C.3     1  UNL1        0.1895
     11 C          18.2334   71.3441   -3.8469 C.3     1  UNL1        0.1764
     12 C          17.1636   70.7465   -5.8496 C.3     1  UNL1        0.2383
     13 H          15.6457   69.5966   -2.9718 H       1  UNL1        0.2105
     14 H          16.4500   67.7983   -4.6030 H       1  UNL1        0.2106
     15 O          15.6120   70.7156   -8.2096 O.2     1  UNL1       -0.2464
     16 O          19.3415   70.2292  -10.8734 O.2     1  UNL1       -0.2670
     17 N          17.7032   70.6134   -7.1734 N.ar    1  UNL1       -0.2551
     18 N          17.4703   70.4736   -9.5341 N.ar    1  UNL1       -0.2743
     19 C          16.8374   70.6085   -8.2918 C.ar    1  UNL1        0.3323
     20 C          19.0767   70.4899   -7.3527 C.ar    1  UNL1        0.0869
     21 C          19.6644   70.3609   -8.5440 C.ar    1  UNL1        0.0795
     22 C          18.8311   70.3465   -9.7636 C.ar    1  UNL1        0.2626
     23 H          16.8871   70.4672  -10.3275 H       1  UNL1        0.1734
     24 O          22.1470   72.3579   -3.5619 O.3     1  UNL1       -0.2703
     25 P          23.6500   72.1919   -2.9907 P.3     1  UNL1        0.2208
     26 O          24.4908   73.2866   -3.8346 O.co2   1  UNL1       -0.4371
     27 O          24.1907   70.7941   -3.0782 O.2     1  UNL1       -0.5170
     28 O          23.5867   72.7921   -1.4938 O.3     1  UNL1       -0.2858
     29 O          23.2864   71.2788    0.3053 O.3     1  UNL1       -0.3258
     30 O          22.1550   74.7753    2.1882 O.3     1  UNL1       -0.3794
     31 O          24.6681   73.5553    2.8543 O.3     1  UNL1       -0.3794
     32 O          21.4198   74.3198   -0.5743 O.3     1  UNL1       -0.3775
     33 C          22.9140   73.9701    1.2822 C.3     1  UNL1        0.1715
     34 C          23.6548   72.9047    2.0926 C.3     1  UNL1        0.1694
     35 C          21.9648   73.3185    0.2782 C.3     1  UNL1        0.1967
     36 C          24.2752   71.8425    1.1749 C.3     1  UNL1        0.1761
     37 C          22.6702   72.2433   -0.5503 C.3     1  UNL1        0.2704
     38 H          22.7518   75.1923    2.8281 H       1  UNL1        0.2105
     39 H          24.2632   74.2238    3.4291 H       1  UNL1        0.2105
     40 H          20.9757   74.9943   -0.0379 H       1  UNL1        0.2106
     41 O          26.2273   71.0105    2.2731 O.3     1  UNL1       -0.3794
     42 C          24.8834   70.6872    1.9670 C.3     1  UNL1        0.1693
     43 H          26.6271   70.2843    2.7775 H       1  UNL1        0.2105
@<TRIPOS>UNITY_ATOM_ATTR
2 1
charge -1
26 1
charge -1
@<TRIPOS>BOND
     1    25    28    1
     2    25    24    1
     3    25    26    1
     4    25    27    2
     5     1     4    1
     6     1    24    1
     7     1     2    1
     8     1     3    2
     9     6    11    1
    10     6    12    1
    11    29    36    1
    12    29    37    1
    13     7     9    1
    14     7    13    1
    15     8    10    1
    16     8    14    1
    17    28    37    1
    18     4     5    1
    19    30    33    1
    20    30    38    1
    21    31    34    1
    22    31    39    1
    23    32    35    1
    24    32    40    1
    25    41    42    1
    26    41    43    1
    27    15    19    2
    28    16    22    2
    29    17    12    1
    30    17    19   ar
    31    17    20   ar
    32    18    19   ar
    33    18    22   ar
    34    18    23    1
    35     9    10    1
    36     9    11    1
    37    10    12    1
    38    11     5    1
    39    33    34    1
    40    33    35    1
    41    34    36    1
    42    35    37    1
    43    36    42    1
    44    20    21   ar
    45    21    22   ar
@<TRIPOS>MOLECULE
*****
 43 45 0 0 0
SMALL
GASTEIGER

@<TRIPOS>ATOM
      1 P          23.0404   71.6630   -2.6098 P.3     1  UNL1        0.2189
      2 O          23.2386   73.2205   -2.2198 O.co2   1  UNL1       -0.4371
      3 O          24.2255   71.0183   -3.2665 O.2     1  UNL1       -0.5170
      4 O          21.6681   71.6488   -3.4669 O.3     1  UNL1       -0.3112
      5 C          21.4925   72.6258   -4.4781 C.3     1  UNL1        0.1811
      6 O          20.5863   70.7188   -5.6253 O.3     1  UNL1       -0.3308
      7 O          20.9609   72.2939   -8.1490 O.3     1  UNL1       -0.3794
      8 O          18.2941   72.5833   -7.6580 O.3     1  UNL1       -0.3779
      9 C          20.5816   72.7471   -6.8506 C.3     1  UNL1        0.1713
     10 C          19.1484   72.3570   -6.5554 C.3     1  UNL1        0.1895
     11 C          21.3525   71.9271   -5.8236 C.3     1  UNL1        0.1764
     12 C          19.2867   70.8826   -6.2159 C.3     1  UNL1        0.2383
     13 H          20.4817   72.8033   -8.8219 H       1  UNL1        0.2105
     14 H          18.2389   73.5355   -7.8343 H       1  UNL1        0.2106
     15 O          16.7303   69.9258   -6.9422 O.2     1  UNL1       -0.2464
     16 O          15.5465   69.2129   -2.5454 O.2     1  UNL1       -0.2670
     17 N          18.2906   70.4400   -5.2814 N.ar    1  UNL1       -0.2551
     18 N          16.1430   69.5714   -4.7524 N.ar    1  UNL1       -0.2743
     19 C          17.0382   69.9787   -5.7497 C.ar    1  UNL1        0.3323
     20 C          18.5601   70.4656   -3.9174 C.ar    1  UNL1        0.0869
     21 C          17.6951   70.0749   -2.9791 C.ar    1  UNL1        0.0795
     22 C          16.3638   69.5793   -3.3842 C.ar    1  UNL1        0.2626
     23 H          15.2640   69.2466   -5.0551 H       1  UNL1        0.1734
     24 O          22.5998   70.9903   -1.2075 O.3     1  UNL1       -0.2703
     25 P          21.6423   71.5338   -0.0240 P.3     1  UNL1        0.2208
     26 O          21.2270   70.1846    0.7664 O.co2   1  UNL1       -0.4371
     27 O          20.4794   72.3547   -0.5013 O.2     1  UNL1       -0.5170
     28 O          22.6376   72.3069    0.9842 O.3     1  UNL1       -0.2858
     29 O          24.3628   71.8504    2.5438 O.3     1  UNL1       -0.3258
     30 O          21.8458   74.0489    4.9690 O.3     1  UNL1       -0.3794
     31 O          24.3073   75.2122    4.0550 O.3     1  UNL1       -0.3794
     32 O          20.7382   72.1896    3.0466 O.3     1  UNL1       -0.3775
     33 C          22.4887   73.6904    3.7428 C.3     1  UNL1        0.1715
     34 C          24.0003   73.8259    3.9364 C.3     1  UNL1        0.1694
     35 C          22.1189   72.2515    3.3875 C.3     1  UNL1        0.1967
     36 C          24.7671   73.2075    2.7597 C.3     1  UNL1        0.1761
     37 C          22.9736   71.7164    2.2371 C.3     1  UNL1        0.2704
     38 H          22.0760   74.9617    5.2001 H       1  UNL1        0.2105
     39 H          23.8164   75.5907    4.8012 H       1  UNL1        0.2105
     40 H          20.2079   72.5308    3.7830 H       1  UNL1        0.2106
     41 O          26.7624   71.8940    2.7123 O.3     1  UNL1       -0.3794
     42 C          26.2743   73.1902    3.0051 C.3     1  UNL1        0.1693
     43 H          27.7206   71.8682    2.8636 H       1  UNL1        0.2105
@<TRIPOS>UNITY_ATOM_ATTR
2 1
charge -1
26 1
charge -1
@<TRIPOS>BOND
     1    25    28    1
     2    25    24    1
     3    25    26    1
     4    25    27    2
     5     1     4    1
     6     1    24    1
     7     1     2    1
     8     1     3    2
     9     6    11    1
    10     6    12    1
    11    29    36    1
    12    29    37    1
    13     7     9    1
    14     7    13    1
    15     8    10    1
    16     8    14    1
    17    28    37    1
    18     4     5    1
    19    30    33    1
    20    30    38    1
    21    31    34    1
    22    31    39    1
    23    32    35    1
    24    32    40    1
    25    41    42    1
    26    41    43    1
    27    15    19    2
    28    16    22    2
    29    17    12    1
    30    17    19   ar
    31    17    20   ar
    32    18    19   ar
    33    18    22   ar
    34    18    23    1
    35     9    10    1
    36     9    11    1
    37    10    12    1
    38    11     5    1
    39    33    34    1
    40    33    35    1
    41    34    36    1
    42    35    37    1
    43    36    42    1
    44    20    21   ar
    45    21    22   ar
@<TRIPOS>MOLECULE
*****
 43 45 0 0 0
SMALL
GASTEIGER

@<TRIPOS>ATOM
      1 P          22.9096   71.5950   -2.5327 P.3     1  UNL1        0.2189
      2 O          23.2402   73.1019   -2.0453 O.co2   1  UNL1       -0.4371
      3 O          24.0957   70.8078   -3.0070 O.2     1  UNL1       -0.5170
      4 O          21.7179   71.7879   -3.6100 O.3     1  UNL1       -0.3112
      5 C          20.8269   70.7089   -3.8330 C.3     1  UNL1        0.1811
      6 O          18.9213   71.7849   -4.8252 O.3     1  UNL1       -0.3308
      7 O          17.3236   70.6157   -2.5734 O.3     1  UNL1       -0.3794
      8 O          16.7629   68.9266   -4.6396 O.3     1  UNL1       -0.3779
      9 C          18.4307   70.0574   -3.2790 C.3     1  UNL1        0.1713
     10 C          18.0012   69.6072   -4.6597 C.3     1  UNL1        0.1895
     11 C          19.4004   71.1878   -3.6005 C.3     1  UNL1        0.1764
     12 C          17.9321   70.9245   -5.4134 C.3     1  UNL1        0.2383
     13 H          16.6906   69.9125   -2.3568 H       1  UNL1        0.2105
     14 H          16.8586   68.0954   -4.1490 H       1  UNL1        0.2106
     15 O          16.0186   70.2201   -7.3681 O.2     1  UNL1       -0.2464
     16 O          19.1490   70.3635  -10.7477 O.2     1  UNL1       -0.2670
     17 N          18.2195   70.7711   -6.8117 N.ar    1  UNL1       -0.2551
     18 N          17.5788   70.2923   -9.0493 N.ar    1  UNL1       -0.2743
     19 C          17.1870   70.4140   -7.7100 C.ar    1  UNL1        0.3323
     20 C          19.5132   70.9747   -7.2796 C.ar    1  UNL1        0.0869
     21 C          19.8707   70.8533   -8.5598 C.ar    1  UNL1        0.0795
     22 C          18.8518   70.4830   -9.5631 C.ar    1  UNL1        0.2626
     23 H          16.8764   70.0438   -9.6932 H       1  UNL1        0.1734
     24 O          22.1468   70.9595   -1.2570 O.3     1  UNL1       -0.2703
     25 P          22.4789   71.0328    0.3232 P.3     1  UNL1        0.2208
     26 O          24.0955   71.0843    0.3607 O.co2   1  UNL1       -0.4371
     27 O          21.8759   69.9202    1.1310 O.2     1  UNL1       -0.5170
     28 O          22.0135   72.5122    0.7702 O.3     1  UNL1       -0.2858
     29 O          21.7312   72.9984    3.0725 O.3     1  UNL1       -0.3258
     30 O          19.4267   76.0276    1.4711 O.3     1  UNL1       -0.3794
     31 O          21.9719   76.6520    2.6459 O.3     1  UNL1       -0.3794
     32 O          19.4003   73.3987    0.2596 O.3     1  UNL1       -0.3775
     33 C          20.5261   75.1141    1.5210 C.3     1  UNL1        0.1715
     34 C          21.3232   75.3924    2.7969 C.3     1  UNL1        0.1694
     35 C          19.9876   73.6847    1.5244 C.3     1  UNL1        0.1967
     36 C          22.3558   74.2873    3.0570 C.3     1  UNL1        0.1761
     37 C          21.0859   72.6681    1.8411 C.3     1  UNL1        0.2704
     38 H          19.7618   76.9371    1.4681 H       1  UNL1        0.2105
     39 H          21.3089   77.3409    2.4817 H       1  UNL1        0.2105
     40 H          18.7064   74.0489    0.0710 H       1  UNL1        0.2106
     41 O          24.3983   74.0418    4.2723 O.3     1  UNL1       -0.3794
     42 C          23.0527   74.4615    4.4047 C.3     1  UNL1        0.1693
     43 H          24.8544   74.1473    5.1223 H       1  UNL1        0.2105
@<TRIPOS>UNITY_ATOM_ATTR
2 1
charge -1
26 1
charge -1
@<TRIPOS>BOND
     1    25    28    1
     2    25    24    1
     3    25    26    1
     4    25    27    2
     5     1     4    1
     6     1    24    1
     7     1     2    1
     8     1     3    2
     9     6    11    1
    10     6    12    1
    11    29    36    1
    12    29    37    1
    13     7     9    1
    14     7    13    1
    15     8    10    1
    16     8    14    1
    17    28    37    1
    18     4     5    1
    19    30    33    1
    20    30    38    1
    21    31    34    1
    22    31    39    1
    23    32    35    1
    24    32    40    1
    25    41    42    1
    26    41    43    1
    27    15    19    2
    28    16    22    2
    29    17    12    1
    30    17    19   ar
    31    17    20   ar
    32    18    19   ar
    33    18    22   ar
    34    18    23    1
    35     9    10    1
    36     9    11    1
    37    10    12    1
    38    11     5    1
    39    33    34    1
    40    33    35    1
    41    34    36    1
    42    35    37    1
    43    36    42    1
    44    20    21   ar
    45    21    22   ar
@<TRIPOS>MOLECULE
*****
 43 45 0 0 0
SMALL
GASTEIGER

@<TRIPOS>ATOM
      1 P          20.4475   71.2182   -1.2817 P.3     1  UNL1        0.2189
      2 O          20.6947   70.5648    0.1776 O.co2   1  UNL1       -0.4371
      3 O          20.0559   72.6666   -1.2694 O.2     1  UNL1       -0.5170
      4 O          19.3939   70.2114   -1.9846 O.3     1  UNL1       -0.3112
      5 C          19.1112   70.3827   -3.3625 C.3     1  UNL1        0.1811
      6 O          17.4623   71.4015   -4.7827 O.3     1  UNL1       -0.3308
      7 O          15.4298   69.8359   -3.2307 O.3     1  UNL1       -0.3794
      8 O          15.6972   68.3657   -5.5118 O.3     1  UNL1       -0.3779
      9 C          16.7520   69.4645   -3.6168 C.3     1  UNL1        0.1713
     10 C          16.7983   69.1483   -5.0971 C.3     1  UNL1        0.1895
     11 C          17.6324   70.7049   -3.5289 C.3     1  UNL1        0.1764
     12 C          16.7956   70.5358   -5.7160 C.3     1  UNL1        0.2383
     13 H          14.8491   69.0597   -3.2785 H       1  UNL1        0.2105
     14 H          15.7440   67.4930   -5.0913 H       1  UNL1        0.2106
     15 O          15.5333   70.5683   -8.2425 O.2     1  UNL1       -0.2464
     16 O          19.5707   70.6940  -10.4618 O.2     1  UNL1       -0.2670
     17 N          17.4926   70.5773   -6.9705 N.ar    1  UNL1       -0.2551
     18 N          17.5446   70.6310   -9.3455 N.ar    1  UNL1       -0.2743
     19 C          16.7644   70.5895   -8.1829 C.ar    1  UNL1        0.3323
     20 C          18.8828   70.6058   -6.9902 C.ar    1  UNL1        0.0869
     21 C          19.6120   70.6439   -8.1074 C.ar    1  UNL1        0.0795
     22 C          18.9284   70.6592   -9.4168 C.ar    1  UNL1        0.2626
     23 H          17.0589   70.6399  -10.2021 H       1  UNL1        0.1734
     24 O          21.8280   70.9011   -2.0605 O.3     1  UNL1       -0.2703
     25 P          23.2923   71.5756   -1.9428 P.3     1  UNL1        0.2208
     26 O          24.1832   70.7121   -2.9812 O.co2   1  UNL1       -0.4371
     27 O          23.8391   71.6193   -0.5452 O.2     1  UNL1       -0.5170
     28 O          23.1342   73.0203   -2.6447 O.3     1  UNL1       -0.2858
     29 O          23.7589   73.1572   -4.9267 O.3     1  UNL1       -0.3258
     30 O          23.7203   77.1834   -4.0106 O.3     1  UNL1       -0.3794
     31 O          21.6356   76.0823   -5.6507 O.3     1  UNL1       -0.3794
     32 O          24.7099   75.2716   -2.0753 O.3     1  UNL1       -0.3775
     33 C          23.2795   75.8251   -3.9325 C.3     1  UNL1        0.1715
     34 C          22.8351   75.3840   -5.3285 C.3     1  UNL1        0.1694
     35 C          24.4317   74.9542   -3.4349 C.3     1  UNL1        0.1967
     36 C          22.6019   73.8682   -5.3825 C.3     1  UNL1        0.1761
     37 C          24.1160   73.4642   -3.5776 C.3     1  UNL1        0.2704
     38 H          22.9932   77.7417   -4.3255 H       1  UNL1        0.2105
     39 H          21.7963   77.0383   -5.6125 H       1  UNL1        0.2105
     40 H          24.9085   76.2174   -1.9983 H       1  UNL1        0.2106
     41 O          23.0044   72.1680   -7.0123 O.3     1  UNL1       -0.3794
     42 C          22.3113   73.3844   -6.8015 C.3     1  UNL1        0.1693
     43 H          22.8285   71.8481   -7.9114 H       1  UNL1        0.2105
@<TRIPOS>UNITY_ATOM_ATTR
2 1
charge -1
26 1
charge -1
@<TRIPOS>BOND
     1    25    28    1
     2    25    24    1
     3    25    26    1
     4    25    27    2
     5     1     4    1
     6     1    24    1
     7     1     2    1
     8     1     3    2
     9     6    11    1
    10     6    12    1
    11    29    36    1
    12    29    37    1
    13     7     9    1
    14     7    13    1
    15     8    10    1
    16     8    14    1
    17    28    37    1
    18     4     5    1
    19    30    33    1
    20    30    38    1
    21    31    34    1
    22    31    39    1
    23    32    35    1
    24    32    40    1
    25    41    42    1
    26    41    43    1
    27    15    19    2
    28    16    22    2
    29    17    12    1
    30    17    19   ar
    31    17    20   ar
    32    18    19   ar
    33    18    22   ar
    34    18    23    1
    35     9    10    1
    36     9    11    1
    37    10    12    1
    38    11     5    1
    39    33    34    1
    40    33    35    1
    41    34    36    1
    42    35    37    1
    43    36    42    1
    44    20    21   ar
    45    21    22   ar
@<TRIPOS>MOLECULE
*****
 43 45 0 0 0
SMALL
GASTEIGER

@<TRIPOS>ATOM
      1 P          21.1703   71.3800   -1.6761 P.3     1  UNL1        0.2189
      2 O          22.6465   70.8010   -1.9972 O.co2   1  UNL1       -0.4371
      3 O          20.6252   71.0131   -0.3271 O.2     1  UNL1       -0.5170
      4 O          20.2835   70.9079   -2.9443 O.3     1  UNL1       -0.3112
      5 C          19.7132   71.9016   -3.7781 C.3     1  UNL1        0.1811
      6 O          17.6997   72.0313   -5.0829 O.3     1  UNL1       -0.3308
      7 O          16.4042   70.4368   -2.8989 O.3     1  UNL1       -0.3794
      8 O          16.8760   68.5512   -4.8117 O.3     1  UNL1       -0.3779
      9 C          17.7312   70.3482   -3.4150 C.3     1  UNL1        0.1713
     10 C          17.7232   69.6816   -4.7748 C.3     1  UNL1        0.1895
     11 C          18.1976   71.7583   -3.7548 C.3     1  UNL1        0.1764
     12 C          17.2375   70.8058   -5.6739 C.3     1  UNL1        0.2383
     13 H          16.0848   69.5482   -2.6743 H       1  UNL1        0.2105
     14 H          17.2273   67.8644   -4.2238 H       1  UNL1        0.2106
     15 O          15.6553   70.4342   -7.9840 O.2     1  UNL1       -0.2464
     16 O          19.3510   70.4323  -10.7378 O.2     1  UNL1       -0.2670
     17 N          17.7601   70.7051   -7.0074 N.ar    1  UNL1       -0.2551
     18 N          17.4968   70.4337   -9.3534 N.ar    1  UNL1       -0.2743
     19 C          16.8799   70.5181   -8.0986 C.ar    1  UNL1        0.3323
     20 C          19.1312   70.7922   -7.2228 C.ar    1  UNL1        0.0869
     21 C          19.7037   70.7086   -8.4255 C.ar    1  UNL1        0.0795
     22 C          18.8547   70.5132   -9.6184 C.ar    1  UNL1        0.2626
     23 H          16.9034   70.3031  -10.1283 H       1  UNL1        0.1734
     24 O          21.3412   72.9683   -1.9233 O.3     1  UNL1       -0.2703
     25 P          22.6649   73.8908   -2.0223 P.3     1  UNL1        0.2208
     26 O          22.0648   75.3840   -2.1896 O.co2   1  UNL1       -0.4371
     27 O          23.6201   73.4823   -3.1061 O.2     1  UNL1       -0.5170
     28 O          23.2912   73.8675   -0.5349 O.3     1  UNL1       -0.2858
     29 O          21.7336   74.6655    1.0631 O.3     1  UNL1       -0.3258
     30 O          25.0872   74.4471    3.4624 O.3     1  UNL1       -0.3794
     31 O          22.9770   72.5279    3.7969 O.3     1  UNL1       -0.3794
     32 O          25.3309   75.3326    0.7172 O.3     1  UNL1       -0.3775
     33 C          24.2089   74.0382    2.4103 C.3     1  UNL1        0.1715
     34 C          22.8442   73.7168    3.0227 C.3     1  UNL1        0.1694
     35 C          24.0882   75.1706    1.3923 C.3     1  UNL1        0.1967
     36 C          21.7789   73.5293    1.9341 C.3     1  UNL1        0.1761
     37 C          22.9678   74.9072    0.3847 C.3     1  UNL1        0.2704
     38 H          25.1686   73.7323    4.1119 H       1  UNL1        0.2105
     39 H          23.6530   72.6595    4.4802 H       1  UNL1        0.2105
     40 H          26.0319   75.4991    1.3659 H       1  UNL1        0.2106
     41 O          20.3189   72.1171    3.1923 O.3     1  UNL1       -0.3794
     42 C          20.3804   73.3641    2.5249 C.3     1  UNL1        0.1693
     43 H          19.4344   71.9984    3.5737 H       1  UNL1        0.2105
@<TRIPOS>UNITY_ATOM_ATTR
2 1
charge -1
26 1
charge -1
@<TRIPOS>BOND
     1    25    28    1
     2    25    24    1
     3    25    26    1
     4    25    27    2
     5     1     4    1
     6     1    24    1
     7     1     2    1
     8     1     3    2
     9     6    11    1
    10     6    12    1
    11    29    36    1
    12    29    37    1
    13     7     9    1
    14     7    13    1
    15     8    10    1
    16     8    14    1
    17    28    37    1
    18     4     5    1
    19    30    33    1
    20    30    38    1
    21    31    34    1
    22    31    39    1
    23    32    35    1
    24    32    40    1
    25    41    42    1
    26    41    43    1
    27    15    19    2
    28    16    22    2
    29    17    12    1
    30    17    19   ar
    31    17    20   ar
    32    18    19   ar
    33    18    22   ar
    34    18    23    1
    35     9    10    1
    36     9    11    1
    37    10    12    1
    38    11     5    1
    39    33    34    1
    40    33    35    1
    41    34    36    1
    42    35    37    1
    43    36    42    1
    44    20    21   ar
    45    21    22   ar
@<TRIPOS>MOLECULE
*****
 43 45 0 0 0
SMALL
GASTEIGER

@<TRIPOS>ATOM
      1 P          20.6263   72.5341   -1.4601 P.3     1  UNL1        0.2189
      2 O          19.5045   71.4278   -1.0924 O.co2   1  UNL1       -0.4371
      3 O          20.1264   73.9476   -1.5208 O.2     1  UNL1       -0.5170
      4 O          21.2996   71.9681   -2.8181 O.3     1  UNL1       -0.3112
      5 C          21.4164   72.8398   -3.9291 C.3     1  UNL1        0.1811
      6 O          20.9808   70.7746   -5.0777 O.3     1  UNL1       -0.3308
      7 O          21.9996   72.1470   -7.5413 O.3     1  UNL1       -0.3794
      8 O          19.2950   72.2691   -7.8682 O.3     1  UNL1       -0.3779
      9 C          21.2350   72.6812   -6.4619 C.3     1  UNL1        0.1713
     10 C          19.7991   72.2077   -6.5496 C.3     1  UNL1        0.1895
     11 C          21.7109   72.0171   -5.1759 C.3     1  UNL1        0.1764
     12 C          19.9045   70.7841   -6.0297 C.3     1  UNL1        0.2383
     13 H          21.7137   72.5565   -8.3736 H       1  UNL1        0.2105
     14 H          19.2469   73.1950   -8.1534 H       1  UNL1        0.2106
     15 O          17.5379   70.0397   -7.3798 O.2     1  UNL1       -0.2464
     16 O          15.3507   69.1311   -3.4260 O.2     1  UNL1       -0.2670
     17 N          18.7017   70.3486   -5.3779 N.ar    1  UNL1       -0.2551
     18 N          16.4508   69.5877   -5.4100 N.ar    1  UNL1       -0.2743
     19 C          17.5682   69.9984   -6.1481 C.ar    1  UNL1        0.3323
     20 C          18.6542   70.2718   -3.9902 C.ar    1  UNL1        0.0869
     21 C          17.5805   69.8794   -3.3015 C.ar    1  UNL1        0.0795
     22 C          16.3543   69.4961   -4.0305 C.ar    1  UNL1        0.2626
     23 H          15.6493   69.3392   -5.9254 H       1  UNL1        0.1734
     24 O          21.7720   72.2728   -0.3502 O.3     1  UNL1       -0.2703
     25 P          21.6661   71.8300    1.2009 P.3     1  UNL1        0.2208
     26 O          21.6866   70.2139    1.1275 O.co2   1  UNL1       -0.4371
     27 O          20.4818   72.4021    1.9247 O.2     1  UNL1       -0.5170
     28 O          23.0950   72.2272    1.8376 O.3     1  UNL1       -0.2858
     29 O          24.7962   73.6102    0.9375 O.3     1  UNL1       -0.3258
     30 O          27.1586   70.8584    2.9117 O.3     1  UNL1       -0.3794
     31 O          26.8991   73.5181    3.9638 O.3     1  UNL1       -0.3794
     32 O          24.7591   69.9863    1.5473 O.3     1  UNL1       -0.3775
     33 C          26.0074   71.6837    2.7145 C.3     1  UNL1        0.1715
     34 C          26.4666   73.1421    2.6592 C.3     1  UNL1        0.1694
     35 C          25.3254   71.2849    1.4071 C.3     1  UNL1        0.1967
     36 C          25.3331   74.0622    2.1862 C.3     1  UNL1        0.1761
     37 C          24.2478   72.2923    1.0020 C.3     1  UNL1        0.2704
     38 H          27.5960   71.1062    3.7405 H       1  UNL1        0.2105
     39 H          27.6145   72.9290    4.2508 H       1  UNL1        0.2105
     40 H          25.4513   69.3578    1.8036 H       1  UNL1        0.2106
     41 O          25.3735   75.9319    0.6990 O.3     1  UNL1       -0.3794
     42 C          25.8122   75.4964    1.9727 C.3     1  UNL1        0.1693
     43 H          25.6709   76.8434    0.5495 H       1  UNL1        0.2105
@<TRIPOS>UNITY_ATOM_ATTR
2 1
charge -1
26 1
charge -1
@<TRIPOS>BOND
     1    25    28    1
     2    25    24    1
     3    25    26    1
     4    25    27    2
     5     1     4    1
     6     1    24    1
     7     1     2    1
     8     1     3    2
     9     6    11    1
    10     6    12    1
    11    29    36    1
    12    29    37    1
    13     7     9    1
    14     7    13    1
    15     8    10    1
    16     8    14    1
    17    28    37    1
    18     4     5    1
    19    30    33    1
    20    30    38    1
    21    31    34    1
    22    31    39    1
    23    32    35    1
    24    32    40    1
    25    41    42    1
    26    41    43    1
    27    15    19    2
    28    16    22    2
    29    17    12    1
    30    17    19   ar
    31    17    20   ar
    32    18    19   ar
    33    18    22   ar
    34    18    23    1
    35     9    10    1
    36     9    11    1
    37    10    12    1
    38    11     5    1
    39    33    34    1
    40    33    35    1
    41    34    36    1
    42    35    37    1
    43    36    42    1
    44    20    21   ar
    45    21    22   ar
@<TRIPOS>MOLECULE
*****
 43 45 0 0 0
SMALL
GASTEIGER

@<TRIPOS>ATOM
      1 P          21.1376   71.4764   -1.6679 P.3     1  UNL1        0.2189
      2 O          22.1525   70.5209   -2.4891 O.co2   1  UNL1       -0.4371
      3 O          19.8710   70.8131   -1.2127 O.2     1  UNL1       -0.5170
      4 O          20.9502   72.7628   -2.6311 O.3     1  UNL1       -0.3112
      5 C          20.3588   72.5733   -3.9048 C.3     1  UNL1        0.1811
      6 O          20.6493   70.8305   -5.5332 O.3     1  UNL1       -0.3308
      7 O          23.2008   72.2149   -6.2846 O.3     1  UNL1       -0.3794
      8 O          21.4880   73.0180   -8.2488 O.3     1  UNL1       -0.3779
      9 C          21.9556   72.7779   -5.8749 C.3     1  UNL1        0.1713
     10 C          20.9389   72.6751   -6.9927 C.3     1  UNL1        0.1895
     11 C          21.3545   71.8653   -4.8133 C.3     1  UNL1        0.1764
     12 C          20.5294   71.2143   -6.9128 C.3     1  UNL1        0.2383
     13 H          23.6039   72.7806   -6.9623 H       1  UNL1        0.2105
     14 H          21.7326   73.9566   -8.2495 H       1  UNL1        0.2106
     15 O          19.7402   70.8747   -9.6034 O.2     1  UNL1       -0.2464
     16 O          15.3069   70.4036   -8.4350 O.2     1  UNL1       -0.2670
     17 N          19.1755   71.0008   -7.3402 N.ar    1  UNL1       -0.2551
     18 N          17.5334   70.6402   -9.0194 N.ar    1  UNL1       -0.2743
     19 C          18.8856   70.8430   -8.7155 C.ar    1  UNL1        0.3323
     20 C          18.1520   70.9494   -6.4001 C.ar    1  UNL1        0.0869
     21 C          16.8674   70.7566   -6.7064 C.ar    1  UNL1        0.0795
     22 C          16.4796   70.5826   -8.1211 C.ar    1  UNL1        0.2626
     23 H          17.3076   70.5281   -9.9714 H       1  UNL1        0.1734
     24 O          22.0640   72.0489   -0.4733 O.3     1  UNL1       -0.2703
     25 P          22.6310   71.3390    0.8637 P.3     1  UNL1        0.2208
     26 O          24.1186   70.8711    0.4330 O.co2   1  UNL1       -0.4371
     27 O          21.7619   70.2334    1.3892 O.2     1  UNL1       -0.5170
     28 O          22.8697   72.5525    1.9008 O.3     1  UNL1       -0.2858
     29 O          24.0566   72.8556    3.9295 O.3     1  UNL1       -0.3258
     30 O          20.4760   74.6175    4.9904 O.3     1  UNL1       -0.3794
     31 O          22.7828   76.2634    4.5237 O.3     1  UNL1       -0.3794
     32 O          20.4819   72.2385    3.3412 O.3     1  UNL1       -0.3775
     33 C          21.5414   74.2623    4.1049 C.3     1  UNL1        0.1715
     34 C          22.8418   74.8463    4.6606 C.3     1  UNL1        0.1694
     35 C          21.6304   72.7399    4.0166 C.3     1  UNL1        0.1967
     36 C          24.0623   74.2879    3.9166 C.3     1  UNL1        0.1761
     37 C          22.9051   72.2892    3.3010 C.3     1  UNL1        0.2704
     38 H          20.4138   75.5830    5.0506 H       1  UNL1        0.2105
     39 H          22.0075   76.6033    4.9975 H       1  UNL1        0.2105
     40 H          19.6816   72.5305    3.8041 H       1  UNL1        0.2106
     41 O          25.2498   74.6278    5.9619 O.3     1  UNL1       -0.3794
     42 C          25.3753   74.7345    4.5558 C.3     1  UNL1        0.1693
     43 H          26.0783   74.9085    6.3821 H       1  UNL1        0.2105
@<TRIPOS>UNITY_ATOM_ATTR
2 1
charge -1
26 1
charge -1
@<TRIPOS>BOND
     1    25    28    1
     2    25    24    1
     3    25    26    1
     4    25    27    2
     5     1     4    1
     6     1    24    1
     7     1     2    1
     8     1     3    2
     9     6    11    1
    10     6    12    1
    11    29    36    1
    12    29    37    1
    13     7     9    1
    14     7    13    1
    15     8    10    1
    16     8    14    1
    17    28    37    1
    18     4     5    1
    19    30    33    1
    20    30    38    1
    21    31    34    1
    22    31    39    1
    23    32    35    1
    24    32    40    1
    25    41    42    1
    26    41    43    1
    27    15    19    2
    28    16    22    2
    29    17    12    1
    30    17    19   ar
    31    17    20   ar
    32    18    19   ar
    33    18    22   ar
    34    18    23    1
    35     9    10    1
    36     9    11    1
    37    10    12    1
    38    11     5    1
    39    33    34    1
    40    33    35    1
    41    34    36    1
    42    35    37    1
    43    36    42    1
    44    20    21   ar
    45    21    22   ar
@<TRIPOS>MOLECULE
*****
 43 45 0 0 0
SMALL
GASTEIGER

@<TRIPOS>ATOM
      1 P          22.8835   72.3396   -3.5968 P.3     1  UNL1        0.2189
      2 O          22.7763   70.8238   -3.0415 O.co2   1  UNL1       -0.4371
      3 O          24.1540   72.6579   -4.3289 O.2     1  UNL1       -0.5170
      4 O          22.5740   73.2522   -2.2971 O.3     1  UNL1       -0.3112
      5 C          21.5161   74.1923   -2.3674 C.3     1  UNL1        0.1811
      6 O          20.8301   72.5554   -0.7475 O.3     1  UNL1       -0.3308
      7 O          18.7507   74.5416    0.1023 O.3     1  UNL1       -0.3794
      8 O          20.6710   74.8358    2.0161 O.3     1  UNL1       -0.3779
      9 C          20.0869   74.7690   -0.3431 C.3     1  UNL1        0.1713
     10 C          21.0744   74.3850    0.7390 C.3     1  UNL1        0.1895
     11 C          20.3978   73.7509   -1.4332 C.3     1  UNL1        0.1764
     12 C          21.0867   72.8696    0.6310 C.3     1  UNL1        0.2383
     13 H          18.5291   75.1802    0.7987 H       1  UNL1        0.2105
     14 H          20.6795   75.8055    2.0343 H       1  UNL1        0.2106
     15 O          21.5340   70.1159    1.0722 O.2     1  UNL1       -0.2464
     16 O          25.9756   70.8127    2.0861 O.2     1  UNL1       -0.2670
     17 N          22.3504   72.3038    1.0108 N.ar    1  UNL1       -0.2551
     18 N          23.7453   70.4651    1.5765 N.ar    1  UNL1       -0.2743
     19 C          22.4684   70.9083    1.2087 C.ar    1  UNL1        0.3323
     20 C          23.4559   73.1297    1.1830 C.ar    1  UNL1        0.0869
     21 C          24.6663   72.6915    1.5353 C.ar    1  UNL1        0.0795
     22 C          24.8747   71.2467    1.7613 C.ar    1  UNL1        0.2626
     23 H          23.8512   69.4966    1.7201 H       1  UNL1        0.1734
     24 O          21.5397   72.4988   -4.4809 O.3     1  UNL1       -0.2703
     25 P          21.3036   73.1335   -5.9487 P.3     1  UNL1        0.2208
     26 O          22.5188   72.5157   -6.8199 O.co2   1  UNL1       -0.4371
     27 O          21.2291   74.6329   -5.9660 O.2     1  UNL1       -0.5170
     28 O          19.9834   72.3917   -6.5070 O.3     1  UNL1       -0.2858
     29 O          19.0419   70.2385   -6.2001 O.3     1  UNL1       -0.3258
     30 O          18.5105   70.6159  -10.2776 O.3     1  UNL1       -0.3794
     31 O          16.2392   70.7948   -8.5291 O.3     1  UNL1       -0.3794
     32 O          20.9241   71.6229   -9.0367 O.3     1  UNL1       -0.3775
     33 C          18.5814   71.0748   -8.9249 C.3     1  UNL1        0.1715
     34 C          17.5202   70.3323   -8.1104 C.3     1  UNL1        0.1694
     35 C          19.9777   70.7912   -8.3741 C.3     1  UNL1        0.1967
     36 C          17.7091   70.5709   -6.6063 C.3     1  UNL1        0.1761
     37 C          20.0441   71.0127   -6.8620 C.3     1  UNL1        0.2704
     38 H          17.6266   70.7934  -10.6334 H       1  UNL1        0.2105
     39 H          16.1329   70.6388   -9.4807 H       1  UNL1        0.2105
     40 H          20.8724   71.4732   -9.9931 H       1  UNL1        0.2106
     41 O          16.4620   70.4154   -4.5742 O.3     1  UNL1       -0.3794
     42 C          16.7611   69.7159   -5.7681 C.3     1  UNL1        0.1693
     43 H          15.8592   69.8834   -4.0308 H       1  UNL1        0.2105
@<TRIPOS>UNITY_ATOM_ATTR
2 1
charge -1
26 1
charge -1
@<TRIPOS>BOND
     1    25    28    1
     2    25    24    1
     3    25    26    1
     4    25    27    2
     5     1     4    1
     6     1    24    1
     7     1     2    1
     8     1     3    2
     9     6    11    1
    10     6    12    1
    11    29    36    1
    12    29    37    1
    13     7     9    1
    14     7    13    1
    15     8    10    1
    16     8    14    1
    17    28    37    1
    18     4     5    1
    19    30    33    1
    20    30    38    1
    21    31    34    1
    22    31    39    1
    23    32    35    1
    24    32    40    1
    25    41    42    1
    26    41    43    1
    27    15    19    2
    28    16    22    2
    29    17    12    1
    30    17    19   ar
    31    17    20   ar
    32    18    19   ar
    33    18    22   ar
    34    18    23    1
    35     9    10    1
    36     9    11    1
    37    10    12    1
    38    11     5    1
    39    33    34    1
    40    33    35    1
    41    34    36    1
    42    35    37    1
    43    36    42    1
    44    20    21   ar
    45    21    22   ar
@<TRIPOS>MOLECULE
*****
 43 45 0 0 0
SMALL
GASTEIGER

@<TRIPOS>ATOM
      1 P          22.9355   72.2804   -3.4318 P.3     1  UNL1        0.2189
      2 O          22.9918   70.9713   -2.4828 O.co2   1  UNL1       -0.4371
      3 O          24.1443   72.4893   -4.2959 O.2     1  UNL1       -0.5170
      4 O          22.5848   73.4855   -2.4107 O.3     1  UNL1       -0.3112
      5 C          23.2653   73.5392   -1.1690 C.3     1  UNL1        0.1811
      6 O          23.0530   72.0545    0.7084 O.3     1  UNL1       -0.3308
      7 O          20.6929   73.7174    1.5179 O.3     1  UNL1       -0.3794
      8 O          22.6623   74.6398    3.1632 O.3     1  UNL1       -0.3779
      9 C          21.9164   74.1243    0.9073 C.3     1  UNL1        0.1713
     10 C          23.0442   74.0927    1.9176 C.3     1  UNL1        0.1895
     11 C          22.3365   73.0359   -0.0726 C.3     1  UNL1        0.1764
     12 C          23.3510   72.6071    2.0009 C.3     1  UNL1        0.2383
     13 H          20.4044   74.3970    2.1479 H       1  UNL1        0.2105
     14 H          22.4778   75.5862    3.0580 H       1  UNL1        0.2106
     15 O          24.5909   70.0791    1.7778 O.2     1  UNL1       -0.2464
     16 O          28.6420   71.7346    3.2231 O.2     1  UNL1       -0.2670
     17 N          24.7287   72.3490    2.3120 N.ar    1  UNL1       -0.2551
     18 N          26.6071   70.9055    2.4974 N.ar    1  UNL1       -0.2743
     19 C          25.2529   71.0434    2.1668 C.ar    1  UNL1        0.3323
     20 C          25.5448   73.3842    2.7551 C.ar    1  UNL1        0.0869
     21 C          26.8338   73.2359    3.0675 C.ar    1  UNL1        0.0795
     22 C          27.4591   71.9033    2.9435 C.ar    1  UNL1        0.2626
     23 H          26.9939   70.0047    2.4044 H       1  UNL1        0.1734
     24 O          21.5533   72.0800   -4.2457 O.3     1  UNL1       -0.2703
     25 P          20.3248   71.0549   -4.0154 P.3     1  UNL1        0.2208
     26 O          19.7227   71.5127   -2.5852 O.co2   1  UNL1       -0.4371
     27 O          20.7103   69.6059   -4.0898 O.2     1  UNL1       -0.5170
     28 O          19.2090   71.5063   -5.0907 O.3     1  UNL1       -0.2858
     29 O          19.6440   71.1625   -7.3949 O.3     1  UNL1       -0.3258
     30 O          16.6865   74.0277   -7.7022 O.3     1  UNL1       -0.3794
     31 O          16.1003   71.3042   -8.4002 O.3     1  UNL1       -0.3794
     32 O          18.6624   74.2123   -5.5947 O.3     1  UNL1       -0.3775
     33 C          17.3522   72.8984   -7.1304 C.3     1  UNL1        0.1715
     34 C          17.4209   71.7957   -8.1888 C.3     1  UNL1        0.1694
     35 C          18.7561   73.3141   -6.6952 C.3     1  UNL1        0.1967
     36 C          18.3497   70.6579   -7.7439 C.3     1  UNL1        0.1761
     37 C          19.6129   72.1036   -6.3201 C.3     1  UNL1        0.2704
     38 H          15.7942   73.7705   -7.9801 H       1  UNL1        0.2105
     39 H          15.5239   72.0326   -8.6802 H       1  UNL1        0.2105
     40 H          18.1179   74.9743   -5.8450 H       1  UNL1        0.2106
     41 O          19.9293   69.2785   -8.8888 O.3     1  UNL1       -0.3794
     42 C          18.5570   69.6238   -8.8483 C.3     1  UNL1        0.1693
     43 H          20.0762   68.6208   -9.5871 H       1  UNL1        0.2105
@<TRIPOS>UNITY_ATOM_ATTR
2 1
charge -1
26 1
charge -1
@<TRIPOS>BOND
     1    25    28    1
     2    25    24    1
     3    25    26    1
     4    25    27    2
     5     1     4    1
     6     1    24    1
     7     1     2    1
     8     1     3    2
     9     6    11    1
    10     6    12    1
    11    29    36    1
    12    29    37    1
    13     7     9    1
    14     7    13    1
    15     8    10    1
    16     8    14    1
    17    28    37    1
    18     4     5    1
    19    30    33    1
    20    30    38    1
    21    31    34    1
    22    31    39    1
    23    32    35    1
    24    32    40    1
    25    41    42    1
    26    41    43    1
    27    15    19    2
    28    16    22    2
    29    17    12    1
    30    17    19   ar
    31    17    20   ar
    32    18    19   ar
    33    18    22   ar
    34    18    23    1
    35     9    10    1
    36     9    11    1
    37    10    12    1
    38    11     5    1
    39    33    34    1
    40    33    35    1
    41    34    36    1
    42    35    37    1
    43    36    42    1
    44    20    21   ar
    45    21    22   ar
@<TRIPOS>MOLECULE
*****
 43 45 0 0 0
SMALL
GASTEIGER

@<TRIPOS>ATOM
      1 P          23.4566   72.4008   -3.5236 P.3     1  UNL1        0.2189
      2 O          24.0307   70.9104   -3.2656 O.co2   1  UNL1       -0.4371
      3 O          24.4780   73.4048   -3.9709 O.2     1  UNL1       -0.5170
      4 O          22.6735   72.7579   -2.1535 O.3     1  UNL1       -0.3112
      5 C          23.4175   72.8359   -0.9501 C.3     1  UNL1        0.1811
      6 O          24.4310   71.3060    0.6011 O.3     1  UNL1       -0.3308
      7 O          21.6605   70.2772    1.1076 O.3     1  UNL1       -0.3794
      8 O          22.0959   71.8959    3.2586 O.3     1  UNL1       -0.3779
      9 C          22.0935   71.6107    0.8441 C.3     1  UNL1        0.1713
     10 C          22.7857   72.1889    2.0606 C.3     1  UNL1        0.1895
     11 C          23.2311   71.5434   -0.1672 C.3     1  UNL1        0.1764
     12 C          24.1495   71.5228    1.9934 C.3     1  UNL1        0.2383
     13 H          20.9339   70.2945    1.7508 H       1  UNL1        0.2105
     14 H          21.2348   72.3422    3.2535 H       1  UNL1        0.2106
     15 O          26.8109   70.6686    2.4002 O.2     1  UNL1       -0.2464
     16 O          28.0429   74.7442    4.1645 O.2     1  UNL1       -0.2670
     17 N          25.1866   72.3403    2.5570 N.ar    1  UNL1       -0.2551
     18 N          27.4222   72.6987    3.2782 N.ar    1  UNL1       -0.2743
     19 C          26.4898   71.8151    2.7196 C.ar    1  UNL1        0.3323
     20 C          24.9071   73.6471    2.9414 C.ar    1  UNL1        0.0869
     21 C          25.8071   74.4764    3.4737 C.ar    1  UNL1        0.0795
     22 C          27.1924   74.0058    3.6774 C.ar    1  UNL1        0.2626
     23 H          28.3367   72.3546    3.4013 H       1  UNL1        0.1734
     24 O          22.2543   72.1503   -4.5746 O.3     1  UNL1       -0.2703
     25 P          20.6981   72.5853   -4.5307 P.3     1  UNL1        0.2208
     26 O          20.7656   74.2012   -4.4870 O.co2   1  UNL1       -0.4371
     27 O          19.9179   71.9675   -3.4066 O.2     1  UNL1       -0.5170
     28 O          20.1358   72.2404   -6.0037 O.3     1  UNL1       -0.2858
     29 O          19.2940   70.0305   -6.1597 O.3     1  UNL1       -0.3258
     30 O          19.3065   71.0165  -10.1696 O.3     1  UNL1       -0.3794
     31 O          16.8097   70.8320   -8.7625 O.3     1  UNL1       -0.3794
     32 O          21.4606   71.9121   -8.4557 O.3     1  UNL1       -0.3775
     33 C          19.1626   71.2617   -8.7680 C.3     1  UNL1        0.1715
     34 C          18.0467   70.3605   -8.2355 C.3     1  UNL1        0.1694
     35 C          20.4845   70.9509   -8.0685 C.3     1  UNL1        0.1967
     36 C          18.0120   70.3695   -6.7013 C.3     1  UNL1        0.1761
     37 C          20.3287   70.9369   -6.5468 C.3     1  UNL1        0.2704
     38 H          18.4708   71.2124  -10.6197 H       1  UNL1        0.2105
     39 H          16.8450   70.8218   -9.7320 H       1  UNL1        0.2105
     40 H          21.5501   71.9109   -9.4210 H       1  UNL1        0.2106
     41 O          15.7108   69.7449   -6.5490 O.3     1  UNL1       -0.3794
     42 C          17.0116   69.3581   -6.1460 C.3     1  UNL1        0.1693
     43 H          15.0635   69.1100   -6.2030 H       1  UNL1        0.2105
@<TRIPOS>UNITY_ATOM_ATTR
2 1
charge -1
26 1
charge -1
@<TRIPOS>BOND
     1    25    28    1
     2    25    24    1
     3    25    26    1
     4    25    27    2
     5     1     4    1
     6     1    24    1
     7     1     2    1
     8     1     3    2
     9     6    11    1
    10     6    12    1
    11    29    36    1
    12    29    37    1
    13     7     9    1
    14     7    13    1
    15     8    10    1
    16     8    14    1
    17    28    37    1
    18     4     5    1
    19    30    33    1
    20    30    38    1
    21    31    34    1
    22    31    39    1
    23    32    35    1
    24    32    40    1
    25    41    42    1
    26    41    43    1
    27    15    19    2
    28    16    22    2
    29    17    12    1
    30    17    19   ar
    31    17    20   ar
    32    18    19   ar
    33    18    22   ar
    34    18    23    1
    35     9    10    1
    36     9    11    1
    37    10    12    1
    38    11     5    1
    39    33    34    1
    40    33    35    1
    41    34    36    1
    42    35    37    1
    43    36    42    1
    44    20    21   ar
    45    21    22   ar
@<TRIPOS>MOLECULE
*****
 43 45 0 0 0
SMALL
GASTEIGER

@<TRIPOS>ATOM
      1 P          21.1347   73.1523   -4.1012 P.3     1  UNL1        0.2189
      2 O          20.8782   74.1449   -2.8496 O.co2   1  UNL1       -0.4371
      3 O          21.8490   73.7726   -5.2659 O.2     1  UNL1       -0.5170
      4 O          19.6705   72.5417   -4.4191 O.3     1  UNL1       -0.3112
      5 C          19.2012   71.4638   -3.6281 C.3     1  UNL1        0.1811
      6 O          17.3279   71.7601   -5.1035 O.3     1  UNL1       -0.3308
      7 O          15.7795   70.0656   -3.1742 O.3     1  UNL1       -0.3794
      8 O          16.3760   68.3029   -5.1676 O.3     1  UNL1       -0.3779
      9 C          17.1469   69.9640   -3.5683 C.3     1  UNL1        0.1713
     10 C          17.2498   69.3953   -4.9682 C.3     1  UNL1        0.1895
     11 C          17.6868   71.3760   -3.7581 C.3     1  UNL1        0.1764
     12 C          16.8878   70.5973   -5.8239 C.3     1  UNL1        0.2383
     13 H          15.4130   69.1761   -3.0466 H       1  UNL1        0.2105
     14 H          16.6477   67.5637   -4.6014 H       1  UNL1        0.2106
     15 O          15.5252   70.6418   -8.2976 O.2     1  UNL1       -0.2464
     16 O          19.4676   70.4918  -10.6801 O.2     1  UNL1       -0.2670
     17 N          17.5333   70.5712   -7.1061 N.ar    1  UNL1       -0.2551
     18 N          17.4893   70.5672   -9.4819 N.ar    1  UNL1       -0.2743
     19 C          16.7571   70.5960   -8.2882 C.ar    1  UNL1        0.3323
     20 C          18.9209   70.5218   -7.1824 C.ar    1  UNL1        0.0869
     21 C          19.6040   70.4936   -8.3287 C.ar    1  UNL1        0.0795
     22 C          18.8684   70.5168   -9.6095 C.ar    1  UNL1        0.2626
     23 H          16.9697   70.5833  -10.3182 H       1  UNL1        0.1734
     24 O          21.9091   71.9056   -3.4236 O.3     1  UNL1       -0.2703
     25 P          23.3240   71.8308   -2.6457 P.3     1  UNL1        0.2208
     26 O          23.9319   73.3179   -2.8374 O.co2   1  UNL1       -0.4371
     27 O          24.2271   70.7274   -3.1157 O.2     1  UNL1       -0.5170
     28 O          22.9275   71.7508   -1.0832 O.3     1  UNL1       -0.2858
     29 O          22.4913   73.7322    0.1417 O.3     1  UNL1       -0.3258
     30 O          23.4091   71.2068    3.2771 O.3     1  UNL1       -0.3794
     31 O          20.6861   72.0198    2.8616 O.3     1  UNL1       -0.3794
     32 O          24.8822   71.0182    0.7923 O.3     1  UNL1       -0.3775
     33 C          22.8682   71.5546    1.9996 C.3     1  UNL1        0.1715
     34 C          21.7972   72.6272    2.2083 C.3     1  UNL1        0.1694
     35 C          23.9914   72.0825    1.1090 C.3     1  UNL1        0.1967
     36 C          21.3606   73.2415    0.8714 C.3     1  UNL1        0.1761
     37 C          23.4459   72.7163   -0.1720 C.3     1  UNL1        0.2704
     38 H          22.7011   70.8704    3.8473 H       1  UNL1        0.2105
     39 H          20.9755   71.6354    3.7041 H       1  UNL1        0.2105
     40 H          25.2208   70.6255    1.6115 H       1  UNL1        0.2106
     41 O          20.3507   75.1554   -0.1415 O.3     1  UNL1       -0.3794
     42 C          20.4101   74.4205    1.0672 C.3     1  UNL1        0.1693
     43 H          19.7491   75.9088   -0.0318 H       1  UNL1        0.2105
@<TRIPOS>UNITY_ATOM_ATTR
2 1
charge -1
26 1
charge -1
@<TRIPOS>BOND
     1    25    28    1
     2    25    24    1
     3    25    26    1
     4    25    27    2
     5     1     4    1
     6     1    24    1
     7     1     2    1
     8     1     3    2
     9     6    11    1
    10     6    12    1
    11    29    36    1
    12    29    37    1
    13     7     9    1
    14     7    13    1
    15     8    10    1
    16     8    14    1
    17    28    37    1
    18     4     5    1
    19    30    33    1
    20    30    38    1
    21    31    34    1
    22    31    39    1
    23    32    35    1
    24    32    40    1
    25    41    42    1
    26    41    43    1
    27    15    19    2
    28    16    22    2
    29    17    12    1
    30    17    19   ar
    31    17    20   ar
    32    18    19   ar
    33    18    22   ar
    34    18    23    1
    35     9    10    1
    36     9    11    1
    37    10    12    1
    38    11     5    1
    39    33    34    1
    40    33    35    1
    41    34    36    1
    42    35    37    1
    43    36    42    1
    44    20    21   ar
    45    21    22   ar
@<TRIPOS>MOLECULE
*****
 43 45 0 0 0
SMALL
GASTEIGER

@<TRIPOS>ATOM
      1 P          21.8635   72.4691   -5.7084 P.3     1  UNL1        0.2189
      2 O          21.2139   73.8951   -5.3061 O.co2   1  UNL1       -0.4371
      3 O          23.0775   72.5509   -6.5866 O.2     1  UNL1       -0.5170
      4 O          20.6172   71.6300   -6.3089 O.3     1  UNL1       -0.3112
      5 C          20.1144   71.9863   -7.5849 C.3     1  UNL1        0.1811
      6 O          18.9051   69.9545   -7.1567 O.3     1  UNL1       -0.3308
      7 O          18.1037   70.0434  -10.0447 O.3     1  UNL1       -0.3794
      8 O          15.8809   70.9922   -8.7816 O.3     1  UNL1       -0.3779
      9 C          18.2845   71.1190   -9.1251 C.3     1  UNL1        0.1713
     10 C          17.1300   71.1737   -8.1464 C.3     1  UNL1        0.1895
     11 C          19.4556   70.7674   -8.2162 C.3     1  UNL1        0.1764
     12 C          17.4712   70.0410   -7.1931 C.3     1  UNL1        0.2383
     13 H          17.3611   70.2452  -10.6361 H       1  UNL1        0.2105
     14 H          15.7094   71.7382   -9.3773 H       1  UNL1        0.2106
     15 O          16.2670   68.0766   -5.5594 O.2     1  UNL1       -0.2464
     16 O          15.6401   71.0676   -2.1096 O.2     1  UNL1       -0.2670
     17 N          16.9845   70.2788   -5.8635 N.ar    1  UNL1       -0.2551
     18 N          15.9560   69.5674   -3.8429 N.ar    1  UNL1       -0.2743
     19 C          16.3954   69.2241   -5.1279 C.ar    1  UNL1        0.3323
     20 C          17.0938   71.5463   -5.3019 C.ar    1  UNL1        0.0869
     21 C          16.6687   71.8576   -4.0757 C.ar    1  UNL1        0.0795
     22 C          16.0413   70.8128   -3.2409 C.ar    1  UNL1        0.2626
     23 H          15.5419   68.8487   -3.3121 H       1  UNL1        0.1734
     24 O          22.1167   71.7674   -4.2744 O.3     1  UNL1       -0.2703
     25 P          23.3152   71.9422   -3.2039 P.3     1  UNL1        0.2208
     26 O          23.9892   73.3504   -3.6281 O.co2   1  UNL1       -0.4371
     27 O          24.2724   70.7865   -3.1577 O.2     1  UNL1       -0.5170
     28 O          22.5716   72.2512   -1.8051 O.3     1  UNL1       -0.2858
     29 O          22.4847   74.0480   -0.2622 O.3     1  UNL1       -0.3258
     30 O          23.0815   70.9345    2.3838 O.3     1  UNL1       -0.3794
     31 O          20.5090   72.2038    2.2448 O.3     1  UNL1       -0.3794
     32 O          24.4382   70.9365   -0.1733 O.3     1  UNL1       -0.3775
     33 C          22.5669   71.5640    1.2072 C.3     1  UNL1        0.1715
     34 C          21.6832   72.7363    1.6380 C.3     1  UNL1        0.1694
     35 C          23.7340   72.0560    0.3533 C.3     1  UNL1        0.1967
     36 C          21.3116   73.6196    0.4393 C.3     1  UNL1        0.1761
     37 C          23.2596   72.9655   -0.7815 C.3     1  UNL1        0.2704
     38 H          22.3455   70.6194    2.9302 H       1  UNL1        0.2105
     39 H          20.7576   71.6477    2.9998 H       1  UNL1        0.2105
     40 H          24.7335   70.3687    0.5549 H       1  UNL1        0.2106
     41 O          20.6641   75.0062    2.2743 O.3     1  UNL1       -0.3794
     42 C          20.5630   74.8798    0.8678 C.3     1  UNL1        0.1693
     43 H          20.1925   75.8042    2.5613 H       1  UNL1        0.2105
@<TRIPOS>UNITY_ATOM_ATTR
2 1
charge -1
26 1
charge -1
@<TRIPOS>BOND
     1    25    28    1
     2    25    24    1
     3    25    26    1
     4    25    27    2
     5     1     4    1
     6     1    24    1
     7     1     2    1
     8     1     3    2
     9     6    11    1
    10     6    12    1
    11    29    36    1
    12    29    37    1
    13     7     9    1
    14     7    13    1
    15     8    10    1
    16     8    14    1
    17    28    37    1
    18     4     5    1
    19    30    33    1
    20    30    38    1
    21    31    34    1
    22    31    39    1
    23    32    35    1
    24    32    40    1
    25    41    42    1
    26    41    43    1
    27    15    19    2
    28    16    22    2
    29    17    12    1
    30    17    19   ar
    31    17    20   ar
    32    18    19   ar
    33    18    22   ar
    34    18    23    1
    35     9    10    1
    36     9    11    1
    37    10    12    1
    38    11     5    1
    39    33    34    1
    40    33    35    1
    41    34    36    1
    42    35    37    1
    43    36    42    1
    44    20    21   ar
    45    21    22   ar
@<TRIPOS>MOLECULE
*****
 43 45 0 0 0
SMALL
GASTEIGER

@<TRIPOS>ATOM
      1 P          19.3480   70.5405   -3.0836 P.3     1  UNL1        0.2189
      2 O          18.5595   69.7556   -1.9090 O.co2   1  UNL1       -0.4371
      3 O          19.9400   69.6620   -4.1462 O.2     1  UNL1       -0.5170
      4 O          20.3950   71.4820   -2.2865 O.3     1  UNL1       -0.3112
      5 C          20.0764   72.8518   -2.1136 C.3     1  UNL1        0.1811
      6 O          20.1030   72.1477    0.1836 O.3     1  UNL1       -0.3308
      7 O          18.6261   74.6872    0.7841 O.3     1  UNL1       -0.3794
      8 O          21.1825   75.3007    1.5089 O.3     1  UNL1       -0.3779
      9 C          19.6528   74.4463   -0.1767 C.3     1  UNL1        0.1713
     10 C          20.9964   74.3184    0.5103 C.3     1  UNL1        0.1895
     11 C          19.4489   73.0453   -0.7399 C.3     1  UNL1        0.1764
     12 C          20.9264   72.9117    1.0798 C.3     1  UNL1        0.2383
     13 H          18.7353   75.5764    1.1575 H       1  UNL1        0.2105
     14 H          21.2205   76.1778    1.0968 H       1  UNL1        0.2106
     15 O          21.3667   70.1226    1.0081 O.2     1  UNL1       -0.2464
     16 O          25.9261   70.6467    1.4302 O.2     1  UNL1       -0.2670
     17 N          22.2185   72.2919    1.1686 N.ar    1  UNL1       -0.2551
     18 N          23.6366   70.3858    1.2181 N.ar    1  UNL1       -0.2743
     19 C          22.3303   70.8826    1.1237 C.ar    1  UNL1        0.3323
     20 C          23.3574   73.0793    1.2983 C.ar    1  UNL1        0.0869
     21 C          24.5958   72.5899    1.3884 C.ar    1  UNL1        0.0795
     22 C          24.8000   71.1275    1.3495 C.ar    1  UNL1        0.2626
     23 H          23.7389   69.4068    1.1895 H       1  UNL1        0.1734
     24 O          18.2461   71.5950   -3.6193 O.3     1  UNL1       -0.2703
     25 P          16.8487   71.3660   -4.3987 P.3     1  UNL1        0.2208
     26 O          16.3018   72.8710   -4.6299 O.co2   1  UNL1       -0.4371
     27 O          15.8871   70.4606   -3.6849 O.2     1  UNL1       -0.5170
     28 O          17.2794   70.8584   -5.8690 O.3     1  UNL1       -0.2858
     29 O          18.9491   72.2323   -6.8392 O.3     1  UNL1       -0.3258
     30 O          17.9576   69.9650  -10.1448 O.3     1  UNL1       -0.3794
     31 O          20.4662   69.5185   -8.8198 O.3     1  UNL1       -0.3794
     32 O          15.8906   70.8196   -8.3072 O.3     1  UNL1       -0.3775
     33 C          18.1784   70.2133   -8.7538 C.3     1  UNL1        0.1715
     34 C          19.6338   70.6475   -8.5693 C.3     1  UNL1        0.1694
     35 C          17.2260   71.3120   -8.2855 C.3     1  UNL1        0.1967
     36 C          19.8759   71.1862   -7.1528 C.3     1  UNL1        0.1761
     37 C          17.5845   71.8108   -6.8845 C.3     1  UNL1        0.2704
     38 H          18.5588   69.2679  -10.4483 H       1  UNL1        0.2105
     39 H          20.3032   69.1878   -9.7171 H       1  UNL1        0.2105
     40 H          15.6757   70.5071   -9.1995 H       1  UNL1        0.2106
     41 O          21.7420   72.1759   -8.2696 O.3     1  UNL1       -0.3794
     42 C          21.2781   71.7703   -6.9950 C.3     1  UNL1        0.1693
     43 H          22.6333   72.5501   -8.1845 H       1  UNL1        0.2105
@<TRIPOS>UNITY_ATOM_ATTR
2 1
charge -1
26 1
charge -1
@<TRIPOS>BOND
     1    25    28    1
     2    25    24    1
     3    25    26    1
     4    25    27    2
     5     1     4    1
     6     1    24    1
     7     1     2    1
     8     1     3    2
     9     6    11    1
    10     6    12    1
    11    29    36    1
    12    29    37    1
    13     7     9    1
    14     7    13    1
    15     8    10    1
    16     8    14    1
    17    28    37    1
    18     4     5    1
    19    30    33    1
    20    30    38    1
    21    31    34    1
    22    31    39    1
    23    32    35    1
    24    32    40    1
    25    41    42    1
    26    41    43    1
    27    15    19    2
    28    16    22    2
    29    17    12    1
    30    17    19   ar
    31    17    20   ar
    32    18    19   ar
    33    18    22   ar
    34    18    23    1
    35     9    10    1
    36     9    11    1
    37    10    12    1
    38    11     5    1
    39    33    34    1
    40    33    35    1
    41    34    36    1
    42    35    37    1
    43    36    42    1
    44    20    21   ar
    45    21    22   ar
@<TRIPOS>MOLECULE
*****
 43 45 0 0 0
SMALL
GASTEIGER

@<TRIPOS>ATOM
      1 P          21.6973   71.4944    0.3289 P.3     1  UNL1        0.2189
      2 O          21.6224   70.0244    1.0005 O.co2   1  UNL1       -0.4371
      3 O          20.5921   72.4290    0.7246 O.2     1  UNL1       -0.5170
      4 O          21.8279   71.1916   -1.2551 O.3     1  UNL1       -0.3112
      5 C          22.1068   72.2714   -2.1292 C.3     1  UNL1        0.1811
      6 O          21.6343   70.5666   -3.7553 O.3     1  UNL1       -0.3308
      7 O          23.0215   72.3366   -5.7386 O.3     1  UNL1       -0.3794
      8 O          20.3870   72.8052   -6.2645 O.3     1  UNL1       -0.3779
      9 C          22.1895   72.6952   -4.6365 C.3     1  UNL1        0.1713
     10 C          20.7383   72.4028   -4.9563 C.3     1  UNL1        0.1895
     11 C          22.4681   71.7183   -3.5010 C.3     1  UNL1        0.1764
     12 C          20.6720   70.8965   -4.7703 C.3     1  UNL1        0.2383
     13 H          22.8616   72.9468   -6.4762 H       1  UNL1        0.2105
     14 H          20.4446   73.7710   -6.3323 H       1  UNL1        0.2106
     15 O          18.4882   70.4518   -6.5055 O.2     1  UNL1       -0.2464
     16 O          15.7404   69.2003   -3.0234 O.2     1  UNL1       -0.2670
     17 N          19.3744   70.4538   -4.3441 N.ar    1  UNL1       -0.2551
     18 N          17.1218   69.8288   -4.7703 N.ar    1  UNL1       -0.2743
     19 C          18.3459   70.2619   -5.2958 C.ar    1  UNL1        0.3323
     20 C          19.1321   70.2145   -2.9958 C.ar    1  UNL1        0.0869
     21 C          17.9588   69.8030   -2.5107 C.ar    1  UNL1        0.0795
     22 C          16.8315   69.5785   -3.4385 C.ar    1  UNL1        0.2626
     23 H          16.3904   69.6888   -5.4147 H       1  UNL1        0.1734
     24 O          23.1804   72.0001    0.7256 O.3     1  UNL1       -0.2703
     25 P          24.0075   71.8821    2.1095 P.3     1  UNL1        0.2208
     26 O          25.2007   72.9584    1.9216 O.co2   1  UNL1       -0.4371
     27 O          24.4729   70.4915    2.4314 O.2     1  UNL1       -0.5170
     28 O          23.0386   72.5374    3.2216 O.3     1  UNL1       -0.2858
     29 O          21.4807   74.3204    3.1186 O.3     1  UNL1       -0.3258
     30 O          23.1079   75.0799    6.8370 O.3     1  UNL1       -0.3794
     31 O          20.4437   74.0251    6.6437 O.3     1  UNL1       -0.3794
     32 O          24.8042   74.1604    4.6790 O.3     1  UNL1       -0.3775
     33 C          22.6524   74.2608    5.7567 C.3     1  UNL1        0.1715
     34 C          21.1663   74.5465    5.5318 C.3     1  UNL1        0.1694
     35 C          23.4596   74.5936    4.5032 C.3     1  UNL1        0.1967
     36 C          20.6711   73.9095    4.2265 C.3     1  UNL1        0.1761
     37 C          22.8542   73.9503    3.2543 C.3     1  UNL1        0.2704
     38 H          22.5998   74.8732    7.6361 H       1  UNL1        0.2105
     39 H          20.7664   74.4351    7.4616 H       1  UNL1        0.2105
     40 H          25.1762   74.5748    5.4725 H       1  UNL1        0.2106
     41 O          18.3622   73.5882    4.7507 O.3     1  UNL1       -0.3794
     42 C          19.2341   74.3125    3.9025 C.3     1  UNL1        0.1693
     43 H          17.4440   73.8348    4.5560 H       1  UNL1        0.2105
@<TRIPOS>UNITY_ATOM_ATTR
2 1
charge -1
26 1
charge -1
@<TRIPOS>BOND
     1    25    28    1
     2    25    24    1
     3    25    26    1
     4    25    27    2
     5     1     4    1
     6     1    24    1
     7     1     2    1
     8     1     3    2
     9     6    11    1
    10     6    12    1
    11    29    36    1
    12    29    37    1
    13     7     9    1
    14     7    13    1
    15     8    10    1
    16     8    14    1
    17    28    37    1
    18     4     5    1
    19    30    33    1
    20    30    38    1
    21    31    34    1
    22    31    39    1
    23    32    35    1
    24    32    40    1
    25    41    42    1
    26    41    43    1
    27    15    19    2
    28    16    22    2
    29    17    12    1
    30    17    19   ar
    31    17    20   ar
    32    18    19   ar
    33    18    22   ar
    34    18    23    1
    35     9    10    1
    36     9    11    1
    37    10    12    1
    38    11     5    1
    39    33    34    1
    40    33    35    1
    41    34    36    1
    42    35    37    1
    43    36    42    1
    44    20    21   ar
    45    21    22   ar
@<TRIPOS>MOLECULE
*****
 43 45 0 0 0
SMALL
GASTEIGER

@<TRIPOS>ATOM
      1 P          21.7864   72.5038   -5.5675 P.3     1  UNL1        0.2189
      2 O          21.1711   73.9843   -5.3509 O.co2   1  UNL1       -0.4371
      3 O          23.0299   72.4507   -6.4055 O.2     1  UNL1       -0.5170
      4 O          20.5333   71.6385   -6.1141 O.3     1  UNL1       -0.3112
      5 C          19.9712   71.9809   -7.3690 C.3     1  UNL1        0.1811
      6 O          18.6979   69.9954   -6.9107 O.3     1  UNL1       -0.3308
      7 O          18.0593   69.9543   -9.8400 O.3     1  UNL1       -0.3794
      8 O          15.7904   71.0052   -8.7518 O.3     1  UNL1       -0.3779
      9 C          18.2115   71.0711   -8.9654 C.3     1  UNL1        0.1713
     10 C          17.0061   71.1955   -8.0570 C.3     1  UNL1        0.1895
     11 C          19.3230   70.7442   -7.9760 C.3     1  UNL1        0.1764
     12 C          17.2703   70.1059   -7.0318 C.3     1  UNL1        0.2383
     13 H          17.3549   70.1397  -10.4814 H       1  UNL1        0.2105
     14 H          15.6678   71.7235   -9.3919 H       1  UNL1        0.2106
     15 O          16.5597   68.1818   -5.0900 O.2     1  UNL1       -0.2464
     16 O          15.1508   71.4215   -2.1302 O.2     1  UNL1       -0.2670
     17 N          16.7160   70.4187   -5.7449 N.ar    1  UNL1       -0.2551
     18 N          15.8589   69.7965   -3.6177 N.ar    1  UNL1       -0.2743
     19 C          16.3927   69.3780   -4.8433 C.ar    1  UNL1        0.3323
     20 C          16.4985   71.7450   -5.3878 C.ar    1  UNL1        0.0869
     21 C          15.9875   72.1274   -4.2157 C.ar    1  UNL1        0.0795
     22 C          15.6228   71.1020   -3.2169 C.ar    1  UNL1        0.2626
     23 H          15.6258   69.0888   -2.9739 H       1  UNL1        0.1734
     24 O          21.9703   71.9619   -4.0557 O.3     1  UNL1       -0.2703
     25 P          23.2262   72.0499   -3.0419 P.3     1  UNL1        0.2208
     26 O          23.8758   73.4924   -3.3803 O.co2   1  UNL1       -0.4371
     27 O          24.1844   70.8990   -3.1479 O.2     1  UNL1       -0.5170
     28 O          22.5612   72.2344   -1.5829 O.3     1  UNL1       -0.2858
     29 O          23.4573   70.6556   -0.0594 O.3     1  UNL1       -0.3258
     30 O          20.4607   72.2284    2.3066 O.3     1  UNL1       -0.3794
     31 O          23.2008   72.8776    2.8708 O.3     1  UNL1       -0.3794
     32 O          19.9989   71.8099   -0.5203 O.3     1  UNL1       -0.3775
     33 C          21.4912   72.2619    1.3154 C.3     1  UNL1        0.1715
     34 C          22.8057   71.8416    1.9759 C.3     1  UNL1        0.1694
     35 C          21.1270   71.3024    0.1841 C.3     1  UNL1        0.1967
     36 C          23.8987   71.5956    0.9272 C.3     1  UNL1        0.1761
     37 C          22.2993   71.0896   -0.7754 C.3     1  UNL1        0.2704
     38 H          20.6856   72.8359    3.0276 H       1  UNL1        0.2105
     39 H          22.5017   73.0234    3.5275 H       1  UNL1        0.2105
     40 H          19.2635   71.9399    0.0980 H       1  UNL1        0.2106
     41 O          24.8061   70.2086    2.6483 O.3     1  UNL1       -0.3794
     42 C          25.1707   71.0243    1.5500 C.3     1  UNL1        0.1693
     43 H          25.6057   69.8379    3.0544 H       1  UNL1        0.2105
@<TRIPOS>UNITY_ATOM_ATTR
2 1
charge -1
26 1
charge -1
@<TRIPOS>BOND
     1    25    28    1
     2    25    24    1
     3    25    26    1
     4    25    27    2
     5     1     4    1
     6     1    24    1
     7     1     2    1
     8     1     3    2
     9     6    11    1
    10     6    12    1
    11    29    36    1
    12    29    37    1
    13     7     9    1
    14     7    13    1
    15     8    10    1
    16     8    14    1
    17    28    37    1
    18     4     5    1
    19    30    33    1
    20    30    38    1
    21    31    34    1
    22    31    39    1
    23    32    35    1
    24    32    40    1
    25    41    42    1
    26    41    43    1
    27    15    19    2
    28    16    22    2
    29    17    12    1
    30    17    19   ar
    31    17    20   ar
    32    18    19   ar
    33    18    22   ar
    34    18    23    1
    35     9    10    1
    36     9    11    1
    37    10    12    1
    38    11     5    1
    39    33    34    1
    40    33    35    1
    41    34    36    1
    42    35    37    1
    43    36    42    1
    44    20    21   ar
    45    21    22   ar
@<TRIPOS>MOLECULE
*****
 43 45 0 0 0
SMALL
GASTEIGER

@<TRIPOS>ATOM
      1 P          20.2314   71.0371   -1.8407 P.3     1  UNL1        0.2189
      2 O          19.8464   72.5500   -1.4160 O.co2   1  UNL1       -0.4371
      3 O          19.0612   70.1283   -2.0779 O.2     1  UNL1       -0.5170
      4 O          21.2677   70.5630   -0.6921 O.3     1  UNL1       -0.3112
      5 C          21.9369   71.5555    0.0661 C.3     1  UNL1        0.1811
      6 O          22.6044   70.9688    2.2986 O.3     1  UNL1       -0.3308
      7 O          20.2326   72.5531    3.2234 O.3     1  UNL1       -0.3794
      8 O          22.3009   74.2804    3.6418 O.3     1  UNL1       -0.3779
      9 C          21.1097   72.7995    2.1255 C.3     1  UNL1        0.1713
     10 C          22.4452   73.3109    2.6239 C.3     1  UNL1        0.1895
     11 C          21.4904   71.4550    1.5182 C.3     1  UNL1        0.1764
     12 C          23.1055   72.0359    3.1203 C.3     1  UNL1        0.2383
     13 H          19.9754   73.3973    3.6273 H       1  UNL1        0.2105
     14 H          21.8763   75.0722    3.2765 H       1  UNL1        0.2106
     15 O          24.7070   69.8649    2.2837 O.2     1  UNL1       -0.2464
     16 O          28.5837   72.3185    2.7221 O.2     1  UNL1       -0.2670
     17 N          24.5360   72.0798    3.0063 N.ar    1  UNL1       -0.2551
     18 N          26.6360   71.0884    2.5025 N.ar    1  UNL1       -0.2743
     19 C          25.2459   70.9339    2.5780 C.ar    1  UNL1        0.3323
     20 C          25.2204   73.2497    3.3173 C.ar    1  UNL1        0.0869
     21 C          26.5465   73.3804    3.2414 C.ar    1  UNL1        0.0795
     22 C          27.3624   72.2301    2.8021 C.ar    1  UNL1        0.2626
     23 H          27.1514   70.3031    2.2068 H       1  UNL1        0.1734
     24 O          21.1874   71.2525   -3.1262 O.3     1  UNL1       -0.2703
     25 P          21.1999   72.4062   -4.2584 P.3     1  UNL1        0.2208
     26 O          22.3848   71.9356   -5.2545 O.co2   1  UNL1       -0.4371
     27 O          21.3614   73.7973   -3.7176 O.2     1  UNL1       -0.5170
     28 O          19.8425   72.1686   -5.0987 O.3     1  UNL1       -0.2858
     29 O          18.7810   70.0631   -5.3366 O.3     1  UNL1       -0.3258
     30 O          17.5011   71.8462   -8.8342 O.3     1  UNL1       -0.3794
     31 O          15.6423   71.4525   -6.6807 O.3     1  UNL1       -0.3794
     32 O          20.1944   72.3086   -7.8793 O.3     1  UNL1       -0.3775
     33 C          17.8777   71.8042   -7.4551 C.3     1  UNL1        0.1715
     34 C          16.9311   70.8468   -6.7284 C.3     1  UNL1        0.1694
     35 C          19.3218   71.3181   -7.3466 C.3     1  UNL1        0.1967
     36 C          17.4318   70.5434   -5.3098 C.3     1  UNL1        0.1761
     37 C          19.7029   70.9983   -5.9000 C.3     1  UNL1        0.2704
     38 H          16.5853   72.1545   -8.9101 H       1  UNL1        0.2105
     39 H          15.3379   71.6394   -7.5827 H       1  UNL1        0.2105
     40 H          19.9430   72.5020   -8.7954 H       1  UNL1        0.2106
     41 O          17.4607   68.5649   -3.9705 O.3     1  UNL1       -0.3794
     42 C          16.5898   69.4700   -4.6236 C.3     1  UNL1        0.1693
     43 H          16.9387   67.8763   -3.5290 H       1  UNL1        0.2105
@<TRIPOS>UNITY_ATOM_ATTR
2 1
charge -1
26 1
charge -1
@<TRIPOS>BOND
     1    25    28    1
     2    25    24    1
     3    25    26    1
     4    25    27    2
     5     1     4    1
     6     1    24    1
     7     1     2    1
     8     1     3    2
     9     6    11    1
    10     6    12    1
    11    29    36    1
    12    29    37    1
    13     7     9    1
    14     7    13    1
    15     8    10    1
    16     8    14    1
    17    28    37    1
    18     4     5    1
    19    30    33    1
    20    30    38    1
    21    31    34    1
    22    31    39    1
    23    32    35    1
    24    32    40    1
    25    41    42    1
    26    41    43    1
    27    15    19    2
    28    16    22    2
    29    17    12    1
    30    17    19   ar
    31    17    20   ar
    32    18    19   ar
    33    18    22   ar
    34    18    23    1
    35     9    10    1
    36     9    11    1
    37    10    12    1
    38    11     5    1
    39    33    34    1
    40    33    35    1
    41    34    36    1
    42    35    37    1
    43    36    42    1
    44    20    21   ar
    45    21    22   ar
