@<TRIPOS>MOLECULE
*****
 43 45 0 0 0
SMALL
GASTEIGER

@<TRIPOS>ATOM
      1 P          22.2877   71.4636   -3.0313 P.3     1  UNL1        0.2189
      2 O          22.4000   73.0584   -3.2790 O.co2   1  UNL1       -0.4371
      3 O          23.5808   70.7115   -3.1480 O.2     1  UNL1       -0.5170
      4 O          21.1098   70.9962   -4.0374 O.3     1  UNL1       -0.3112
      5 C          20.2103   69.9906   -3.6045 C.3     1  UNL1        0.1811
      6 O          18.5362   71.3220   -4.6992 O.3     1  UNL1       -0.3308
      7 O          16.5920   70.1528   -2.7386 O.3     1  UNL1       -0.3794
      8 O          16.1206   68.6870   -4.9893 O.3     1  UNL1       -0.3779
      9 C          17.7174   69.5414   -3.3670 C.3     1  UNL1        0.1713
     10 C          17.4096   69.2404   -4.8190 C.3     1  UNL1        0.1895
     11 C          18.8160   70.5904   -3.4856 C.3     1  UNL1        0.1764
     12 C          17.5469   70.6106   -5.4608 C.3     1  UNL1        0.2383
     13 H          15.8773   69.5020   -2.6516 H       1  UNL1        0.2105
     14 H          16.0837   67.8161   -4.5639 H       1  UNL1        0.2106
     15 O          15.8136   70.2499   -7.6615 O.2     1  UNL1       -0.2464
     16 O          19.3102   70.3309  -10.6629 O.2     1  UNL1       -0.2670
     17 N          17.9774   70.5343   -6.8283 N.ar    1  UNL1       -0.2551
     18 N          17.5560   70.2907   -9.1542 N.ar    1  UNL1       -0.2743
     19 C          17.0262   70.3506   -7.8589 C.ar    1  UNL1        0.3323
     20 C          19.3292   70.6414   -7.1363 C.ar    1  UNL1        0.0869
     21 C          19.8184   70.5809   -8.3766 C.ar    1  UNL1        0.0795
     22 C          18.8915   70.3907   -9.5109 C.ar    1  UNL1        0.2626
     23 H          16.9121   70.1628   -9.8882 H       1  UNL1        0.1734
     24 O          21.5836   71.3700   -1.5793 O.3     1  UNL1       -0.2703
     25 P          22.2169   71.2058   -0.1011 P.3     1  UNL1        0.2208
     26 O          23.8005   71.0467   -0.3914 O.co2   1  UNL1       -0.4371
     27 O          21.6195   70.0880    0.7036 O.2     1  UNL1       -0.5170
     28 O          22.0703   72.6661    0.5706 O.3     1  UNL1       -0.2858
     29 O          23.7488   74.3293    0.3885 O.3     1  UNL1       -0.3258
     30 O          21.9556   75.5822    3.8907 O.3     1  UNL1       -0.3794
     31 O          21.5634   77.0906    1.4784 O.3     1  UNL1       -0.3794
     32 O          22.2825   72.7540    3.3674 O.3     1  UNL1       -0.3775
     33 C          21.9972   75.0122    2.5797 C.3     1  UNL1        0.1715
     34 C          22.5445   76.0664    1.6155 C.3     1  UNL1        0.1694
     35 C          22.9008   73.7807    2.5993 C.3     1  UNL1        0.1967
     36 C          22.8691   75.4509    0.2477 C.3     1  UNL1        0.1761
     37 C          23.2009   73.2778    1.1861 C.3     1  UNL1        0.2704
     38 H          21.3831   76.3643    3.8852 H       1  UNL1        0.2105
     39 H          21.3672   77.4707    2.3492 H       1  UNL1        0.2105
     40 H          22.0980   73.0847    4.2599 H       1  UNL1        0.2106
     41 O          22.5752   77.2707   -1.2725 O.3     1  UNL1       -0.3794
     42 C          23.5623   76.4480   -0.6782 C.3     1  UNL1        0.1693
     43 H          23.0020   77.9105   -1.8643 H       1  UNL1        0.2105
@<TRIPOS>UNITY_ATOM_ATTR
2 1
charge -1
26 1
charge -1
@<TRIPOS>BOND
     1    25    28    1
     2    25    24    1
     3    25    26    1
     4    25    27    2
     5     1     4    1
     6     1    24    1
     7     1     2    1
     8     1     3    2
     9     6    11    1
    10     6    12    1
    11    29    36    1
    12    29    37    1
    13     7     9    1
    14     7    13    1
    15     8    10    1
    16     8    14    1
    17    28    37    1
    18     4     5    1
    19    30    33    1
    20    30    38    1
    21    31    34    1
    22    31    39    1
    23    32    35    1
    24    32    40    1
    25    41    42    1
    26    41    43    1
    27    15    19    2
    28    16    22    2
    29    17    12    1
    30    17    19   ar
    31    17    20   ar
    32    18    19   ar
    33    18    22   ar
    34    18    23    1
    35     9    10    1
    36     9    11    1
    37    10    12    1
    38    11     5    1
    39    33    34    1
    40    33    35    1
    41    34    36    1
    42    35    37    1
    43    36    42    1
    44    20    21   ar
    45    21    22   ar
@<TRIPOS>MOLECULE
*****
 43 45 0 0 0
SMALL
GASTEIGER

@<TRIPOS>ATOM
      1 P          22.9762   71.3585   -2.4348 P.3     1  UNL1        0.2189
      2 O          22.6916   72.9266   -2.7136 O.co2   1  UNL1       -0.4371
      3 O          24.1955   70.8054   -3.1120 O.2     1  UNL1       -0.5170
      4 O          21.5768   70.6374   -2.8085 O.3     1  UNL1       -0.3112
      5 C          20.9257   71.0073   -4.0115 C.3     1  UNL1        0.1811
      6 O          18.8454   71.7912   -4.9234 O.3     1  UNL1       -0.3308
      7 O          17.5344   70.4853   -2.5641 O.3     1  UNL1       -0.3794
      8 O          17.1027   68.6777   -4.5598 O.3     1  UNL1       -0.3779
      9 C          18.6696   70.0591   -3.3157 C.3     1  UNL1        0.1713
     10 C          18.2357   69.5161   -4.6612 C.3     1  UNL1        0.1895
     11 C          19.4614   71.2987   -3.7133 C.3     1  UNL1        0.1764
     12 C          17.9526   70.7902   -5.4388 C.3     1  UNL1        0.2383
     13 H          17.0133   69.7107   -2.2986 H       1  UNL1        0.2105
     14 H          17.3337   67.8812   -4.0569 H       1  UNL1        0.2106
     15 O          15.9305   70.3045   -7.3502 O.2     1  UNL1       -0.2464
     16 O          18.9706   70.2151  -10.8130 O.2     1  UNL1       -0.2670
     17 N          18.1875   70.6362   -6.8468 N.ar    1  UNL1       -0.2551
     18 N          17.4459   70.2606   -9.0729 N.ar    1  UNL1       -0.2743
     19 C          17.1026   70.3941   -7.7214 C.ar    1  UNL1        0.3323
     20 C          19.4818   70.7258   -7.3473 C.ar    1  UNL1        0.0869
     21 C          19.7925   70.5949   -8.6386 C.ar    1  UNL1        0.0795
     22 C          18.7172   70.3403   -9.6189 C.ar    1  UNL1        0.2626
     23 H          16.7064   70.0911   -9.7007 H       1  UNL1        0.1734
     24 O          23.0075   71.2763   -0.8207 O.3     1  UNL1       -0.2703
     25 P          21.8948   71.6692    0.2841 P.3     1  UNL1        0.2208
     26 O          21.5761   70.2579    1.0079 O.co2   1  UNL1       -0.4371
     27 O          20.6881   72.3634   -0.2779 O.2     1  UNL1       -0.5170
     28 O          22.7020   72.5221    1.3914 O.3     1  UNL1       -0.2858
     29 O          24.4616   72.1469    2.9339 O.3     1  UNL1       -0.3258
     30 O          21.7574   73.9886    5.4530 O.3     1  UNL1       -0.3794
     31 O          24.1039   75.4121    4.6070 O.3     1  UNL1       -0.3794
     32 O          20.8213   72.1335    3.4377 O.3     1  UNL1       -0.3775
     33 C          22.4296   73.7499    4.2135 C.3     1  UNL1        0.1715
     34 C          23.9229   74.0112    4.4197 C.3     1  UNL1        0.1694
     35 C          22.1910   72.3027    3.7869 C.3     1  UNL1        0.1967
     36 C          24.7420   73.5227    3.2175 C.3     1  UNL1        0.1761
     37 C          23.0900   71.9036    2.6153 C.3     1  UNL1        0.2704
     38 H          21.9045   74.9060    5.7293 H       1  UNL1        0.2105
     39 H          23.5810   75.7079    5.3688 H       1  UNL1        0.2105
     40 H          20.2626   72.3891    4.1876 H       1  UNL1        0.2106
     41 O          26.6750   74.9202    3.0775 O.3     1  UNL1       -0.3794
     42 C          26.2447   73.6291    3.4679 C.3     1  UNL1        0.1693
     43 H          27.6296   75.0025    3.2316 H       1  UNL1        0.2105
@<TRIPOS>UNITY_ATOM_ATTR
2 1
charge -1
26 1
charge -1
@<TRIPOS>BOND
     1    25    28    1
     2    25    24    1
     3    25    26    1
     4    25    27    2
     5     1     4    1
     6     1    24    1
     7     1     2    1
     8     1     3    2
     9     6    11    1
    10     6    12    1
    11    29    36    1
    12    29    37    1
    13     7     9    1
    14     7    13    1
    15     8    10    1
    16     8    14    1
    17    28    37    1
    18     4     5    1
    19    30    33    1
    20    30    38    1
    21    31    34    1
    22    31    39    1
    23    32    35    1
    24    32    40    1
    25    41    42    1
    26    41    43    1
    27    15    19    2
    28    16    22    2
    29    17    12    1
    30    17    19   ar
    31    17    20   ar
    32    18    19   ar
    33    18    22   ar
    34    18    23    1
    35     9    10    1
    36     9    11    1
    37    10    12    1
    38    11     5    1
    39    33    34    1
    40    33    35    1
    41    34    36    1
    42    35    37    1
    43    36    42    1
    44    20    21   ar
    45    21    22   ar
@<TRIPOS>MOLECULE
*****
 43 45 0 0 0
SMALL
GASTEIGER

@<TRIPOS>ATOM
      1 P          21.1209   72.0206   -5.2747 P.3     1  UNL1        0.2189
      2 O          20.6082   70.9002   -4.2263 O.co2   1  UNL1       -0.4371
      3 O          20.3860   73.3275   -5.2155 O.2     1  UNL1       -0.5170
      4 O          21.0883   71.2603   -6.7026 O.3     1  UNL1       -0.3112
      5 C          20.2262   71.7549   -7.7124 C.3     1  UNL1        0.1811
      6 O          18.8942   69.8041   -7.2716 O.3     1  UNL1       -0.3308
      7 O          18.0366   69.9711  -10.1399 O.3     1  UNL1       -0.3794
      8 O          15.9104   71.0542   -8.8198 O.3     1  UNL1       -0.3779
      9 C          18.3089   71.0243   -9.2169 C.3     1  UNL1        0.1713
     10 C          17.1826   71.1469   -8.2119 C.3     1  UNL1        0.1895
     11 C          19.4739   70.5879   -8.3374 C.3     1  UNL1        0.1764
     12 C          17.4688   69.9858   -7.2748 C.3     1  UNL1        0.2383
     13 H          17.2961   70.2269  -10.7128 H       1  UNL1        0.2105
     14 H          15.7758   71.8151   -9.4060 H       1  UNL1        0.2106
     15 O          16.1915   68.0852   -5.6212 O.2     1  UNL1       -0.2464
     16 O          15.8224   71.0876   -2.1440 O.2     1  UNL1       -0.2670
     17 N          17.0286   70.2438   -5.9328 N.ar    1  UNL1       -0.2551
     18 N          16.0089   69.5817   -3.8911 N.ar    1  UNL1       -0.2743
     19 C          16.3968   69.2209   -5.1878 C.ar    1  UNL1        0.3323
     20 C          17.2250   71.4995   -5.3683 C.ar    1  UNL1        0.0869
     21 C          16.8481   71.8279   -4.1309 C.ar    1  UNL1        0.0795
     22 C          16.1809   70.8165   -3.2859 C.ar    1  UNL1        0.2626
     23 H          15.5665   68.8852   -3.3536 H       1  UNL1        0.1734
     24 O          22.7018   72.1227   -4.9534 O.3     1  UNL1       -0.2703
     25 P          23.4867   72.4528   -3.5794 P.3     1  UNL1        0.2208
     26 O          24.2433   71.0633   -3.2412 O.co2   1  UNL1       -0.4371
     27 O          22.6065   72.9632   -2.4754 O.2     1  UNL1       -0.5170
     28 O          24.6666   73.4638   -4.0157 O.3     1  UNL1       -0.2858
     29 O          26.1084   75.2087   -3.3132 O.3     1  UNL1       -0.3258
     30 O          23.7432   77.3289   -5.9517 O.3     1  UNL1       -0.3794
     31 O          26.4504   76.6936   -6.6699 O.3     1  UNL1       -0.3794
     32 O          22.5587   75.3001   -4.2605 O.3     1  UNL1       -0.3775
     33 C          24.4482   76.1839   -5.4647 C.3     1  UNL1        0.1715
     34 C          25.9305   76.5456   -5.3515 C.3     1  UNL1        0.1694
     35 C          23.8842   75.7937   -4.0997 C.3     1  UNL1        0.1967
     36 C          26.7079   75.4645   -4.5887 C.3     1  UNL1        0.1761
     37 C          24.7587   74.7484   -3.4051 C.3     1  UNL1        0.2704
     38 H          24.0962   77.5816   -6.8184 H       1  UNL1        0.2105
     39 H          25.9505   77.3788   -7.1409 H       1  UNL1        0.2105
     40 H          22.0151   75.9711   -4.7010 H       1  UNL1        0.2106
     41 O          28.9937   74.7687   -4.5922 O.3     1  UNL1       -0.3794
     42 C          28.1545   75.8777   -4.3268 C.3     1  UNL1        0.1693
     43 H          29.9177   75.0171   -4.4300 H       1  UNL1        0.2105
@<TRIPOS>UNITY_ATOM_ATTR
2 1
charge -1
26 1
charge -1
@<TRIPOS>BOND
     1    25    28    1
     2    25    24    1
     3    25    26    1
     4    25    27    2
     5     1     4    1
     6     1    24    1
     7     1     2    1
     8     1     3    2
     9     6    11    1
    10     6    12    1
    11    29    36    1
    12    29    37    1
    13     7     9    1
    14     7    13    1
    15     8    10    1
    16     8    14    1
    17    28    37    1
    18     4     5    1
    19    30    33    1
    20    30    38    1
    21    31    34    1
    22    31    39    1
    23    32    35    1
    24    32    40    1
    25    41    42    1
    26    41    43    1
    27    15    19    2
    28    16    22    2
    29    17    12    1
    30    17    19   ar
    31    17    20   ar
    32    18    19   ar
    33    18    22   ar
    34    18    23    1
    35     9    10    1
    36     9    11    1
    37    10    12    1
    38    11     5    1
    39    33    34    1
    40    33    35    1
    41    34    36    1
    42    35    37    1
    43    36    42    1
    44    20    21   ar
    45    21    22   ar
@<TRIPOS>MOLECULE
*****
 43 45 0 0 0
SMALL
GASTEIGER

@<TRIPOS>ATOM
      1 P          20.4997   72.3730   -2.1711 P.3     1  UNL1        0.2189
      2 O          19.2992   73.2916   -1.5946 O.co2   1  UNL1       -0.4371
      3 O          21.1108   72.8594   -3.4522 O.2     1  UNL1       -0.5170
      4 O          19.8637   70.8859   -2.2161 O.3     1  UNL1       -0.3112
      5 C          19.3550   70.4052   -3.4481 C.3     1  UNL1        0.1811
      6 O          17.6538   71.4341   -4.7977 O.3     1  UNL1       -0.3308
      7 O          15.6759   69.9310   -3.1186 O.3     1  UNL1       -0.3794
      8 O          15.7980   68.4222   -5.3869 O.3     1  UNL1       -0.3779
      9 C          16.9694   69.5286   -3.5662 C.3     1  UNL1        0.1713
     10 C          16.9332   69.1896   -5.0418 C.3     1  UNL1        0.1895
     11 C          17.8758   70.7531   -3.5434 C.3     1  UNL1        0.1764
     12 C          16.9240   70.5675   -5.6816 C.3     1  UNL1        0.2383
     13 H          15.0794   69.1654   -3.1243 H       1  UNL1        0.2105
     14 H          15.8504   67.5550   -4.9556 H       1  UNL1        0.2106
     15 O          15.5340   70.5445   -8.1403 O.2     1  UNL1       -0.2464
     16 O          19.4525   70.6042  -10.5657 O.2     1  UNL1       -0.2670
     17 N          17.5559   70.5770   -6.9708 N.ar    1  UNL1       -0.2551
     18 N          17.4862   70.5745   -9.3460 N.ar    1  UNL1       -0.2743
     19 C          16.7666   70.5631   -8.1443 C.ar    1  UNL1        0.3323
     20 C          18.9433   70.6004   -7.0623 C.ar    1  UNL1        0.0869
     21 C          19.6143   70.6096   -8.2159 C.ar    1  UNL1        0.0795
     22 C          18.8646   70.5963   -9.4886 C.ar    1  UNL1        0.2626
     23 H          16.9573   70.5647  -10.1766 H       1  UNL1        0.1734
     24 O          21.5258   72.2917   -0.9246 O.3     1  UNL1       -0.2703
     25 P          21.2739   71.9632    0.6379 P.3     1  UNL1        0.2208
     26 O          21.1872   70.3479    0.6682 O.co2   1  UNL1       -0.4371
     27 O          20.0817   72.6585    1.2285 O.2     1  UNL1       -0.5170
     28 O          22.6756   72.3097    1.3592 O.3     1  UNL1       -0.2858
     29 O          24.4744   73.5991    0.5116 O.3     1  UNL1       -0.3258
     30 O          26.6154   70.8812    2.7655 O.3     1  UNL1       -0.3794
     31 O          26.3706   73.5950    3.6728 O.3     1  UNL1       -0.3794
     32 O          24.2844   70.0116    1.2857 O.3     1  UNL1       -0.3775
     33 C          25.5058   71.7279    2.4534 C.3     1  UNL1        0.1715
     34 C          26.0130   73.1684    2.3611 C.3     1  UNL1        0.1694
     35 C          24.8988   71.2854    1.1233 C.3     1  UNL1        0.1967
     36 C          24.9422   74.0959    1.7710 C.3     1  UNL1        0.1761
     37 C          23.8821   72.3017    0.6005 C.3     1  UNL1        0.2704
     38 H          27.0051   71.1565    3.6092 H       1  UNL1        0.2105
     39 H          27.0470   73.0007    4.0342 H       1  UNL1        0.2105
     40 H          24.9384   69.3771    1.6167 H       1  UNL1        0.2106
     41 O          24.5292   76.4377    2.0042 O.3     1  UNL1       -0.3794
     42 C          25.4787   75.5041    1.5235 C.3     1  UNL1        0.1693
     43 H          24.8575   77.3384    1.8536 H       1  UNL1        0.2105
@<TRIPOS>UNITY_ATOM_ATTR
2 1
charge -1
26 1
charge -1
@<TRIPOS>BOND
     1    25    28    1
     2    25    24    1
     3    25    26    1
     4    25    27    2
     5     1     4    1
     6     1    24    1
     7     1     2    1
     8     1     3    2
     9     6    11    1
    10     6    12    1
    11    29    36    1
    12    29    37    1
    13     7     9    1
    14     7    13    1
    15     8    10    1
    16     8    14    1
    17    28    37    1
    18     4     5    1
    19    30    33    1
    20    30    38    1
    21    31    34    1
    22    31    39    1
    23    32    35    1
    24    32    40    1
    25    41    42    1
    26    41    43    1
    27    15    19    2
    28    16    22    2
    29    17    12    1
    30    17    19   ar
    31    17    20   ar
    32    18    19   ar
    33    18    22   ar
    34    18    23    1
    35     9    10    1
    36     9    11    1
    37    10    12    1
    38    11     5    1
    39    33    34    1
    40    33    35    1
    41    34    36    1
    42    35    37    1
    43    36    42    1
    44    20    21   ar
    45    21    22   ar
@<TRIPOS>MOLECULE
*****
 43 45 0 0 0
SMALL
GASTEIGER

@<TRIPOS>ATOM
      1 P          23.3128   72.0077   -2.9227 P.3     1  UNL1        0.2189
      2 O          23.8050   73.3875   -3.6091 O.co2   1  UNL1       -0.4371
      3 O          24.2536   70.8497   -3.0822 O.2     1  UNL1       -0.5170
      4 O          21.8230   71.7892   -3.5147 O.3     1  UNL1       -0.3112
      5 C          21.3499   72.6872   -4.5035 C.3     1  UNL1        0.1811
      6 O          20.4922   70.7334   -5.6085 O.3     1  UNL1       -0.3308
      7 O          20.8704   72.2455   -8.1701 O.3     1  UNL1       -0.3794
      8 O          18.1929   72.5000   -7.7193 O.3     1  UNL1       -0.3779
      9 C          20.4668   72.7271   -6.8893 C.3     1  UNL1        0.1713
     10 C          19.0371   72.3194   -6.6007 C.3     1  UNL1        0.1895
     11 C          21.2392   71.9495   -5.8309 C.3     1  UNL1        0.1764
     12 C          19.1973   70.8576   -6.2191 C.3     1  UNL1        0.2383
     13 H          20.3906   72.7275   -8.8625 H       1  UNL1        0.2105
     14 H          18.1230   73.4458   -7.9225 H       1  UNL1        0.2106
     15 O          16.7260   69.7012   -6.9494 O.2     1  UNL1       -0.2464
     16 O          15.4386   69.2284   -2.5494 O.2     1  UNL1       -0.2670
     17 N          18.1976   70.4227   -5.2848 N.ar    1  UNL1       -0.2551
     18 N          16.0871   69.4666   -4.7579 N.ar    1  UNL1       -0.2743
     19 C          16.9903   69.8558   -5.7553 C.ar    1  UNL1        0.3323
     20 C          18.4194   70.5598   -3.9188 C.ar    1  UNL1        0.0869
     21 C          17.5474   70.1848   -2.9806 C.ar    1  UNL1        0.0795
     22 C          16.2612   69.5833   -3.3880 C.ar    1  UNL1        0.2626
     23 H          15.2388   69.0694   -5.0621 H       1  UNL1        0.1734
     24 O          23.0349   72.4426   -1.3909 O.3     1  UNL1       -0.2703
     25 P          22.8390   71.5550   -0.0542 P.3     1  UNL1        0.2208
     26 O          24.2627   70.8031    0.1039 O.co2   1  UNL1       -0.4371
     27 O          21.6537   70.6345   -0.0951 O.2     1  UNL1       -0.5170
     28 O          22.8098   72.6300    1.1493 O.3     1  UNL1       -0.2858
     29 O          24.1743   72.7756    3.0816 O.3     1  UNL1       -0.3258
     30 O          20.5998   74.0628    4.6994 O.3     1  UNL1       -0.3794
     31 O          22.7145   75.9530    4.2488 O.3     1  UNL1       -0.3794
     32 O          20.6148   71.9239    2.7489 O.3     1  UNL1       -0.3775
     33 C          21.5915   73.9195    3.6789 C.3     1  UNL1        0.1715
     34 C          22.8945   74.5409    4.1859 C.3     1  UNL1        0.1694
     35 C          21.7859   72.4348    3.3767 C.3     1  UNL1        0.1967
     36 C          24.0701   74.1926    3.2630 C.3     1  UNL1        0.1761
     37 C          23.0100   72.1941    2.4915 C.3     1  UNL1        0.2704
     38 H          20.4712   75.0032    4.8957 H       1  UNL1        0.2105
     39 H          21.9690   76.1594    4.8342 H       1  UNL1        0.2105
     40 H          19.8471   72.0821    3.3193 H       1  UNL1        0.2106
     41 O          25.3076   74.6933    5.2446 O.3     1  UNL1       -0.3794
     42 C          25.4047   74.6687    3.8324 C.3     1  UNL1        0.1693
     43 H          26.1500   74.9942    5.6208 H       1  UNL1        0.2105
@<TRIPOS>UNITY_ATOM_ATTR
2 1
charge -1
26 1
charge -1
@<TRIPOS>BOND
     1    25    28    1
     2    25    24    1
     3    25    26    1
     4    25    27    2
     5     1     4    1
     6     1    24    1
     7     1     2    1
     8     1     3    2
     9     6    11    1
    10     6    12    1
    11    29    36    1
    12    29    37    1
    13     7     9    1
    14     7    13    1
    15     8    10    1
    16     8    14    1
    17    28    37    1
    18     4     5    1
    19    30    33    1
    20    30    38    1
    21    31    34    1
    22    31    39    1
    23    32    35    1
    24    32    40    1
    25    41    42    1
    26    41    43    1
    27    15    19    2
    28    16    22    2
    29    17    12    1
    30    17    19   ar
    31    17    20   ar
    32    18    19   ar
    33    18    22   ar
    34    18    23    1
    35     9    10    1
    36     9    11    1
    37    10    12    1
    38    11     5    1
    39    33    34    1
    40    33    35    1
    41    34    36    1
    42    35    37    1
    43    36    42    1
    44    20    21   ar
    45    21    22   ar
@<TRIPOS>MOLECULE
*****
 43 45 0 0 0
SMALL
GASTEIGER

@<TRIPOS>ATOM
      1 P          23.5013   73.5807   -4.1387 P.3     1  UNL1        0.2189
      2 O          22.6913   74.9620   -4.3697 O.co2   1  UNL1       -0.4371
      3 O          24.9923   73.7265   -4.0560 O.2     1  UNL1       -0.5170
      4 O          22.9543   72.6090   -5.3111 O.3     1  UNL1       -0.3112
      5 C          21.5632   72.3480   -5.3789 C.3     1  UNL1        0.1811
      6 O          20.5105   70.3778   -6.2642 O.3     1  UNL1       -0.3308
      7 O          20.6388   71.7362   -8.9342 O.3     1  UNL1       -0.3794
      8 O          18.0443   72.1285   -8.1917 O.3     1  UNL1       -0.3779
      9 C          20.4070   72.3010   -7.6448 C.3     1  UNL1        0.1713
     10 C          19.0074   71.9706   -7.1699 C.3     1  UNL1        0.1895
     11 C          21.2699   71.5474   -6.6404 C.3     1  UNL1        0.1764
     12 C          19.1581   70.5252   -6.7268 C.3     1  UNL1        0.2383
     13 H          20.0986   72.2016   -9.5927 H       1  UNL1        0.2105
     14 H          17.9854   73.0646   -8.4389 H       1  UNL1        0.2106
     15 O          16.4580   69.7798   -7.0902 O.2     1  UNL1       -0.2464
     16 O          15.8079   69.2351   -2.5601 O.2     1  UNL1       -0.2670
     17 N          18.2604   70.1830   -5.6598 N.ar    1  UNL1       -0.2551
     18 N          16.1365   69.5090   -4.8343 N.ar    1  UNL1       -0.2743
     19 C          16.9234   69.8237   -5.9495 C.ar    1  UNL1        0.3323
     20 C          18.7081   70.2055   -4.3434 C.ar    1  UNL1        0.0869
     21 C          17.9447   69.9039   -3.2910 C.ar    1  UNL1        0.0795
     22 C          16.5353   69.5179   -3.5070 C.ar    1  UNL1        0.2626
     23 H          15.2015   69.2561   -5.0118 H       1  UNL1        0.1734
     24 O          22.8101   72.9719   -2.8103 O.3     1  UNL1       -0.2703
     25 P          22.9170   71.5076   -2.1340 P.3     1  UNL1        0.2208
     26 O          24.2309   70.8717   -2.8318 O.co2   1  UNL1       -0.4371
     27 O          21.6767   70.6733   -2.2735 O.2     1  UNL1       -0.5170
     28 O          23.3630   71.7933   -0.6094 O.3     1  UNL1       -0.2858
     29 O          24.5498   70.6413    1.0879 O.3     1  UNL1       -0.3258
     30 O          21.2851   71.8816    3.2912 O.3     1  UNL1       -0.3794
     31 O          23.8355   73.1346    3.7075 O.3     1  UNL1       -0.3794
     32 O          20.9325   71.0091    0.5536 O.3     1  UNL1       -0.3775
     33 C          22.2933   71.9892    2.2825 C.3     1  UNL1        0.1715
     34 C          23.6617   71.9314    2.9642 C.3     1  UNL1        0.1694
     35 C          22.1358   70.8352    1.2942 C.3     1  UNL1        0.1967
     36 C          24.7877   71.7726    1.9337 C.3     1  UNL1        0.1761
     37 C          23.3322   70.7363    0.3461 C.3     1  UNL1        0.2704
     38 H          21.3792   72.6117    3.9217 H       1  UNL1        0.2105
     39 H          23.1178   73.2231    4.3542 H       1  UNL1        0.2105
     40 H          20.1826   71.0700    1.1651 H       1  UNL1        0.2106
     41 O          26.6657   72.8147    2.9807 O.3     1  UNL1       -0.3794
     42 C          26.1451   71.5548    2.5987 C.3     1  UNL1        0.1693
     43 H          27.5294   72.6915    3.4057 H       1  UNL1        0.2105
@<TRIPOS>UNITY_ATOM_ATTR
2 1
charge -1
26 1
charge -1
@<TRIPOS>BOND
     1    25    28    1
     2    25    24    1
     3    25    26    1
     4    25    27    2
     5     1     4    1
     6     1    24    1
     7     1     2    1
     8     1     3    2
     9     6    11    1
    10     6    12    1
    11    29    36    1
    12    29    37    1
    13     7     9    1
    14     7    13    1
    15     8    10    1
    16     8    14    1
    17    28    37    1
    18     4     5    1
    19    30    33    1
    20    30    38    1
    21    31    34    1
    22    31    39    1
    23    32    35    1
    24    32    40    1
    25    41    42    1
    26    41    43    1
    27    15    19    2
    28    16    22    2
    29    17    12    1
    30    17    19   ar
    31    17    20   ar
    32    18    19   ar
    33    18    22   ar
    34    18    23    1
    35     9    10    1
    36     9    11    1
    37    10    12    1
    38    11     5    1
    39    33    34    1
    40    33    35    1
    41    34    36    1
    42    35    37    1
    43    36    42    1
    44    20    21   ar
    45    21    22   ar
@<TRIPOS>MOLECULE
*****
 43 45 0 0 0
SMALL
GASTEIGER

@<TRIPOS>ATOM
      1 P          21.0553   71.0234   -1.8692 P.3     1  UNL1        0.2189
      2 O          20.6516   72.5879   -1.7875 O.co2   1  UNL1       -0.4371
      3 O          22.1555   70.7026   -2.8378 O.2     1  UNL1       -0.5170
      4 O          19.6467   70.2720   -2.1318 O.3     1  UNL1       -0.3112
      5 C          19.2146   70.0936   -3.4694 C.3     1  UNL1        0.1811
      6 O          17.6002   71.2720   -4.8031 O.3     1  UNL1       -0.3308
      7 O          15.5098   69.7871   -3.2488 O.3     1  UNL1       -0.3794
      8 O          15.6159   68.3894   -5.5880 O.3     1  UNL1       -0.3779
      9 C          16.7931   69.3438   -3.6867 C.3     1  UNL1        0.1713
     10 C          16.7779   69.0811   -5.1782 C.3     1  UNL1        0.1895
     11 C          17.7569   70.5190   -3.5805 C.3     1  UNL1        0.1764
     12 C          16.8518   70.4881   -5.7466 C.3     1  UNL1        0.2383
     13 H          14.8771   69.0534   -3.3073 H       1  UNL1        0.2105
     14 H          15.6152   67.5002   -5.2005 H       1  UNL1        0.2106
     15 O          15.5237   70.5616   -8.2383 O.2     1  UNL1       -0.2464
     16 O          19.5022   70.6480  -10.5632 O.2     1  UNL1       -0.2670
     17 N          17.5159   70.5306   -7.0189 N.ar    1  UNL1       -0.2551
     18 N          17.5058   70.6047   -9.3939 N.ar    1  UNL1       -0.2743
     19 C          16.7561   70.5643   -8.2114 C.ar    1  UNL1        0.3323
     20 C          18.9054   70.5388   -7.0753 C.ar    1  UNL1        0.0869
     21 C          19.6052   70.5762   -8.2112 C.ar    1  UNL1        0.0795
     22 C          18.8874   70.6132   -9.5017 C.ar    1  UNL1        0.2626
     23 H          16.9977   70.6284  -10.2372 H       1  UNL1        0.1734
     24 O          21.3840   70.6520   -0.3307 O.3     1  UNL1       -0.2703
     25 P          22.5277   71.1988    0.6723 P.3     1  UNL1        0.2208
     26 O          23.3170   72.2898   -0.2245 O.co2   1  UNL1       -0.4371
     27 O          23.4019   70.1250    1.2525 O.2     1  UNL1       -0.5170
     28 O          21.7268   72.0735    1.7671 O.3     1  UNL1       -0.2858
     29 O          20.8995   74.2400    2.2554 O.3     1  UNL1       -0.3258
     30 O          23.6081   73.8554    5.3483 O.3     1  UNL1       -0.3794
     31 O          20.7937   73.7127    5.9023 O.3     1  UNL1       -0.3794
     32 O          24.2569   72.8208    2.7238 O.3     1  UNL1       -0.3775
     33 C          22.6334   73.4004    4.4059 C.3     1  UNL1        0.1715
     34 C          21.3297   74.1597    4.6600 C.3     1  UNL1        0.1694
     35 C          23.1441   73.6673    2.9912 C.3     1  UNL1        0.1967
     36 C          20.3214   73.9239    3.5273 C.3     1  UNL1        0.1761
     37 C          22.0493   73.4503    1.9451 C.3     1  UNL1        0.2704
     38 H          23.2902   73.6884    6.2486 H       1  UNL1        0.2105
     39 H          21.4403   73.8669    6.6089 H       1  UNL1        0.2105
     40 H          24.9431   72.9679    3.3927 H       1  UNL1        0.2106
     41 O          18.1199   74.0810    4.4424 O.3     1  UNL1       -0.3794
     42 C          19.0759   74.7943    3.6799 C.3     1  UNL1        0.1693
     43 H          17.3218   74.6229    4.5479 H       1  UNL1        0.2105
@<TRIPOS>UNITY_ATOM_ATTR
2 1
charge -1
26 1
charge -1
@<TRIPOS>BOND
     1    25    28    1
     2    25    24    1
     3    25    26    1
     4    25    27    2
     5     1     4    1
     6     1    24    1
     7     1     2    1
     8     1     3    2
     9     6    11    1
    10     6    12    1
    11    29    36    1
    12    29    37    1
    13     7     9    1
    14     7    13    1
    15     8    10    1
    16     8    14    1
    17    28    37    1
    18     4     5    1
    19    30    33    1
    20    30    38    1
    21    31    34    1
    22    31    39    1
    23    32    35    1
    24    32    40    1
    25    41    42    1
    26    41    43    1
    27    15    19    2
    28    16    22    2
    29    17    12    1
    30    17    19   ar
    31    17    20   ar
    32    18    19   ar
    33    18    22   ar
    34    18    23    1
    35     9    10    1
    36     9    11    1
    37    10    12    1
    38    11     5    1
    39    33    34    1
    40    33    35    1
    41    34    36    1
    42    35    37    1
    43    36    42    1
    44    20    21   ar
    45    21    22   ar
@<TRIPOS>MOLECULE
*****
 43 45 0 0 0
SMALL
GASTEIGER

@<TRIPOS>ATOM
      1 P          23.3594   71.8442   -3.3490 P.3     1  UNL1        0.2189
      2 O          24.0751   73.0114   -4.2108 O.co2   1  UNL1       -0.4371
      3 O          24.2616   70.7195   -2.9333 O.2     1  UNL1       -0.5170
      4 O          22.0821   71.4243   -4.2490 O.3     1  UNL1       -0.3112
      5 C          21.6091   72.3408   -5.2207 C.3     1  UNL1        0.1811
      6 O          20.5276   70.4139   -6.1647 O.3     1  UNL1       -0.3308
      7 O          20.6631   71.8565   -8.7899 O.3     1  UNL1       -0.3794
      8 O          18.0767   72.2576   -8.0240 O.3     1  UNL1       -0.3779
      9 C          20.4436   72.3821   -7.4819 C.3     1  UNL1        0.1713
     10 C          19.0417   72.0544   -7.0119 C.3     1  UNL1        0.1895
     11 C          21.3006   71.5854   -6.5061 C.3     1  UNL1        0.1764
     12 C          19.1754   70.5936   -6.6165 C.3     1  UNL1        0.2383
     13 H          20.1264   72.3498   -9.4306 H       1  UNL1        0.2105
     14 H          18.0290   73.2019   -8.2405 H       1  UNL1        0.2106
     15 O          16.5032   69.7649   -7.0044 O.2     1  UNL1       -0.2464
     16 O          15.8229   69.2187   -2.4789 O.2     1  UNL1       -0.2670
     17 N          18.2775   70.2285   -5.5573 N.ar    1  UNL1       -0.2551
     18 N          16.1667   69.4934   -4.7507 N.ar    1  UNL1       -0.2743
     19 C          16.9552   69.8275   -5.8592 C.ar    1  UNL1        0.3323
     20 C          18.7106   70.2698   -4.2365 C.ar    1  UNL1        0.0869
     21 C          17.9459   69.9493   -3.1907 C.ar    1  UNL1        0.0795
     22 C          16.5512   69.5198   -3.4195 C.ar    1  UNL1        0.2626
     23 H          15.2416   69.2115   -4.9368 H       1  UNL1        0.1734
     24 O          22.6887   72.6568   -2.1231 O.3     1  UNL1       -0.2703
     25 P          21.2848   72.4442   -1.3505 P.3     1  UNL1        0.2208
     26 O          21.0916   70.8380   -1.3673 O.co2   1  UNL1       -0.4371
     27 O          20.1366   73.2123   -1.9382 O.2     1  UNL1       -0.5170
     28 O          21.6086   72.7997    0.1902 O.3     1  UNL1       -0.2858
     29 O          22.9295   74.2397    1.5311 O.3     1  UNL1       -0.3258
     30 O          24.2774   70.6015    2.9443 O.3     1  UNL1       -0.3794
     31 O          22.5722   72.2197    4.5940 O.3     1  UNL1       -0.3794
     32 O          23.7029   70.9329    0.1266 O.3     1  UNL1       -0.3775
     33 C          23.3123   71.5225    2.4290 C.3     1  UNL1        0.1715
     34 C          23.1989   72.6947    3.4057 C.3     1  UNL1        0.1694
     35 C          23.7706   72.0094    1.0556 C.3     1  UNL1        0.1967
     36 C          22.3872   73.8462    2.7972 C.3     1  UNL1        0.1761
     37 C          22.9280   73.1878    0.5640 C.3     1  UNL1        0.2704
     38 H          23.9922   70.2881    3.8161 H       1  UNL1        0.2105
     39 H          23.0944   71.4926    4.9679 H       1  UNL1        0.2105
     40 H          24.2406   70.1935    0.4490 H       1  UNL1        0.2106
     41 O          21.5465   76.0606    3.1118 O.3     1  UNL1       -0.3794
     42 C          22.3943   75.0852    3.6899 C.3     1  UNL1        0.1693
     43 H          21.5409   76.8547    3.6694 H       1  UNL1        0.2105
@<TRIPOS>UNITY_ATOM_ATTR
2 1
charge -1
26 1
charge -1
@<TRIPOS>BOND
     1    25    28    1
     2    25    24    1
     3    25    26    1
     4    25    27    2
     5     1     4    1
     6     1    24    1
     7     1     2    1
     8     1     3    2
     9     6    11    1
    10     6    12    1
    11    29    36    1
    12    29    37    1
    13     7     9    1
    14     7    13    1
    15     8    10    1
    16     8    14    1
    17    28    37    1
    18     4     5    1
    19    30    33    1
    20    30    38    1
    21    31    34    1
    22    31    39    1
    23    32    35    1
    24    32    40    1
    25    41    42    1
    26    41    43    1
    27    15    19    2
    28    16    22    2
    29    17    12    1
    30    17    19   ar
    31    17    20   ar
    32    18    19   ar
    33    18    22   ar
    34    18    23    1
    35     9    10    1
    36     9    11    1
    37    10    12    1
    38    11     5    1
    39    33    34    1
    40    33    35    1
    41    34    36    1
    42    35    37    1
    43    36    42    1
    44    20    21   ar
    45    21    22   ar
@<TRIPOS>MOLECULE
*****
 43 45 0 0 0
SMALL
GASTEIGER

@<TRIPOS>ATOM
      1 P          20.0522   72.1810   -1.2625 P.3     1  UNL1        0.2189
      2 O          19.9871   70.5743   -1.0849 O.co2   1  UNL1       -0.4371
      3 O          18.9774   72.9422   -0.5436 O.2     1  UNL1       -0.5170
      4 O          20.1106   72.3926   -2.8656 O.3     1  UNL1       -0.3112
      5 C          19.6155   71.3615   -3.7021 C.3     1  UNL1        0.1811
      6 O          17.7105   71.8731   -5.0743 O.3     1  UNL1       -0.3308
      7 O          16.0865   70.3626   -3.0564 O.3     1  UNL1       -0.3794
      8 O          16.3678   68.5474   -5.0719 O.3     1  UNL1       -0.3779
      9 C          17.4097   70.1062   -3.5240 C.3     1  UNL1        0.1713
     10 C          17.3703   69.5325   -4.9250 C.3     1  UNL1        0.1895
     11 C          18.0961   71.4477   -3.7489 C.3     1  UNL1        0.1764
     12 C          17.1017   70.7697   -5.7648 C.3     1  UNL1        0.2383
     13 H          15.6283   69.5205   -2.9053 H       1  UNL1        0.2105
     14 H          16.5840   67.7809   -4.5184 H       1  UNL1        0.2106
     15 O          15.5914   70.6285   -8.1474 O.2     1  UNL1       -0.2464
     16 O          19.3849   70.3982  -10.7545 O.2     1  UNL1       -0.2670
     17 N          17.6689   70.6727   -7.0801 N.ar    1  UNL1       -0.2551
     18 N          17.4815   70.5141   -9.4436 N.ar    1  UNL1       -0.2743
     19 C          16.8223   70.6064   -8.2112 C.ar    1  UNL1        0.3323
     20 C          19.0502   70.6444   -7.2388 C.ar    1  UNL1        0.0869
     21 C          19.6631   70.5548   -8.4209 C.ar    1  UNL1        0.0795
     22 C          18.8511   70.4813   -9.6527 C.ar    1  UNL1        0.2626
     23 H          16.9120   70.4664  -10.2456 H       1  UNL1        0.1734
     24 O          21.5575   72.5379   -0.7939 O.3     1  UNL1       -0.2703
     25 P          22.7608   71.5907   -0.2762 P.3     1  UNL1        0.2208
     26 O          23.3322   70.9372   -1.6415 O.co2   1  UNL1       -0.4371
     27 O          22.3516   70.5900    0.7654 O.2     1  UNL1       -0.5170
     28 O          23.9130   72.6166    0.1980 O.3     1  UNL1       -0.2858
     29 O          23.7304   74.4692    1.6647 O.3     1  UNL1       -0.3258
     30 O          20.6865   72.1259    3.1794 O.3     1  UNL1       -0.3794
     31 O          20.0442   74.4879    1.6773 O.3     1  UNL1       -0.3794
     32 O          23.1443   70.8929    2.2748 O.3     1  UNL1       -0.3775
     33 C          21.5251   72.6722    2.1578 C.3     1  UNL1        0.1715
     34 C          21.3526   74.1924    2.1578 C.3     1  UNL1        0.1694
     35 C          22.9766   72.2957    2.4492 C.3     1  UNL1        0.1967
     36 C          22.4111   74.8699    1.2770 C.3     1  UNL1        0.1761
     37 C          23.9499   73.0617    1.5515 C.3     1  UNL1        0.2704
     38 H          19.7634   72.3609    3.0000 H       1  UNL1        0.2105
     39 H          19.3854   74.0538    2.2418 H       1  UNL1        0.2105
     40 H          22.5228   70.4192    2.8486 H       1  UNL1        0.2106
     41 O          22.6029   76.9439    0.1061 O.3     1  UNL1       -0.3794
     42 C          22.3570   76.3922    1.3865 C.3     1  UNL1        0.1693
     43 H          22.5713   77.9123    0.1605 H       1  UNL1        0.2105
@<TRIPOS>UNITY_ATOM_ATTR
2 1
charge -1
26 1
charge -1
@<TRIPOS>BOND
     1    25    28    1
     2    25    24    1
     3    25    26    1
     4    25    27    2
     5     1     4    1
     6     1    24    1
     7     1     2    1
     8     1     3    2
     9     6    11    1
    10     6    12    1
    11    29    36    1
    12    29    37    1
    13     7     9    1
    14     7    13    1
    15     8    10    1
    16     8    14    1
    17    28    37    1
    18     4     5    1
    19    30    33    1
    20    30    38    1
    21    31    34    1
    22    31    39    1
    23    32    35    1
    24    32    40    1
    25    41    42    1
    26    41    43    1
    27    15    19    2
    28    16    22    2
    29    17    12    1
    30    17    19   ar
    31    17    20   ar
    32    18    19   ar
    33    18    22   ar
    34    18    23    1
    35     9    10    1
    36     9    11    1
    37    10    12    1
    38    11     5    1
    39    33    34    1
    40    33    35    1
    41    34    36    1
    42    35    37    1
    43    36    42    1
    44    20    21   ar
    45    21    22   ar
@<TRIPOS>MOLECULE
*****
 43 45 0 0 0
SMALL
GASTEIGER

@<TRIPOS>ATOM
      1 P          21.9094   72.5153   -5.8342 P.3     1  UNL1        0.2189
      2 O          21.2604   73.9288   -5.3889 O.co2   1  UNL1       -0.4371
      3 O          23.0686   72.6205   -6.7811 O.2     1  UNL1       -0.5170
      4 O          20.6445   71.6571   -6.3647 O.3     1  UNL1       -0.3112
      5 C          20.0617   72.0094   -7.6073 C.3     1  UNL1        0.1811
      6 O          18.8846   69.9635   -7.1574 O.3     1  UNL1       -0.3308
      7 O          18.0930   70.0020  -10.0492 O.3     1  UNL1       -0.3794
      8 O          15.8499   70.9298   -8.8065 O.3     1  UNL1       -0.3779
      9 C          18.2524   71.0921   -9.1429 C.3     1  UNL1        0.1713
     10 C          17.0934   71.1402   -8.1691 C.3     1  UNL1        0.1895
     11 C          19.4257   70.7717   -8.2252 C.3     1  UNL1        0.1764
     12 C          17.4496   70.0256   -7.2001 C.3     1  UNL1        0.2383
     13 H          17.3494   70.1838  -10.6459 H       1  UNL1        0.2105
     14 H          15.6684   71.6652   -9.4123 H       1  UNL1        0.2106
     15 O          16.3105   68.0535   -5.5295 O.2     1  UNL1       -0.2464
     16 O          15.5803   71.0872   -2.1377 O.2     1  UNL1       -0.2670
     17 N          16.9539   70.2723   -5.8754 N.ar    1  UNL1       -0.2551
     18 N          15.9480   69.5656   -3.8420 N.ar    1  UNL1       -0.2743
     19 C          16.3999   69.2127   -5.1199 C.ar    1  UNL1        0.3323
     20 C          17.0202   71.5533   -5.3382 C.ar    1  UNL1        0.0869
     21 C          16.5836   71.8736   -4.1183 C.ar    1  UNL1        0.0795
     22 C          15.9908   70.8245   -3.2639 C.ar    1  UNL1        0.2626
     23 H          15.5578   68.8437   -3.2976 H       1  UNL1        0.1734
     24 O          22.2573   71.8135   -4.4202 O.3     1  UNL1       -0.2703
     25 P          23.4930   72.0335   -3.4015 P.3     1  UNL1        0.2208
     26 O          24.4410   73.0816   -4.1891 O.co2   1  UNL1       -0.4371
     27 O          24.1820   70.7657   -2.9871 O.2     1  UNL1       -0.5170
     28 O          22.8694   72.8856   -2.1809 O.3     1  UNL1       -0.2858
     29 O          21.3929   71.8691   -0.6306 O.3     1  UNL1       -0.3258
     30 O          20.2971   75.8142   -0.0959 O.3     1  UNL1       -0.3794
     31 O          21.8107   74.4741    1.9439 O.3     1  UNL1       -0.3794
     32 O          20.9358   74.8394   -2.7457 O.3     1  UNL1       -0.3775
     33 C          21.2013   74.7366   -0.3540 C.3     1  UNL1        0.1715
     34 C          21.1874   73.7990    0.8549 C.3     1  UNL1        0.1694
     35 C          20.7508   73.9976   -1.6127 C.3     1  UNL1        0.1967
     36 C          21.9231   72.4877    0.5475 C.3     1  UNL1        0.1761
     37 C          21.5113   72.6834   -1.7988 C.3     1  UNL1        0.2704
     38 H          20.5778   76.2879    0.7018 H       1  UNL1        0.2105
     39 H          21.3369   75.3005    2.1275 H       1  UNL1        0.2105
     40 H          20.4492   75.6678   -2.6158 H       1  UNL1        0.2106
     41 O          21.6692   70.1819    1.1198 O.3     1  UNL1       -0.3794
     42 C          21.7865   71.4756    1.6828 C.3     1  UNL1        0.1693
     43 H          21.5819   69.5272    1.8308 H       1  UNL1        0.2105
@<TRIPOS>UNITY_ATOM_ATTR
2 1
charge -1
26 1
charge -1
@<TRIPOS>BOND
     1    25    28    1
     2    25    24    1
     3    25    26    1
     4    25    27    2
     5     1     4    1
     6     1    24    1
     7     1     2    1
     8     1     3    2
     9     6    11    1
    10     6    12    1
    11    29    36    1
    12    29    37    1
    13     7     9    1
    14     7    13    1
    15     8    10    1
    16     8    14    1
    17    28    37    1
    18     4     5    1
    19    30    33    1
    20    30    38    1
    21    31    34    1
    22    31    39    1
    23    32    35    1
    24    32    40    1
    25    41    42    1
    26    41    43    1
    27    15    19    2
    28    16    22    2
    29    17    12    1
    30    17    19   ar
    31    17    20   ar
    32    18    19   ar
    33    18    22   ar
    34    18    23    1
    35     9    10    1
    36     9    11    1
    37    10    12    1
    38    11     5    1
    39    33    34    1
    40    33    35    1
    41    34    36    1
    42    35    37    1
    43    36    42    1
    44    20    21   ar
    45    21    22   ar
@<TRIPOS>MOLECULE
*****
 43 45 0 0 0
SMALL
GASTEIGER

@<TRIPOS>ATOM
      1 P          21.3711   73.3897   -5.3554 P.3     1  UNL1        0.2189
      2 O          21.2774   74.9660   -5.7076 O.co2   1  UNL1       -0.4371
      3 O          22.0997   72.5563   -6.3684 O.2     1  UNL1       -0.5170
      4 O          19.8368   72.9641   -5.0680 O.3     1  UNL1       -0.3112
      5 C          19.5454   72.2452   -3.8822 C.3     1  UNL1        0.1811
      6 O          17.5412   72.0544   -5.1938 O.3     1  UNL1       -0.3308
      7 O          16.4305   70.4446   -2.9209 O.3     1  UNL1       -0.3794
      8 O          17.1413   68.5219   -4.7195 O.3     1  UNL1       -0.3779
      9 C          17.7626   70.4873   -3.4300 C.3     1  UNL1        0.1713
     10 C          17.8456   69.7466   -4.7484 C.3     1  UNL1        0.1895
     11 C          18.0580   71.9213   -3.8516 C.3     1  UNL1        0.1764
     12 C          17.2349   70.7497   -5.7123 C.3     1  UNL1        0.2383
     13 H          16.2190   69.5386   -2.6448 H       1  UNL1        0.2105
     14 H          17.5683   67.9180   -4.0921 H       1  UNL1        0.2106
     15 O          15.6793   70.4631   -8.0524 O.2     1  UNL1       -0.2464
     16 O          19.4197   70.3193  -10.7413 O.2     1  UNL1       -0.2670
     17 N          17.7762   70.6355   -7.0372 N.ar    1  UNL1       -0.2551
     18 N          17.5430   70.3919   -9.3894 N.ar    1  UNL1       -0.2743
     19 C          16.9082   70.4944   -8.1450 C.ar    1  UNL1        0.3323
     20 C          19.1533   70.6644   -7.2280 C.ar    1  UNL1        0.0869
     21 C          19.7430   70.5641   -8.4212 C.ar    1  UNL1        0.0795
     22 C          18.9076   70.4140   -9.6301 C.ar    1  UNL1        0.2626
     23 H          16.9583   70.2925  -10.1755 H       1  UNL1        0.1734
     24 O          22.0318   73.3855   -3.8802 O.3     1  UNL1       -0.2703
     25 P          23.5768   73.3214   -3.4092 P.3     1  UNL1        0.2208
     26 O          24.1372   74.7947   -3.7734 O.co2   1  UNL1       -0.4371
     27 O          24.3592   72.1935   -4.0172 O.2     1  UNL1       -0.5170
     28 O          23.5116   73.2972   -1.7967 O.3     1  UNL1       -0.2858
     29 O          23.6469   71.4478   -0.3209 O.3     1  UNL1       -0.3258
     30 O          20.9663   73.7779    1.7853 O.3     1  UNL1       -0.3794
     31 O          23.6600   73.4998    2.7415 O.3     1  UNL1       -0.3794
     32 O          20.8164   73.6573   -1.1031 O.3     1  UNL1       -0.3775
     33 C          22.0904   73.5289    0.9369 C.3     1  UNL1        0.1715
     34 C          23.1010   72.6843    1.7155 C.3     1  UNL1        0.1694
     35 C          21.6186   72.7870   -0.3122 C.3     1  UNL1        0.1967
     36 C          24.2065   72.1533    0.7930 C.3     1  UNL1        0.1761
     37 C          22.7958   72.2583   -1.1336 C.3     1  UNL1        0.2704
     38 H          21.2589   74.2492    2.5800 H       1  UNL1        0.2105
     39 H          22.9514   73.8290    3.3166 H       1  UNL1        0.2105
     40 H          20.0745   73.9849   -0.5719 H       1  UNL1        0.2106
     41 O          24.4446   69.9617    1.7143 O.3     1  UNL1       -0.3794
     42 C          25.1362   71.1808    1.5155 C.3     1  UNL1        0.1693
     43 H          25.0242   69.3329    2.1729 H       1  UNL1        0.2105
@<TRIPOS>UNITY_ATOM_ATTR
2 1
charge -1
26 1
charge -1
@<TRIPOS>BOND
     1    25    28    1
     2    25    24    1
     3    25    26    1
     4    25    27    2
     5     1     4    1
     6     1    24    1
     7     1     2    1
     8     1     3    2
     9     6    11    1
    10     6    12    1
    11    29    36    1
    12    29    37    1
    13     7     9    1
    14     7    13    1
    15     8    10    1
    16     8    14    1
    17    28    37    1
    18     4     5    1
    19    30    33    1
    20    30    38    1
    21    31    34    1
    22    31    39    1
    23    32    35    1
    24    32    40    1
    25    41    42    1
    26    41    43    1
    27    15    19    2
    28    16    22    2
    29    17    12    1
    30    17    19   ar
    31    17    20   ar
    32    18    19   ar
    33    18    22   ar
    34    18    23    1
    35     9    10    1
    36     9    11    1
    37    10    12    1
    38    11     5    1
    39    33    34    1
    40    33    35    1
    41    34    36    1
    42    35    37    1
    43    36    42    1
    44    20    21   ar
    45    21    22   ar
@<TRIPOS>MOLECULE
*****
 43 45 0 0 0
SMALL
GASTEIGER

@<TRIPOS>ATOM
      1 P          23.1834   71.8904   -3.0984 P.3     1  UNL1        0.2189
      2 O          23.7284   73.2850   -3.7110 O.co2   1  UNL1       -0.4371
      3 O          24.2036   70.7933   -3.0147 O.2     1  UNL1       -0.5170
      4 O          21.8707   71.5629   -3.9857 O.3     1  UNL1       -0.3112
      5 C          21.0797   70.4409   -3.6344 C.3     1  UNL1        0.1811
      6 O          19.1372   71.5516   -4.5100 O.3     1  UNL1       -0.3308
      7 O          17.6283   70.2959   -2.2434 O.3     1  UNL1       -0.3794
      8 O          16.9868   68.6858   -4.3488 O.3     1  UNL1       -0.3779
      9 C          18.7068   69.7661   -3.0125 C.3     1  UNL1        0.1713
     10 C          18.2235   69.3681   -4.3914 C.3     1  UNL1        0.1895
     11 C          19.6636   70.9090   -3.3284 C.3     1  UNL1        0.1764
     12 C          18.1255   70.7130   -5.0913 C.3     1  UNL1        0.2383
     13 H          17.0040   69.5843   -2.0292 H       1  UNL1        0.2105
     14 H          17.1013   67.8368   -3.8942 H       1  UNL1        0.2106
     15 O          16.1649   69.9658   -6.9823 O.2     1  UNL1       -0.2464
     16 O          19.1316   70.3621  -10.4871 O.2     1  UNL1       -0.2670
     17 N          18.3581   70.6131   -6.5046 N.ar    1  UNL1       -0.2551
     18 N          17.6437   70.1639   -8.7259 N.ar    1  UNL1       -0.2743
     19 C          17.3059   70.2285   -7.3680 C.ar    1  UNL1        0.3323
     20 C          19.6180   70.8954   -7.0212 C.ar    1  UNL1        0.0869
     21 C          19.9241   70.8278   -8.3185 C.ar    1  UNL1        0.0795
     22 C          18.8815   70.4336   -9.2878 C.ar    1  UNL1        0.2626
     23 H          16.9266   69.8977   -9.3462 H       1  UNL1        0.1734
     24 O          22.5583   72.3377   -1.6763 O.3     1  UNL1       -0.2703
     25 P          23.1854   72.3140   -0.1866 P.3     1  UNL1        0.2208
     26 O          24.1683   73.5990   -0.1773 O.co2   1  UNL1       -0.4371
     27 O          23.8538   71.0204    0.1793 O.2     1  UNL1       -0.5170
     28 O          21.9607   72.7305    0.7787 O.3     1  UNL1       -0.2858
     29 O          21.7452   75.0310    1.3060 O.3     1  UNL1       -0.3258
     30 O          19.3734   73.4448    4.2909 O.3     1  UNL1       -0.3794
     31 O          18.1494   74.8294    2.0926 O.3     1  UNL1       -0.3794
     32 O          21.8070   72.0879    3.5061 O.3     1  UNL1       -0.3775
     33 C          19.9431   73.5204    2.9813 C.3     1  UNL1        0.1715
     34 C          19.5480   74.8630    2.3631 C.3     1  UNL1        0.1694
     35 C          21.4624   73.4051    3.0905 C.3     1  UNL1        0.1967
     36 C          20.3354   75.1323    1.0738 C.3     1  UNL1        0.1761
     37 C          22.1509   73.7404    1.7662 C.3     1  UNL1        0.2704
     38 H          18.4088   73.5169    4.2286 H       1  UNL1        0.2105
     39 H          17.6638   74.6581    2.9148 H       1  UNL1        0.2105
     40 H          21.3652   71.8879    4.3455 H       1  UNL1        0.2106
     41 O          18.8598   76.5110   -0.2033 O.3     1  UNL1       -0.3794
     42 C          20.0732   76.5334    0.5257 C.3     1  UNL1        0.1693
     43 H          18.6799   77.3962   -0.5579 H       1  UNL1        0.2105
@<TRIPOS>UNITY_ATOM_ATTR
2 1
charge -1
26 1
charge -1
@<TRIPOS>BOND
     1    25    28    1
     2    25    24    1
     3    25    26    1
     4    25    27    2
     5     1     4    1
     6     1    24    1
     7     1     2    1
     8     1     3    2
     9     6    11    1
    10     6    12    1
    11    29    36    1
    12    29    37    1
    13     7     9    1
    14     7    13    1
    15     8    10    1
    16     8    14    1
    17    28    37    1
    18     4     5    1
    19    30    33    1
    20    30    38    1
    21    31    34    1
    22    31    39    1
    23    32    35    1
    24    32    40    1
    25    41    42    1
    26    41    43    1
    27    15    19    2
    28    16    22    2
    29    17    12    1
    30    17    19   ar
    31    17    20   ar
    32    18    19   ar
    33    18    22   ar
    34    18    23    1
    35     9    10    1
    36     9    11    1
    37    10    12    1
    38    11     5    1
    39    33    34    1
    40    33    35    1
    41    34    36    1
    42    35    37    1
    43    36    42    1
    44    20    21   ar
    45    21    22   ar
@<TRIPOS>MOLECULE
*****
 43 45 0 0 0
SMALL
GASTEIGER

@<TRIPOS>ATOM
      1 P          16.0254   70.2071   -2.6483 P.3     1  UNL1        0.2189
      2 O          15.4173   71.6608   -3.0149 O.co2   1  UNL1       -0.4371
      3 O          15.6883   69.1155   -3.6211 O.2     1  UNL1       -0.5170
      4 O          15.5483   69.9602   -1.1221 O.3     1  UNL1       -0.3112
      5 C          14.3827   69.1872   -0.8947 C.3     1  UNL1        0.1811
      6 O          12.0945   69.7005   -1.4186 O.3     1  UNL1       -0.3308
      7 O          12.0649   71.2901    1.1237 O.3     1  UNL1       -0.3794
      8 O          10.8113   68.9805    1.8521 O.3     1  UNL1       -0.3779
      9 C          12.7347   70.0643    0.8339 C.3     1  UNL1        0.1713
     10 C          11.7431   68.9204    0.7915 C.3     1  UNL1        0.1895
     11 C          13.2152   70.1223   -0.6108 C.3     1  UNL1        0.1764
     12 C          11.0945   69.1159   -0.5683 C.3     1  UNL1        0.2383
     13 H          11.7492   71.2767    2.0414 H       1  UNL1        0.2105
     14 H          11.2723   68.8506    2.6955 H       1  UNL1        0.2106
     15 O          12.1113   66.5754    0.1315 O.2     1  UNL1       -0.2464
     16 O           9.3336   64.4368   -2.8605 O.2     1  UNL1       -0.2670
     17 N          10.6548   67.8783   -1.1484 N.ar    1  UNL1       -0.2551
     18 N          10.7272   65.5126   -1.3587 N.ar    1  UNL1       -0.2743
     19 C          11.2308   66.6571   -0.7274 C.ar    1  UNL1        0.3323
     20 C           9.6628   67.8836   -2.1229 C.ar    1  UNL1        0.0869
     21 C           9.1945   66.7835   -2.7161 C.ar    1  UNL1        0.0795
     22 C           9.7431   65.4665   -2.3335 C.ar    1  UNL1        0.2626
     23 H          11.1139   64.6503   -1.0818 H       1  UNL1        0.1734
     24 O          17.6066   70.5036   -2.4913 O.3     1  UNL1       -0.2703
     25 P          18.6644   71.1867   -3.5049 P.3     1  UNL1        0.2208
     26 O          19.9633   70.2294   -3.3862 O.co2   1  UNL1       -0.4371
     27 O          18.9360   72.6365   -3.2257 O.2     1  UNL1       -0.5170
     28 O          18.0714   70.8885   -4.9761 O.3     1  UNL1       -0.2858
     29 O          19.0296   72.1554   -6.7349 O.3     1  UNL1       -0.3258
     30 O          15.6756   70.7463   -8.6883 O.3     1  UNL1       -0.3794
     31 O          18.2573   69.6781   -9.3531 O.3     1  UNL1       -0.3794
     32 O          15.5036   71.5321   -5.9076 O.3     1  UNL1       -0.3775
     33 C          16.7718   70.6848   -7.7717 C.3     1  UNL1        0.1715
     34 C          18.0698   70.8501   -8.5647 C.3     1  UNL1        0.1694
     35 C          16.6247   71.8034   -6.7419 C.3     1  UNL1        0.1967
     36 C          19.2675   71.0618   -7.6288 C.3     1  UNL1        0.1761
     37 C          17.8893   71.9620   -5.8958 C.3     1  UNL1        0.2704
     38 H          15.7627   70.0384   -9.3446 H       1  UNL1        0.2105
     39 H          17.4939   69.5557   -9.9392 H       1  UNL1        0.2105
     40 H          14.7095   71.4342   -6.4550 H       1  UNL1        0.2106
     41 O          21.0149   72.6533   -7.9791 O.3     1  UNL1       -0.3794
     42 C          20.5453   71.3857   -8.3997 C.3     1  UNL1        0.1693
     43 H          21.8281   72.8725   -8.4612 H       1  UNL1        0.2105
@<TRIPOS>UNITY_ATOM_ATTR
2 1
charge -1
26 1
charge -1
@<TRIPOS>BOND
     1    25    28    1
     2    25    24    1
     3    25    26    1
     4    25    27    2
     5     1     4    1
     6     1    24    1
     7     1     2    1
     8     1     3    2
     9     6    11    1
    10     6    12    1
    11    29    36    1
    12    29    37    1
    13     7     9    1
    14     7    13    1
    15     8    10    1
    16     8    14    1
    17    28    37    1
    18     4     5    1
    19    30    33    1
    20    30    38    1
    21    31    34    1
    22    31    39    1
    23    32    35    1
    24    32    40    1
    25    41    42    1
    26    41    43    1
    27    15    19    2
    28    16    22    2
    29    17    12    1
    30    17    19   ar
    31    17    20   ar
    32    18    19   ar
    33    18    22   ar
    34    18    23    1
    35     9    10    1
    36     9    11    1
    37    10    12    1
    38    11     5    1
    39    33    34    1
    40    33    35    1
    41    34    36    1
    42    35    37    1
    43    36    42    1
    44    20    21   ar
    45    21    22   ar
@<TRIPOS>MOLECULE
*****
 43 45 0 0 0
SMALL
GASTEIGER

@<TRIPOS>ATOM
      1 P          23.2722   73.6225   -3.2282 P.3     1  UNL1        0.2189
      2 O          22.2134   74.8404   -3.3423 O.co2   1  UNL1       -0.4371
      3 O          24.3322   73.6027   -4.2900 O.2     1  UNL1       -0.5170
      4 O          22.3392   72.3035   -3.1420 O.3     1  UNL1       -0.3112
      5 C          21.4998   71.9960   -4.2415 C.3     1  UNL1        0.1811
      6 O          19.2530   72.4135   -4.9840 O.3     1  UNL1       -0.3308
      7 O          18.3697   71.2186   -2.3797 O.3     1  UNL1       -0.3794
      8 O          17.9892   69.1663   -4.1347 O.3     1  UNL1       -0.3779
      9 C          19.4718   70.8572   -3.2104 C.3     1  UNL1        0.1713
     10 C          18.9836   70.1223   -4.4414 C.3     1  UNL1        0.1895
     11 C          20.0464   72.1347   -3.8097 C.3     1  UNL1        0.1764
     12 C          18.4562   71.2600   -5.2990 C.3     1  UNL1        0.2383
     13 H          17.9863   70.4189   -1.9855 H       1  UNL1        0.2105
     14 H          18.3738   68.4635   -3.5880 H       1  UNL1        0.2106
     15 O          16.4461   70.0206   -6.8487 O.2     1  UNL1       -0.2464
     16 O          18.9993   70.2530  -10.6787 O.2     1  UNL1       -0.2670
     17 N          18.5689   70.9848   -6.7037 N.ar    1  UNL1       -0.2551
     18 N          17.7190   70.1375   -8.7545 N.ar    1  UNL1       -0.2743
     19 C          17.5020   70.3577   -7.3883 C.ar    1  UNL1        0.3323
     20 C          19.7276   71.3361   -7.3878 C.ar    1  UNL1        0.0869
     21 C          19.9193   71.1181   -8.6905 C.ar    1  UNL1        0.0795
     22 C          18.8533   70.4673   -9.4792 C.ar    1  UNL1        0.2626
     23 H          16.9895   69.7015   -9.2520 H       1  UNL1        0.1734
     24 O          23.8339   73.7694   -1.7195 O.3     1  UNL1       -0.2703
     25 P          23.1168   73.5261   -0.2914 P.3     1  UNL1        0.2208
     26 O          22.7597   71.9484   -0.3195 O.co2   1  UNL1       -0.4371
     27 O          21.9407   74.4227   -0.0328 O.2     1  UNL1       -0.5170
     28 O          24.3072   73.6555    0.7908 O.3     1  UNL1       -0.2858
     29 O          24.2329   72.9409    3.0492 O.3     1  UNL1       -0.3258
     30 O          21.7440   70.1020    1.3766 O.3     1  UNL1       -0.3794
     31 O          20.6258   72.1815    3.0118 O.3     1  UNL1       -0.3794
     32 O          24.0931   70.9907   -0.0626 O.3     1  UNL1       -0.3775
     33 C          22.3270   71.3997    1.5233 C.3     1  UNL1        0.1715
     34 C          22.0217   71.9060    2.9344 C.3     1  UNL1        0.1694
     35 C          23.8352   71.2971    1.3035 C.3     1  UNL1        0.1967
     36 C          22.8340   73.1670    3.2583 C.3     1  UNL1        0.1761
     37 C          24.5532   72.5877    1.7021 C.3     1  UNL1        0.2704
     38 H          20.7863   70.1603    1.5145 H       1  UNL1        0.2105
     39 H          20.1243   71.3773    2.8046 H       1  UNL1        0.2105
     40 H          23.6334   70.1716   -0.3025 H       1  UNL1        0.2106
     41 O          22.4148   72.4463    5.4975 O.3     1  UNL1       -0.3794
     42 C          22.6646   73.5984    4.7135 C.3     1  UNL1        0.1693
     43 H          22.3051   72.7055    6.4262 H       1  UNL1        0.2105
@<TRIPOS>UNITY_ATOM_ATTR
2 1
charge -1
26 1
charge -1
@<TRIPOS>BOND
     1    25    28    1
     2    25    24    1
     3    25    26    1
     4    25    27    2
     5     1     4    1
     6     1    24    1
     7     1     2    1
     8     1     3    2
     9     6    11    1
    10     6    12    1
    11    29    36    1
    12    29    37    1
    13     7     9    1
    14     7    13    1
    15     8    10    1
    16     8    14    1
    17    28    37    1
    18     4     5    1
    19    30    33    1
    20    30    38    1
    21    31    34    1
    22    31    39    1
    23    32    35    1
    24    32    40    1
    25    41    42    1
    26    41    43    1
    27    15    19    2
    28    16    22    2
    29    17    12    1
    30    17    19   ar
    31    17    20   ar
    32    18    19   ar
    33    18    22   ar
    34    18    23    1
    35     9    10    1
    36     9    11    1
    37    10    12    1
    38    11     5    1
    39    33    34    1
    40    33    35    1
    41    34    36    1
    42    35    37    1
    43    36    42    1
    44    20    21   ar
    45    21    22   ar
@<TRIPOS>MOLECULE
*****
 43 45 0 0 0
SMALL
GASTEIGER

@<TRIPOS>ATOM
      1 P          15.5919   70.8269   -2.0774 P.3     1  UNL1        0.2189
      2 O          16.7613   71.8287   -1.5811 O.co2   1  UNL1       -0.4371
      3 O          14.3964   71.4999   -2.6850 O.2     1  UNL1       -0.5170
      4 O          15.2957   69.9036   -0.7822 O.3     1  UNL1       -0.3112
      5 C          14.0093   69.9610   -0.1908 C.3     1  UNL1        0.1811
      6 O          13.2635   67.7118    0.2072 O.3     1  UNL1       -0.3308
      7 O          11.0990   68.2753   -1.7899 O.3     1  UNL1       -0.3794
      8 O           9.7974   68.5496    0.5907 O.3     1  UNL1       -0.3779
      9 C          11.6834   69.1463   -0.8229 C.3     1  UNL1        0.1713
     10 C          11.1881   68.7986    0.5654 C.3     1  UNL1        0.1895
     11 C          13.1664   68.8110   -0.7248 C.3     1  UNL1        0.1764
     12 C          12.0094   67.5630    0.8926 C.3     1  UNL1        0.2383
     13 H          10.1518   68.4707   -1.8703 H       1  UNL1        0.2105
     14 H           9.3188   69.3655    0.3763 H       1  UNL1        0.2106
     15 O          10.1430   66.5537    2.7570 O.2     1  UNL1       -0.2464
     16 O          13.0804   67.0956    6.2670 O.2     1  UNL1       -0.2670
     17 N          12.2601   67.4290    2.2999 N.ar    1  UNL1       -0.2551
     18 N          11.6072   66.8242    4.5032 N.ar    1  UNL1       -0.2743
     19 C          11.2552   66.9116    3.1502 C.ar    1  UNL1        0.3323
     20 C          13.4913   67.8081    2.8236 C.ar    1  UNL1        0.0869
     21 C          13.8107   67.7196    4.1165 C.ar    1  UNL1        0.0795
     22 C          12.8170   67.1893    5.0721 C.ar    1  UNL1        0.2626
     23 H          10.9227   66.4669    5.1144 H       1  UNL1        0.1734
     24 O          16.3739   69.8194   -3.0706 O.3     1  UNL1       -0.2703
     25 P          17.9233   69.3608   -3.1134 P.3     1  UNL1        0.2208
     26 O          17.8344   67.7465   -3.0537 O.co2   1  UNL1       -0.4371
     27 O          18.7763   69.9741   -2.0408 O.2     1  UNL1       -0.5170
     28 O          18.4046   69.6872   -4.6190 O.3     1  UNL1       -0.2858
     29 O          19.3498   71.6121   -5.6278 O.3     1  UNL1       -0.3258
     30 O          16.7613   70.4906   -8.6432 O.3     1  UNL1       -0.3794
     31 O          19.5874   70.1123   -8.9868 O.3     1  UNL1       -0.3794
     32 O          15.9544   70.2282   -5.8756 O.3     1  UNL1       -0.3775
     33 C          17.6731   70.2771   -7.5623 C.3     1  UNL1        0.1715
     34 C          19.0197   70.8966   -7.9414 C.3     1  UNL1        0.1694
     35 C          17.1150   70.9341   -6.3012 C.3     1  UNL1        0.1967
     36 C          19.9668   70.9445   -6.7348 C.3     1  UNL1        0.1761
     37 C          18.1530   70.9738   -5.1783 C.3     1  UNL1        0.2704
     38 H          17.1095   70.0754   -9.4469 H       1  UNL1        0.2105
     39 H          18.9793   70.0897   -9.7424 H       1  UNL1        0.2105
     40 H          15.3049   70.2104   -6.5951 H       1  UNL1        0.2106
     41 O          21.1126   72.3283   -8.3099 O.3     1  UNL1       -0.3794
     42 C          21.2560   71.7002   -7.0492 C.3     1  UNL1        0.1693
     43 H          21.9256   72.8134   -8.5231 H       1  UNL1        0.2105
@<TRIPOS>UNITY_ATOM_ATTR
2 1
charge -1
26 1
charge -1
@<TRIPOS>BOND
     1    25    28    1
     2    25    24    1
     3    25    26    1
     4    25    27    2
     5     1     4    1
     6     1    24    1
     7     1     2    1
     8     1     3    2
     9     6    11    1
    10     6    12    1
    11    29    36    1
    12    29    37    1
    13     7     9    1
    14     7    13    1
    15     8    10    1
    16     8    14    1
    17    28    37    1
    18     4     5    1
    19    30    33    1
    20    30    38    1
    21    31    34    1
    22    31    39    1
    23    32    35    1
    24    32    40    1
    25    41    42    1
    26    41    43    1
    27    15    19    2
    28    16    22    2
    29    17    12    1
    30    17    19   ar
    31    17    20   ar
    32    18    19   ar
    33    18    22   ar
    34    18    23    1
    35     9    10    1
    36     9    11    1
    37    10    12    1
    38    11     5    1
    39    33    34    1
    40    33    35    1
    41    34    36    1
    42    35    37    1
    43    36    42    1
    44    20    21   ar
    45    21    22   ar
@<TRIPOS>MOLECULE
*****
 43 45 0 0 0
SMALL
GASTEIGER

@<TRIPOS>ATOM
      1 P          21.9144   72.4261   -5.7516 P.3     1  UNL1        0.2189
      2 O          21.2158   73.7786   -5.2040 O.co2   1  UNL1       -0.4371
      3 O          23.0821   72.6424   -6.6687 O.2     1  UNL1       -0.5170
      4 O          20.6841   71.5759   -6.3691 O.3     1  UNL1       -0.3112
      5 C          20.1889   71.9344   -7.6475 C.3     1  UNL1        0.1811
      6 O          18.9516   69.9229   -7.2039 O.3     1  UNL1       -0.3308
      7 O          18.1188   70.0231  -10.0826 O.3     1  UNL1       -0.3794
      8 O          15.9263   71.0087   -8.7949 O.3     1  UNL1       -0.3779
      9 C          18.3276   71.0961   -9.1660 C.3     1  UNL1        0.1713
     10 C          17.1855   71.1702   -8.1742 C.3     1  UNL1        0.1895
     11 C          19.5032   70.7260   -8.2702 C.3     1  UNL1        0.1764
     12 C          17.5190   70.0327   -7.2240 C.3     1  UNL1        0.2383
     13 H          17.3729   70.2366  -10.6657 H       1  UNL1        0.2105
     14 H          15.7603   71.7571   -9.3891 H       1  UNL1        0.2106
     15 O          16.2666   68.0995   -5.5893 O.2     1  UNL1       -0.2464
     16 O          15.7651   71.0916   -2.1199 O.2     1  UNL1       -0.2670
     17 N          17.0515   70.2792   -5.8890 N.ar    1  UNL1       -0.2551
     18 N          16.0181   69.5908   -3.8631 N.ar    1  UNL1       -0.2743
     19 C          16.4353   69.2402   -5.1534 C.ar    1  UNL1        0.3323
     20 C          17.2061   71.5397   -5.3224 C.ar    1  UNL1        0.0869
     21 C          16.8016   71.8583   -4.0911 C.ar    1  UNL1        0.0795
     22 C          16.1482   70.8298   -3.2559 C.ar    1  UNL1        0.2626
     23 H          15.5858   68.8831   -3.3320 H       1  UNL1        0.1734
     24 O          22.2655   71.6228   -4.3934 O.3     1  UNL1       -0.2703
     25 P          23.4185   71.8627   -3.2861 P.3     1  UNL1        0.2208
     26 O          24.1594   73.2036   -3.8065 O.co2   1  UNL1       -0.4371
     27 O          24.3322   70.6887   -3.0849 O.2     1  UNL1       -0.5170
     28 O          22.6221   72.3254   -1.9607 O.3     1  UNL1       -0.2858
     29 O          22.6118   74.1198   -0.4127 O.3     1  UNL1       -0.3258
     30 O          22.8759   70.9639    2.2371 O.3     1  UNL1       -0.3794
     31 O          20.4121   72.4220    2.0098 O.3     1  UNL1       -0.3794
     32 O          24.3234   70.8709   -0.2680 O.3     1  UNL1       -0.3775
     33 C          22.4539   71.6330    1.0457 C.3     1  UNL1        0.1715
     34 C          21.6445   72.8669    1.4496 C.3     1  UNL1        0.1694
     35 C          23.6854   72.0386    0.2381 C.3     1  UNL1        0.1967
     36 C          21.3847   73.7785    0.2427 C.3     1  UNL1        0.1761
     37 C          23.3227   72.9838   -0.9087 C.3     1  UNL1        0.2704
     38 H          22.0986   70.7033    2.7543 H       1  UNL1        0.2105
     39 H          20.5903   71.8470    2.7705 H       1  UNL1        0.2105
     40 H          24.5482   70.2809    0.4676 H       1  UNL1        0.2106
     41 O          20.9729   75.3173    2.0235 O.3     1  UNL1       -0.3794
     42 C          20.7166   75.0900    0.6499 C.3     1  UNL1        0.1693
     43 H          20.5540   76.1489    2.2967 H       1  UNL1        0.2105
@<TRIPOS>UNITY_ATOM_ATTR
2 1
charge -1
26 1
charge -1
@<TRIPOS>BOND
     1    25    28    1
     2    25    24    1
     3    25    26    1
     4    25    27    2
     5     1     4    1
     6     1    24    1
     7     1     2    1
     8     1     3    2
     9     6    11    1
    10     6    12    1
    11    29    36    1
    12    29    37    1
    13     7     9    1
    14     7    13    1
    15     8    10    1
    16     8    14    1
    17    28    37    1
    18     4     5    1
    19    30    33    1
    20    30    38    1
    21    31    34    1
    22    31    39    1
    23    32    35    1
    24    32    40    1
    25    41    42    1
    26    41    43    1
    27    15    19    2
    28    16    22    2
    29    17    12    1
    30    17    19   ar
    31    17    20   ar
    32    18    19   ar
    33    18    22   ar
    34    18    23    1
    35     9    10    1
    36     9    11    1
    37    10    12    1
    38    11     5    1
    39    33    34    1
    40    33    35    1
    41    34    36    1
    42    35    37    1
    43    36    42    1
    44    20    21   ar
    45    21    22   ar
@<TRIPOS>MOLECULE
*****
 43 45 0 0 0
SMALL
GASTEIGER

@<TRIPOS>ATOM
      1 P          22.7992   71.5067   -2.6819 P.3     1  UNL1        0.2189
      2 O          22.9266   73.0869   -2.3593 O.co2   1  UNL1       -0.4371
      3 O          24.0904   70.8237   -3.0249 O.2     1  UNL1       -0.5170
      4 O          21.6435   71.4329   -3.8119 O.3     1  UNL1       -0.3112
      5 C          20.7306   70.3499   -3.7755 C.3     1  UNL1        0.1811
      6 O          18.8990   71.5678   -4.7429 O.3     1  UNL1       -0.3308
      7 O          17.2078   70.3840   -2.5683 O.3     1  UNL1       -0.3794
      8 O          16.5929   68.8212   -4.7168 O.3     1  UNL1       -0.3779
      9 C          18.2954   69.8007   -3.2839 C.3     1  UNL1        0.1713
     10 C          17.8649   69.4361   -4.6893 C.3     1  UNL1        0.1895
     11 C          19.3273   70.8920   -3.5404 C.3     1  UNL1        0.1764
     12 C          17.8760   70.7877   -5.3829 C.3     1  UNL1        0.2383
     13 H          16.5359   69.7060   -2.3925 H       1  UNL1        0.2105
     14 H          16.6377   67.9650   -4.2634 H       1  UNL1        0.2106
     15 O          15.9574   70.2872   -7.3945 O.2     1  UNL1       -0.2464
     16 O          19.1459   70.4030  -10.7204 O.2     1  UNL1       -0.2670
     17 N          18.1770   70.6825   -6.7828 N.ar    1  UNL1       -0.2551
     18 N          17.5465   70.3455   -9.0490 N.ar    1  UNL1       -0.2743
     19 C          17.1405   70.4280   -7.7109 C.ar    1  UNL1        0.3323
     20 C          19.4878   70.8314   -7.2229 C.ar    1  UNL1        0.0869
     21 C          19.8586   70.7485   -8.5023 C.ar    1  UNL1        0.0795
     22 C          18.8366   70.4849   -9.5357 C.ar    1  UNL1        0.2626
     23 H          16.8416   70.1685   -9.7134 H       1  UNL1        0.1734
     24 O          22.0595   70.9258   -1.3672 O.3     1  UNL1       -0.2703
     25 P          22.4016   71.0919    0.2039 P.3     1  UNL1        0.2208
     26 O          24.0120   71.2474    0.2185 O.co2   1  UNL1       -0.4371
     27 O          21.8788   69.9813    1.0683 O.2     1  UNL1       -0.5170
     28 O          21.8471   72.5576    0.5900 O.3     1  UNL1       -0.2858
     29 O          20.1985   73.0056    2.2326 O.3     1  UNL1       -0.3258
     30 O          19.4999   76.1982   -0.2913 O.3     1  UNL1       -0.3794
     31 O          20.7634   76.6483    2.2482 O.3     1  UNL1       -0.3794
     32 O          20.1597   73.6040   -1.3931 O.3     1  UNL1       -0.3775
     33 C          20.2969   75.2224    0.3854 C.3     1  UNL1        0.1715
     34 C          20.1258   75.4248    1.8923 C.3     1  UNL1        0.1694
     35 C          19.8325   73.8264   -0.0257 C.3     1  UNL1        0.1967
     36 C          20.7333   74.2566    2.6806 C.3     1  UNL1        0.1761
     37 C          20.4584   72.7415    0.8525 C.3     1  UNL1        0.2704
     38 H          19.7899   77.0868   -0.0350 H       1  UNL1        0.2105
     39 H          20.3710   77.3777    1.7431 H       1  UNL1        0.2105
     40 H          19.7574   74.2971   -1.9386 H       1  UNL1        0.2106
     41 O          19.2589   73.6227    4.4507 O.3     1  UNL1       -0.3794
     42 C          20.4361   74.3593    4.1750 C.3     1  UNL1        0.1693
     43 H          19.0577   73.6788    5.3984 H       1  UNL1        0.2105
@<TRIPOS>UNITY_ATOM_ATTR
2 1
charge -1
26 1
charge -1
@<TRIPOS>BOND
     1    25    28    1
     2    25    24    1
     3    25    26    1
     4    25    27    2
     5     1     4    1
     6     1    24    1
     7     1     2    1
     8     1     3    2
     9     6    11    1
    10     6    12    1
    11    29    36    1
    12    29    37    1
    13     7     9    1
    14     7    13    1
    15     8    10    1
    16     8    14    1
    17    28    37    1
    18     4     5    1
    19    30    33    1
    20    30    38    1
    21    31    34    1
    22    31    39    1
    23    32    35    1
    24    32    40    1
    25    41    42    1
    26    41    43    1
    27    15    19    2
    28    16    22    2
    29    17    12    1
    30    17    19   ar
    31    17    20   ar
    32    18    19   ar
    33    18    22   ar
    34    18    23    1
    35     9    10    1
    36     9    11    1
    37    10    12    1
    38    11     5    1
    39    33    34    1
    40    33    35    1
    41    34    36    1
    42    35    37    1
    43    36    42    1
    44    20    21   ar
    45    21    22   ar
@<TRIPOS>MOLECULE
*****
 43 45 0 0 0
SMALL
GASTEIGER

@<TRIPOS>ATOM
      1 P          22.6931   71.0835    0.2326 P.3     1  UNL1        0.2189
      2 O          21.6219   70.0851    0.9205 O.co2   1  UNL1       -0.4371
      3 O          24.1236   70.8380    0.6135 O.2     1  UNL1       -0.5170
      4 O          22.1200   72.5589    0.5679 O.3     1  UNL1       -0.3112
      5 C          22.5621   73.2035    1.7498 C.3     1  UNL1        0.1811
      6 O          22.4539   72.5562    4.0613 O.3     1  UNL1       -0.3308
      7 O          19.5626   73.3433    3.9525 O.3     1  UNL1       -0.3794
      8 O          20.7181   75.4918    5.1713 O.3     1  UNL1       -0.3779
      9 C          20.6845   73.9376    3.3018 C.3     1  UNL1        0.1713
     10 C          21.5160   74.7198    4.2971 C.3     1  UNL1        0.1895
     11 C          21.6389   72.8206    2.8984 C.3     1  UNL1        0.1764
     12 C          22.2694   73.6139    5.0163 C.3     1  UNL1        0.2383
     13 H          18.9387   74.0372    4.2192 H       1  UNL1        0.2105
     14 H          20.2594   76.1814    4.6665 H       1  UNL1        0.2106
     15 O          22.9490   73.9142    7.7413 O.2     1  UNL1       -0.2464
     16 O          27.2307   75.2745    6.7127 O.2     1  UNL1       -0.2670
     17 N          23.5548   74.0447    5.4890 N.ar    1  UNL1       -0.2551
     18 N          25.0804   74.5911    7.2269 N.ar    1  UNL1       -0.2743
     19 C          23.7929   74.1637    6.8781 C.ar    1  UNL1        0.3323
     20 C          24.5632   74.3437    4.5793 C.ar    1  UNL1        0.0869
     21 C          25.7853   74.7513    4.9281 C.ar    1  UNL1        0.0795
     22 C          26.1161   74.9016    6.3599 C.ar    1  UNL1        0.2626
     23 H          25.2691   74.6817    8.1892 H       1  UNL1        0.1734
     24 O          22.3797   70.9218   -1.3449 O.3     1  UNL1       -0.2703
     25 P          23.0080   71.6678   -2.6339 P.3     1  UNL1        0.2208
     26 O          24.3289   70.7930   -2.9618 O.co2   1  UNL1       -0.4371
     27 O          23.2698   73.1321   -2.4305 O.2     1  UNL1       -0.5170
     28 O          21.9873   71.3319   -3.8382 O.3     1  UNL1       -0.2858
     29 O          21.5814   73.2614   -5.1529 O.3     1  UNL1       -0.3258
     30 O          18.7787   70.7269   -6.8180 O.3     1  UNL1       -0.3794
     31 O          21.1430   71.3987   -8.3036 O.3     1  UNL1       -0.3794
     32 O          19.2633   70.6690   -3.9647 O.3     1  UNL1       -0.3775
     33 C          20.0283   71.0705   -6.2130 C.3     1  UNL1        0.1715
     34 C          20.7383   72.0787   -7.1187 C.3     1  UNL1        0.1694
     35 C          19.7660   71.6766   -4.8356 C.3     1  UNL1        0.1967
     36 C          21.9546   72.6952   -6.4146 C.3     1  UNL1        0.1761
     37 C          21.0295   72.3055   -4.2454 C.3     1  UNL1        0.2704
     38 H          18.9382   70.3411   -7.6927 H       1  UNL1        0.2105
     39 H          20.3658   71.0137   -8.7383 H       1  UNL1        0.2105
     40 H          18.4635   70.2789   -4.3493 H       1  UNL1        0.2106
     41 O          23.2372   73.2417   -8.3550 O.3     1  UNL1       -0.3794
     42 C          22.5845   73.8165   -7.2379 C.3     1  UNL1        0.1693
     43 H          23.6425   73.9437   -8.8884 H       1  UNL1        0.2105
@<TRIPOS>UNITY_ATOM_ATTR
2 1
charge -1
26 1
charge -1
@<TRIPOS>BOND
     1    25    28    1
     2    25    24    1
     3    25    26    1
     4    25    27    2
     5     1     4    1
     6     1    24    1
     7     1     2    1
     8     1     3    2
     9     6    11    1
    10     6    12    1
    11    29    36    1
    12    29    37    1
    13     7     9    1
    14     7    13    1
    15     8    10    1
    16     8    14    1
    17    28    37    1
    18     4     5    1
    19    30    33    1
    20    30    38    1
    21    31    34    1
    22    31    39    1
    23    32    35    1
    24    32    40    1
    25    41    42    1
    26    41    43    1
    27    15    19    2
    28    16    22    2
    29    17    12    1
    30    17    19   ar
    31    17    20   ar
    32    18    19   ar
    33    18    22   ar
    34    18    23    1
    35     9    10    1
    36     9    11    1
    37    10    12    1
    38    11     5    1
    39    33    34    1
    40    33    35    1
    41    34    36    1
    42    35    37    1
    43    36    42    1
    44    20    21   ar
    45    21    22   ar
@<TRIPOS>MOLECULE
*****
 43 45 0 0 0
SMALL
GASTEIGER

@<TRIPOS>ATOM
      1 P          22.4450   72.6055   -4.0201 P.3     1  UNL1        0.2189
      2 O          22.1660   71.1364   -3.4028 O.co2   1  UNL1       -0.4371
      3 O          23.6369   72.6960   -4.9271 O.2     1  UNL1       -0.5170
      4 O          22.4738   73.5727   -2.7234 O.3     1  UNL1       -0.3112
      5 C          23.2698   73.1931   -1.6143 C.3     1  UNL1        0.1811
      6 O          23.3954   71.5319    0.1173 O.3     1  UNL1       -0.3308
      7 O          20.4768   72.0508    0.5681 O.3     1  UNL1       -0.3794
      8 O          21.6498   73.4603    2.5865 O.3     1  UNL1       -0.3779
      9 C          21.5111   72.9659    0.2100 C.3     1  UNL1        0.1713
     10 C          22.3963   73.2526    1.4049 C.3     1  UNL1        0.1895
     11 C          22.4695   72.2462   -0.7306 C.3     1  UNL1        0.1764
     12 C          23.2551   72.0009    1.4683 C.3     1  UNL1        0.2383
     13 H          19.8520   72.4880    1.1684 H       1  UNL1        0.2105
     14 H          21.1203   74.2680    2.4969 H       1  UNL1        0.2106
     15 O          25.0584   69.9958    2.3083 O.2     1  UNL1       -0.2464
     16 O          28.2314   73.1060    3.5334 O.2     1  UNL1       -0.2670
     17 N          24.5594   72.2584    2.0104 N.ar    1  UNL1       -0.2551
     18 N          26.6369   71.5461    2.9175 N.ar    1  UNL1       -0.2743
     19 C          25.3865   71.1804    2.4028 C.ar    1  UNL1        0.3323
     20 C          25.0064   73.5680    2.1479 C.ar    1  UNL1        0.0869
     21 C          26.2011   73.9000    2.6417 C.ar    1  UNL1        0.0795
     22 C          27.1262   72.8331    3.0752 C.ar    1  UNL1        0.2626
     23 H          27.2301   70.8117    3.1978 H       1  UNL1        0.1734
     24 O          21.0368   72.9788   -4.7206 O.3     1  UNL1       -0.2703
     25 P          19.5698   73.2269   -4.0889 P.3     1  UNL1        0.2208
     26 O          19.3575   74.8218   -4.2587 O.co2   1  UNL1       -0.4371
     27 O          19.4133   72.7277   -2.6817 O.2     1  UNL1       -0.5170
     28 O          18.5504   72.5646   -5.1507 O.3     1  UNL1       -0.2858
     29 O          19.1636   70.2795   -5.0140 O.3     1  UNL1       -0.3258
     30 O          15.8644   69.9314   -7.4727 O.3     1  UNL1       -0.3794
     31 O          15.6994   69.0482   -4.7449 O.3     1  UNL1       -0.3794
     32 O          17.6685   72.1734   -7.7859 O.3     1  UNL1       -0.3775
     33 C          16.6438   70.4841   -6.4085 C.3     1  UNL1        0.1715
     34 C          16.9254   69.3741   -5.3938 C.3     1  UNL1        0.1694
     35 C          17.9493   71.0344   -6.9795 C.3     1  UNL1        0.1967
     36 C          17.9736   69.8176   -4.3643 C.3     1  UNL1        0.1761
     37 C          18.9404   71.3995   -5.8729 C.3     1  UNL1        0.2704
     38 H          15.0338   69.5807   -7.1169 H       1  UNL1        0.2105
     39 H          15.0461   68.7704   -5.4061 H       1  UNL1        0.2105
     40 H          17.0404   71.9292   -8.4828 H       1  UNL1        0.2106
     41 O          17.7064   68.8277   -2.2061 O.3     1  UNL1       -0.3794
     42 C          18.3855   68.6747   -3.4389 C.3     1  UNL1        0.1693
     43 H          17.9586   68.1071   -1.6071 H       1  UNL1        0.2105
@<TRIPOS>UNITY_ATOM_ATTR
2 1
charge -1
26 1
charge -1
@<TRIPOS>BOND
     1    25    28    1
     2    25    24    1
     3    25    26    1
     4    25    27    2
     5     1     4    1
     6     1    24    1
     7     1     2    1
     8     1     3    2
     9     6    11    1
    10     6    12    1
    11    29    36    1
    12    29    37    1
    13     7     9    1
    14     7    13    1
    15     8    10    1
    16     8    14    1
    17    28    37    1
    18     4     5    1
    19    30    33    1
    20    30    38    1
    21    31    34    1
    22    31    39    1
    23    32    35    1
    24    32    40    1
    25    41    42    1
    26    41    43    1
    27    15    19    2
    28    16    22    2
    29    17    12    1
    30    17    19   ar
    31    17    20   ar
    32    18    19   ar
    33    18    22   ar
    34    18    23    1
    35     9    10    1
    36     9    11    1
    37    10    12    1
    38    11     5    1
    39    33    34    1
    40    33    35    1
    41    34    36    1
    42    35    37    1
    43    36    42    1
    44    20    21   ar
    45    21    22   ar
@<TRIPOS>MOLECULE
*****
 43 45 0 0 0
SMALL
GASTEIGER

@<TRIPOS>ATOM
      1 P          23.4286   71.9964   -3.3162 P.3     1  UNL1        0.2189
      2 O          24.1341   72.9556   -4.4115 O.co2   1  UNL1       -0.4371
      3 O          24.2291   70.7907   -2.9203 O.2     1  UNL1       -0.5170
      4 O          21.9692   71.6950   -3.9465 O.3     1  UNL1       -0.3112
      5 C          21.4757   72.5610   -4.9536 C.3     1  UNL1        0.1811
      6 O          20.5632   70.5736   -5.9492 O.3     1  UNL1       -0.3308
      7 O          20.8535   71.9833   -8.5796 O.3     1  UNL1       -0.3794
      8 O          18.1970   72.2770   -8.0379 O.3     1  UNL1       -0.3779
      9 C          20.5025   72.5170   -7.3039 C.3     1  UNL1        0.1713
     10 C          19.0821   72.1323   -6.9459 C.3     1  UNL1        0.1895
     11 C          21.3094   71.7741   -6.2464 C.3     1  UNL1        0.1764
     12 C          19.2468   70.6849   -6.5146 C.3     1  UNL1        0.2383
     13 H          20.3510   72.4425   -9.2714 H       1  UNL1        0.2105
     14 H          18.1258   73.2149   -8.2745 H       1  UNL1        0.2106
     15 O          16.6380   69.7779   -7.1058 O.2     1  UNL1       -0.2464
     16 O          15.6254   69.2151   -2.6449 O.2     1  UNL1       -0.2670
     17 N          18.2806   70.2944   -5.5270 N.ar    1  UNL1       -0.2551
     18 N          16.1360   69.4982   -4.8841 N.ar    1  UNL1       -0.2743
     19 C          16.9979   69.8545   -5.9292 C.ar    1  UNL1        0.3323
     20 C          18.6087   70.3493   -4.1768 C.ar    1  UNL1        0.0869
     21 C          17.7749   70.0072   -3.1924 C.ar    1  UNL1        0.0795
     22 C          16.4153   69.5368   -3.5272 C.ar    1  UNL1        0.2626
     23 H          15.2368   69.1891   -5.1404 H       1  UNL1        0.1734
     24 O          23.0976   73.0122   -2.1031 O.3     1  UNL1       -0.2703
     25 P          23.7304   74.4492   -1.7191 P.3     1  UNL1        0.2208
     26 O          22.4371   75.3216   -1.2903 O.co2   1  UNL1       -0.4371
     27 O          24.5607   75.0664   -2.8071 O.2     1  UNL1       -0.5170
     28 O          24.5237   74.1902   -0.3376 O.3     1  UNL1       -0.2858
     29 O          22.9712   73.0660    1.0561 O.3     1  UNL1       -0.3258
     30 O          26.1990   73.1887    3.6285 O.3     1  UNL1       -0.3794
     31 O          25.4436   70.6957    2.4192 O.3     1  UNL1       -0.3794
     32 O          25.6349   75.4493    1.9107 O.3     1  UNL1       -0.3775
     33 C          25.5473   73.0845    2.3598 C.3     1  UNL1        0.1715
     34 C          24.6268   71.8629    2.3923 C.3     1  UNL1        0.1694
     35 C          24.7423   74.3577    2.1061 C.3     1  UNL1        0.1967
     36 C          23.6976   71.8368    1.1712 C.3     1  UNL1        0.1761
     37 C          23.8149   74.2085    0.8987 C.3     1  UNL1        0.2704
     38 H          26.7123   72.3836    3.7955 H       1  UNL1        0.2105
     39 H          26.0259   70.7248    3.1946 H       1  UNL1        0.2105
     40 H          26.2163   75.5334    2.6820 H       1  UNL1        0.2106
     41 O          21.3800   71.2966    1.3855 O.3     1  UNL1       -0.3794
     42 C          22.6650   70.7154    1.2622 C.3     1  UNL1        0.1693
     43 H          20.7125   70.5946    1.4441 H       1  UNL1        0.2105
@<TRIPOS>UNITY_ATOM_ATTR
2 1
charge -1
26 1
charge -1
@<TRIPOS>BOND
     1    25    28    1
     2    25    24    1
     3    25    26    1
     4    25    27    2
     5     1     4    1
     6     1    24    1
     7     1     2    1
     8     1     3    2
     9     6    11    1
    10     6    12    1
    11    29    36    1
    12    29    37    1
    13     7     9    1
    14     7    13    1
    15     8    10    1
    16     8    14    1
    17    28    37    1
    18     4     5    1
    19    30    33    1
    20    30    38    1
    21    31    34    1
    22    31    39    1
    23    32    35    1
    24    32    40    1
    25    41    42    1
    26    41    43    1
    27    15    19    2
    28    16    22    2
    29    17    12    1
    30    17    19   ar
    31    17    20   ar
    32    18    19   ar
    33    18    22   ar
    34    18    23    1
    35     9    10    1
    36     9    11    1
    37    10    12    1
    38    11     5    1
    39    33    34    1
    40    33    35    1
    41    34    36    1
    42    35    37    1
    43    36    42    1
    44    20    21   ar
    45    21    22   ar
