@<TRIPOS>MOLECULE
*****
 43 45 0 0 0
SMALL
GASTEIGER

@<TRIPOS>ATOM
      1 P          22.9618   71.4983   -2.6920 P.3     1  UNL1        0.2189
      2 O          23.0773   73.0667   -2.3122 O.co2   1  UNL1       -0.4371
      3 O          24.2448   70.8566   -3.1320 O.2     1  UNL1       -0.5170
      4 O          21.7475   71.4457   -3.7600 O.3     1  UNL1       -0.3112
      5 C          20.8453   70.3545   -3.7048 C.3     1  UNL1        0.1811
      6 O          18.9824   71.5607   -4.6259 O.3     1  UNL1       -0.3308
      7 O          17.3501   70.3535   -2.4193 O.3     1  UNL1       -0.3794
      8 O          16.7008   68.7944   -4.5604 O.3     1  UNL1       -0.3779
      9 C          18.4265   69.7825   -3.1615 C.3     1  UNL1        0.1713
     10 C          17.9678   69.4200   -4.5586 C.3     1  UNL1        0.1895
     11 C          19.4431   70.8836   -3.4362 C.3     1  UNL1        0.1764
     12 C          17.9520   70.7745   -5.2464 C.3     1  UNL1        0.2383
     13 H          16.6881   69.6691   -2.2316 H       1  UNL1        0.2105
     14 H          16.7629   67.9367   -4.1118 H       1  UNL1        0.2106
     15 O          15.9936   70.2648   -7.2169 O.2     1  UNL1       -0.2464
     16 O          19.1059   70.4228  -10.6124 O.2     1  UNL1       -0.2670
     17 N          18.2226   70.6776   -6.6531 N.ar    1  UNL1       -0.2551
     18 N          17.5448   70.3441   -8.9060 N.ar    1  UNL1       -0.2743
     19 C          17.1680   70.4176   -7.5589 C.ar    1  UNL1        0.3323
     20 C          19.5219   70.8402   -7.1216 C.ar    1  UNL1        0.0869
     21 C          19.8648   70.7658   -8.4093 C.ar    1  UNL1        0.0795
     22 C          18.8224   70.4972   -9.4208 C.ar    1  UNL1        0.2626
     23 H          16.8268   70.1634   -9.5553 H       1  UNL1        0.1734
     24 O          22.3062   70.8501   -1.3643 O.3     1  UNL1       -0.2703
     25 P          21.6871   71.5407   -0.0404 P.3     1  UNL1        0.2208
     26 O          21.0813   70.2870    0.7835 O.co2   1  UNL1       -0.4371
     27 O          20.6966   72.6332   -0.3222 O.2     1  UNL1       -0.5170
     28 O          22.9729   72.0082    0.8158 O.3     1  UNL1       -0.2858
     29 O          24.4905   71.3718    2.5212 O.3     1  UNL1       -0.3258
     30 O          22.6632   74.5525    4.4173 O.3     1  UNL1       -0.3794
     31 O          25.3584   74.8281    3.4645 O.3     1  UNL1       -0.3794
     32 O          21.0987   72.7657    2.7623 O.3     1  UNL1       -0.3775
     33 C          23.1913   73.8290    3.3024 C.3     1  UNL1        0.1715
     34 C          24.6794   73.5786    3.5546 C.3     1  UNL1        0.1694
     35 C          22.4395   72.5064    3.1642 C.3     1  UNL1        0.1967
     36 C          25.2540   72.5837    2.5372 C.3     1  UNL1        0.1761
     37 C          23.1213   71.5709    2.1642 C.3     1  UNL1        0.2704
     38 H          23.1360   75.3935    4.5103 H       1  UNL1        0.2105
     39 H          24.9858   75.4474    4.1116 H       1  UNL1        0.2105
     40 H          20.6779   73.3587    3.4035 H       1  UNL1        0.2106
     41 O          26.9488   70.9121    2.3315 O.3     1  UNL1       -0.3794
     42 C          26.6951   72.1987    2.8648 C.3     1  UNL1        0.1693
     43 H          27.8626   70.6541    2.5320 H       1  UNL1        0.2105
@<TRIPOS>UNITY_ATOM_ATTR
2 1
charge -1
26 1
charge -1
@<TRIPOS>BOND
     1    25    28    1
     2    25    24    1
     3    25    26    1
     4    25    27    2
     5     1     4    1
     6     1    24    1
     7     1     2    1
     8     1     3    2
     9     6    11    1
    10     6    12    1
    11    29    36    1
    12    29    37    1
    13     7     9    1
    14     7    13    1
    15     8    10    1
    16     8    14    1
    17    28    37    1
    18     4     5    1
    19    30    33    1
    20    30    38    1
    21    31    34    1
    22    31    39    1
    23    32    35    1
    24    32    40    1
    25    41    42    1
    26    41    43    1
    27    15    19    2
    28    16    22    2
    29    17    12    1
    30    17    19   ar
    31    17    20   ar
    32    18    19   ar
    33    18    22   ar
    34    18    23    1
    35     9    10    1
    36     9    11    1
    37    10    12    1
    38    11     5    1
    39    33    34    1
    40    33    35    1
    41    34    36    1
    42    35    37    1
    43    36    42    1
    44    20    21   ar
    45    21    22   ar
@<TRIPOS>MOLECULE
*****
 43 45 0 0 0
SMALL
GASTEIGER

@<TRIPOS>ATOM
      1 P          22.1845   71.6953   -3.2092 P.3     1  UNL1        0.2189
      2 O          21.6182   73.2024   -3.0500 O.co2   1  UNL1       -0.4371
      3 O          23.6345   71.5992   -3.5826 O.2     1  UNL1       -0.5170
      4 O          21.1468   70.9969   -4.2356 O.3     1  UNL1       -0.3112
      5 C          20.2465   70.0262   -3.7307 C.3     1  UNL1        0.1811
      6 O          18.5873   71.3949   -4.8019 O.3     1  UNL1       -0.3308
      7 O          16.6426   70.2598   -2.8219 O.3     1  UNL1       -0.3794
      8 O          16.1150   68.8106   -5.0709 O.3     1  UNL1       -0.3779
      9 C          17.7478   69.6274   -3.4652 C.3     1  UNL1        0.1713
     10 C          17.4169   69.3371   -4.9143 C.3     1  UNL1        0.1895
     11 C          18.8662   70.6540   -3.5937 C.3     1  UNL1        0.1764
     12 C          17.5748   70.7061   -5.5538 C.3     1  UNL1        0.2383
     13 H          15.9157   69.6235   -2.7282 H       1  UNL1        0.2105
     14 H          16.0653   67.9394   -4.6474 H       1  UNL1        0.2106
     15 O          15.8176   70.2967   -7.7270 O.2     1  UNL1       -0.2464
     16 O          19.2706   70.4106  -10.7774 O.2     1  UNL1       -0.2670
     17 N          17.9875   70.6250   -6.9266 N.ar    1  UNL1       -0.2551
     18 N          17.5383   70.3539   -9.2441 N.ar    1  UNL1       -0.2743
     19 C          17.0255   70.4162   -7.9422 C.ar    1  UNL1        0.3323
     20 C          19.3330   70.7524   -7.2543 C.ar    1  UNL1        0.0869
     21 C          19.8059   70.6893   -8.5007 C.ar    1  UNL1        0.0795
     22 C          18.8668   70.4734   -9.6203 C.ar    1  UNL1        0.2626
     23 H          16.8867   70.2087   -9.9680 H       1  UNL1        0.1734
     24 O          21.8081   71.0141   -1.7924 O.3     1  UNL1       -0.2703
     25 P          21.0907   71.6241   -0.4785 P.3     1  UNL1        0.2208
     26 O          21.0661   70.3720    0.5458 O.co2   1  UNL1       -0.4371
     27 O          19.7452   72.2364   -0.7404 O.2     1  UNL1       -0.5170
     28 O          22.1780   72.6403    0.1459 O.3     1  UNL1       -0.2858
     29 O          24.1907   73.5555   -0.7073 O.3     1  UNL1       -0.3258
     30 O          25.3940   72.8187    3.1734 O.3     1  UNL1       -0.3794
     31 O          24.9399   75.5227    2.3189 O.3     1  UNL1       -0.3794
     32 O          23.6567   70.9406    1.8191 O.3     1  UNL1       -0.3775
     33 C          24.4730   73.1836    2.1419 C.3     1  UNL1        0.1715
     34 C          25.0222   74.4176    1.4232 C.3     1  UNL1        0.1694
     35 C          24.3256   72.0156    1.1684 C.3     1  UNL1        0.1967
     36 C          24.2316   74.7092    0.1406 C.3     1  UNL1        0.1761
     37 C          23.5663   72.4256   -0.0947 C.3     1  UNL1        0.2704
     38 H          25.4918   73.5558    3.7952 H       1  UNL1        0.2105
     39 H          25.4428   75.3255    3.1247 H       1  UNL1        0.2105
     40 H          24.1474   70.6902    2.6169 H       1  UNL1        0.2106
     41 O          24.8127   75.4850   -2.0433 O.3     1  UNL1       -0.3794
     42 C          24.8587   75.8390   -0.6733 C.3     1  UNL1        0.1693
     43 H          25.2082   76.1950   -2.5735 H       1  UNL1        0.2105
@<TRIPOS>UNITY_ATOM_ATTR
2 1
charge -1
26 1
charge -1
@<TRIPOS>BOND
     1    25    28    1
     2    25    24    1
     3    25    26    1
     4    25    27    2
     5     1     4    1
     6     1    24    1
     7     1     2    1
     8     1     3    2
     9     6    11    1
    10     6    12    1
    11    29    36    1
    12    29    37    1
    13     7     9    1
    14     7    13    1
    15     8    10    1
    16     8    14    1
    17    28    37    1
    18     4     5    1
    19    30    33    1
    20    30    38    1
    21    31    34    1
    22    31    39    1
    23    32    35    1
    24    32    40    1
    25    41    42    1
    26    41    43    1
    27    15    19    2
    28    16    22    2
    29    17    12    1
    30    17    19   ar
    31    17    20   ar
    32    18    19   ar
    33    18    22   ar
    34    18    23    1
    35     9    10    1
    36     9    11    1
    37    10    12    1
    38    11     5    1
    39    33    34    1
    40    33    35    1
    41    34    36    1
    42    35    37    1
    43    36    42    1
    44    20    21   ar
    45    21    22   ar
@<TRIPOS>MOLECULE
*****
 43 45 0 0 0
SMALL
GASTEIGER

@<TRIPOS>ATOM
      1 P          21.4215   72.2087   -4.7135 P.3     1  UNL1        0.2189
      2 O          20.6981   73.6530   -4.6243 O.co2   1  UNL1       -0.4371
      3 O          22.5079   72.1065   -5.7434 O.2     1  UNL1       -0.5170
      4 O          20.1934   71.1689   -4.8821 O.3     1  UNL1       -0.3112
      5 C          19.5439   70.6947   -3.7155 C.3     1  UNL1        0.1811
      6 O          17.8010   71.5773   -5.1145 O.3     1  UNL1       -0.3308
      7 O          15.8784   70.2321   -3.2479 O.3     1  UNL1       -0.3794
      8 O          15.9572   68.5110   -5.3617 O.3     1  UNL1       -0.3779
      9 C          17.1638   69.7962   -3.6872 C.3     1  UNL1        0.1713
     10 C          17.0940   69.3153   -5.1216 C.3     1  UNL1        0.1895
     11 C          18.0598   71.0227   -3.8062 C.3     1  UNL1        0.1764
     12 C          17.0570   70.6245   -5.8914 C.3     1  UNL1        0.2383
     13 H          15.2885   69.4660   -3.1641 H       1  UNL1        0.2105
     14 H          16.0277   67.6902   -4.8499 H       1  UNL1        0.2106
     15 O          15.6415   70.8418   -8.3260 O.2     1  UNL1       -0.2464
     16 O          19.4612   70.1773  -10.8178 O.2     1  UNL1       -0.2670
     17 N          17.6567   70.5128   -7.1912 N.ar    1  UNL1       -0.2551
     18 N          17.5446   70.5109   -9.5647 N.ar    1  UNL1       -0.2743
     19 C          16.8567   70.6364   -8.3510 C.ar    1  UNL1        0.3323
     20 C          19.0234   70.2835   -7.3063 C.ar    1  UNL1        0.0869
     21 C          19.6640   70.1651   -8.4712 C.ar    1  UNL1        0.0795
     22 C          18.9012   70.2816   -9.7309 C.ar    1  UNL1        0.2626
     23 H          17.0077   70.5931  -10.3861 H       1  UNL1        0.1734
     24 O          21.9089   71.9519   -3.1938 O.3     1  UNL1       -0.2703
     25 P          23.3866   71.9515   -2.5387 P.3     1  UNL1        0.2208
     26 O          24.0224   73.3462   -3.0564 O.co2   1  UNL1       -0.4371
     27 O          24.2057   70.7373   -2.8685 O.2     1  UNL1       -0.5170
     28 O          23.1341   72.1795   -0.9609 O.3     1  UNL1       -0.2858
     29 O          24.3578   71.0685    0.7375 O.3     1  UNL1       -0.3258
     30 O          20.8557   71.7806    2.8060 O.3     1  UNL1       -0.3794
     31 O          23.2124   73.2923    3.4451 O.3     1  UNL1       -0.3794
     32 O          20.7561   71.0470    0.0075 O.3     1  UNL1       -0.3775
     33 C          21.8961   72.0677    1.8676 C.3     1  UNL1        0.1715
     34 C          23.2234   72.1263    2.6263 C.3     1  UNL1        0.1694
     35 C          21.9304   70.9677    0.8083 C.3     1  UNL1        0.1967
     36 C          24.4136   72.1643    1.6583 C.3     1  UNL1        0.1761
     37 C          23.1789   71.0680   -0.0699 C.3     1  UNL1        0.2704
     38 H          20.8282   72.4755    3.4811 H       1  UNL1        0.2105
     39 H          22.4558   73.2561    4.0514 H       1  UNL1        0.2105
     40 H          19.9728   70.9820    0.5750 H       1  UNL1        0.2106
     41 O          26.1794   70.7153    2.3592 O.3     1  UNL1       -0.3794
     42 C          25.7499   72.0640    2.3907 C.3     1  UNL1        0.1693
     43 H          27.0290   70.6364    2.8214 H       1  UNL1        0.2105
@<TRIPOS>UNITY_ATOM_ATTR
2 1
charge -1
26 1
charge -1
@<TRIPOS>BOND
     1    25    28    1
     2    25    24    1
     3    25    26    1
     4    25    27    2
     5     1     4    1
     6     1    24    1
     7     1     2    1
     8     1     3    2
     9     6    11    1
    10     6    12    1
    11    29    36    1
    12    29    37    1
    13     7     9    1
    14     7    13    1
    15     8    10    1
    16     8    14    1
    17    28    37    1
    18     4     5    1
    19    30    33    1
    20    30    38    1
    21    31    34    1
    22    31    39    1
    23    32    35    1
    24    32    40    1
    25    41    42    1
    26    41    43    1
    27    15    19    2
    28    16    22    2
    29    17    12    1
    30    17    19   ar
    31    17    20   ar
    32    18    19   ar
    33    18    22   ar
    34    18    23    1
    35     9    10    1
    36     9    11    1
    37    10    12    1
    38    11     5    1
    39    33    34    1
    40    33    35    1
    41    34    36    1
    42    35    37    1
    43    36    42    1
    44    20    21   ar
    45    21    22   ar
@<TRIPOS>MOLECULE
*****
 43 45 0 0 0
SMALL
GASTEIGER

@<TRIPOS>ATOM
      1 P          22.4167   71.5154   -2.4673 P.3     1  UNL1        0.2189
      2 O          22.1698   72.4777   -3.7442 O.co2   1  UNL1       -0.4371
      3 O          23.8131   70.9821   -2.3362 O.2     1  UNL1       -0.5170
      4 O          21.2482   70.4027   -2.5878 O.3     1  UNL1       -0.3112
      5 C          20.5486   70.2871   -3.8146 C.3     1  UNL1        0.1811
      6 O          18.7436   71.4913   -4.8468 O.3     1  UNL1       -0.3308
      7 O          16.9840   70.2904   -2.7367 O.3     1  UNL1       -0.3794
      8 O          16.4609   68.7257   -4.9081 O.3     1  UNL1       -0.3779
      9 C          18.1018   69.7171   -3.4129 C.3     1  UNL1        0.1713
     10 C          17.7259   69.3510   -4.8335 C.3     1  UNL1        0.1895
     11 C          19.1333   70.8172   -3.6302 C.3     1  UNL1        0.1764
     12 C          17.7511   70.7037   -5.5246 C.3     1  UNL1        0.2383
     13 H          16.3118   69.6066   -2.5864 H       1  UNL1        0.2105
     14 H          16.4962   67.8692   -4.4544 H       1  UNL1        0.2106
     15 O          15.9083   70.2115   -7.6079 O.2     1  UNL1       -0.2464
     16 O          19.2182   70.3364  -10.8125 O.2     1  UNL1       -0.2670
     17 N          18.1039   70.6031   -6.9127 N.ar    1  UNL1       -0.2551
     18 N          17.5579   70.2743   -9.2019 N.ar    1  UNL1       -0.2743
     19 C          17.1024   70.3526   -7.8796 C.ar    1  UNL1        0.3323
     20 C          19.4302   70.7525   -7.3032 C.ar    1  UNL1        0.0869
     21 C          19.8483   70.6738   -8.5682 C.ar    1  UNL1        0.0795
     22 C          18.8652   70.4145   -9.6399 C.ar    1  UNL1        0.2626
     23 H          16.8779   70.1001   -9.8926 H       1  UNL1        0.1734
     24 O          21.9249   72.4258   -1.2255 O.3     1  UNL1       -0.2703
     25 P          20.7995   72.1615   -0.0956 P.3     1  UNL1        0.2208
     26 O          21.0540   70.6210    0.3283 O.co2   1  UNL1       -0.4371
     27 O          19.3972   72.4571   -0.5428 O.2     1  UNL1       -0.5170
     28 O          21.2904   73.0215    1.1789 O.3     1  UNL1       -0.2858
     29 O          20.9312   72.7955    3.5106 O.3     1  UNL1       -0.3258
     30 O          20.5724   76.8960    3.1821 O.3     1  UNL1       -0.3794
     31 O          22.9096   75.7714    4.4153 O.3     1  UNL1       -0.3794
     32 O          19.5011   75.1822    1.1097 O.3     1  UNL1       -0.3775
     33 C          21.0972   75.6043    2.8635 C.3     1  UNL1        0.1715
     34 C          21.7337   75.0204    4.1263 C.3     1  UNL1        0.1694
     35 C          19.9599   74.7107    2.3722 C.3     1  UNL1        0.1967
     36 C          22.0798   73.5373    3.9373 C.3     1  UNL1        0.1761
     37 C          20.3963   73.2485    2.2653 C.3     1  UNL1        0.2704
     38 H          21.2896   77.4684    3.4943 H       1  UNL1        0.2105
     39 H          22.6773   76.7060    4.5319 H       1  UNL1        0.2105
     40 H          19.2275   76.1087    1.1907 H       1  UNL1        0.2106
     41 O          22.0580   73.6373    6.3244 O.3     1  UNL1       -0.3794
     42 C          22.5697   72.8947    5.2331 C.3     1  UNL1        0.1693
     43 H          22.3614   73.2396    7.1559 H       1  UNL1        0.2105
@<TRIPOS>UNITY_ATOM_ATTR
2 1
charge -1
26 1
charge -1
@<TRIPOS>BOND
     1    25    28    1
     2    25    24    1
     3    25    26    1
     4    25    27    2
     5     1     4    1
     6     1    24    1
     7     1     2    1
     8     1     3    2
     9     6    11    1
    10     6    12    1
    11    29    36    1
    12    29    37    1
    13     7     9    1
    14     7    13    1
    15     8    10    1
    16     8    14    1
    17    28    37    1
    18     4     5    1
    19    30    33    1
    20    30    38    1
    21    31    34    1
    22    31    39    1
    23    32    35    1
    24    32    40    1
    25    41    42    1
    26    41    43    1
    27    15    19    2
    28    16    22    2
    29    17    12    1
    30    17    19   ar
    31    17    20   ar
    32    18    19   ar
    33    18    22   ar
    34    18    23    1
    35     9    10    1
    36     9    11    1
    37    10    12    1
    38    11     5    1
    39    33    34    1
    40    33    35    1
    41    34    36    1
    42    35    37    1
    43    36    42    1
    44    20    21   ar
    45    21    22   ar
@<TRIPOS>MOLECULE
*****
 43 45 0 0 0
SMALL
GASTEIGER

@<TRIPOS>ATOM
      1 P          22.0982   73.3210   -2.0381 P.3     1  UNL1        0.2189
      2 O          20.9082   74.4092   -2.1689 O.co2   1  UNL1       -0.4371
      3 O          23.4466   73.8925   -1.7121 O.2     1  UNL1       -0.5170
      4 O          22.0068   72.4779   -3.4161 O.3     1  UNL1       -0.3112
      5 C          21.3393   73.0603   -4.5220 C.3     1  UNL1        0.1811
      6 O          20.8210   70.8953   -5.4264 O.3     1  UNL1       -0.3308
      7 O          21.4307   72.0787   -8.1132 O.3     1  UNL1       -0.3794
      8 O          18.7045   72.1065   -8.0563 O.3     1  UNL1       -0.3779
      9 C          20.8075   72.6835   -6.9814 C.3     1  UNL1        0.1713
     10 C          19.3919   72.1693   -6.8233 C.3     1  UNL1        0.1895
     11 C          21.4843   72.1425   -5.7281 C.3     1  UNL1        0.1764
     12 C          19.6213   70.7978   -6.2113 C.3     1  UNL1        0.2383
     13 H          21.0155   72.4091   -8.9258 H       1  UNL1        0.2105
     14 H          18.5829   73.0034   -8.4049 H       1  UNL1        0.2106
     15 O          17.1622   69.7653   -7.1410 O.2     1  UNL1       -0.2464
     16 O          15.5418   69.2665   -2.8554 O.2     1  UNL1       -0.2670
     17 N          18.5392   70.3898   -5.3604 N.ar    1  UNL1       -0.2551
     18 N          16.3574   69.5176   -5.0064 N.ar    1  UNL1       -0.2743
     19 C          17.3459   69.8856   -5.9280 C.ar    1  UNL1        0.3323
     20 C          18.6675   70.4912   -3.9794 C.ar    1  UNL1        0.0869
     21 C          17.7150   70.1372   -3.1142 C.ar    1  UNL1        0.0795
     22 C          16.4371   69.6007   -3.6253 C.ar    1  UNL1        0.2626
     23 H          15.5172   69.1640   -5.3789 H       1  UNL1        0.1734
     24 O          21.5234   72.2842   -0.9391 O.3     1  UNL1       -0.2703
     25 P          22.2798   71.3945    0.1786 P.3     1  UNL1        0.2208
     26 O          23.6367   70.9320   -0.5713 O.co2   1  UNL1       -0.4371
     27 O          21.4576   70.2632    0.7244 O.2     1  UNL1       -0.5170
     28 O          22.7696   72.4608    1.2867 O.3     1  UNL1       -0.2858
     29 O          24.3850   72.4063    3.0200 O.3     1  UNL1       -0.3258
     30 O          21.3187   74.3004    5.0352 O.3     1  UNL1       -0.3794
     31 O          23.6356   75.8017    4.2441 O.3     1  UNL1       -0.3794
     32 O          20.7219   72.1584    3.1817 O.3     1  UNL1       -0.3775
     33 C          22.1282   73.9765    3.9015 C.3     1  UNL1        0.1715
     34 C          23.5713   74.3786    4.2122 C.3     1  UNL1        0.1694
     35 C          22.0341   72.4757    3.6333 C.3     1  UNL1        0.1967
     36 C          24.5400   73.8235    3.1593 C.3     1  UNL1        0.1761
     37 C          23.0729   72.0190    2.6074 C.3     1  UNL1        0.2704
     38 H          21.3736   75.2521    5.2106 H       1  UNL1        0.2105
     39 H          23.0190   76.1395    4.9126 H       1  UNL1        0.2105
     40 H          20.0737   72.4523    3.8399 H       1  UNL1        0.2106
     41 O          26.0605   74.3930    4.9122 O.3     1  UNL1       -0.3794
     42 C          25.9985   74.0780    3.5333 C.3     1  UNL1        0.1693
     43 H          26.9830   74.5572    5.1646 H       1  UNL1        0.2105
@<TRIPOS>UNITY_ATOM_ATTR
2 1
charge -1
26 1
charge -1
@<TRIPOS>BOND
     1    25    28    1
     2    25    24    1
     3    25    26    1
     4    25    27    2
     5     1     4    1
     6     1    24    1
     7     1     2    1
     8     1     3    2
     9     6    11    1
    10     6    12    1
    11    29    36    1
    12    29    37    1
    13     7     9    1
    14     7    13    1
    15     8    10    1
    16     8    14    1
    17    28    37    1
    18     4     5    1
    19    30    33    1
    20    30    38    1
    21    31    34    1
    22    31    39    1
    23    32    35    1
    24    32    40    1
    25    41    42    1
    26    41    43    1
    27    15    19    2
    28    16    22    2
    29    17    12    1
    30    17    19   ar
    31    17    20   ar
    32    18    19   ar
    33    18    22   ar
    34    18    23    1
    35     9    10    1
    36     9    11    1
    37    10    12    1
    38    11     5    1
    39    33    34    1
    40    33    35    1
    41    34    36    1
    42    35    37    1
    43    36    42    1
    44    20    21   ar
    45    21    22   ar
@<TRIPOS>MOLECULE
*****
 43 45 0 0 0
SMALL
GASTEIGER

@<TRIPOS>ATOM
      1 P          23.4777   73.5662   -4.1732 P.3     1  UNL1        0.2189
      2 O          22.6959   74.9619   -4.4143 O.co2   1  UNL1       -0.4371
      3 O          24.9691   73.6866   -4.0600 O.2     1  UNL1       -0.5170
      4 O          22.9382   72.6087   -5.3606 O.3     1  UNL1       -0.3112
      5 C          21.5704   72.2385   -5.3619 C.3     1  UNL1        0.1811
      6 O          20.4692   70.3197   -6.2996 O.3     1  UNL1       -0.3308
      7 O          20.6576   71.7338   -8.9369 O.3     1  UNL1       -0.3794
      8 O          18.0694   72.1834   -8.2049 O.3     1  UNL1       -0.3779
      9 C          20.4316   72.2758   -7.6367 C.3     1  UNL1        0.1713
     10 C          19.0194   71.9749   -7.1798 C.3     1  UNL1        0.1895
     11 C          21.2646   71.4753   -6.6434 C.3     1  UNL1        0.1764
     12 C          19.1252   70.5162   -6.7687 C.3     1  UNL1        0.2383
     13 H          20.1362   72.2292   -9.5886 H       1  UNL1        0.2105
     14 H          18.0392   73.1261   -8.4311 H       1  UNL1        0.2106
     15 O          16.4159   69.8271   -7.1718 O.2     1  UNL1       -0.2464
     16 O          15.7058   69.2305   -2.6573 O.2     1  UNL1       -0.2670
     17 N          18.2096   70.1759   -5.7165 N.ar    1  UNL1       -0.2551
     18 N          16.0646   69.5304   -4.9236 N.ar    1  UNL1       -0.2743
     19 C          16.8695   69.8460   -6.0257 C.ar    1  UNL1        0.3323
     20 C          18.6432   70.1712   -4.3951 C.ar    1  UNL1        0.0869
     21 C          17.8627   69.8692   -3.3555 C.ar    1  UNL1        0.0795
     22 C          16.4488   69.5130   -3.5921 C.ar    1  UNL1        0.2626
     23 H          15.1270   69.2977   -5.1148 H       1  UNL1        0.1734
     24 O          22.7499   72.9638   -2.8616 O.3     1  UNL1       -0.2703
     25 P          22.8943   71.5283   -2.1326 P.3     1  UNL1        0.2208
     26 O          24.2183   70.8969   -2.8153 O.co2   1  UNL1       -0.4371
     27 O          21.6726   70.6615   -2.2329 O.2     1  UNL1       -0.5170
     28 O          23.3427   71.8802   -0.6226 O.3     1  UNL1       -0.2858
     29 O          24.6084   70.8831    1.1153 O.3     1  UNL1       -0.3258
     30 O          21.2127   71.8631    3.2508 O.3     1  UNL1       -0.3794
     31 O          23.6295   73.3580    3.6659 O.3     1  UNL1       -0.3794
     32 O          20.9801   70.8992    0.5311 O.3     1  UNL1       -0.3775
     33 C          22.2201   72.0413    2.2514 C.3     1  UNL1        0.1715
     34 C          23.5786   72.1272    2.9499 C.3     1  UNL1        0.1694
     35 C          22.1842   70.8554    1.2893 C.3     1  UNL1        0.1967
     36 C          24.7284   72.0507    1.9363 C.3     1  UNL1        0.1761
     37 C          23.3974   70.8470    0.3576 C.3     1  UNL1        0.2704
     38 H          21.2299   72.6130    3.8647 H       1  UNL1        0.2105
     39 H          22.8979   73.3938    4.3021 H       1  UNL1        0.2105
     40 H          20.2196   70.9038    1.1323 H       1  UNL1        0.2106
     41 O          26.7107   70.7561    2.2579 O.3     1  UNL1       -0.3794
     42 C          26.0910   71.9759    2.6218 C.3     1  UNL1        0.1693
     43 H          27.5791   70.6948    2.6866 H       1  UNL1        0.2105
@<TRIPOS>UNITY_ATOM_ATTR
2 1
charge -1
26 1
charge -1
@<TRIPOS>BOND
     1    25    28    1
     2    25    24    1
     3    25    26    1
     4    25    27    2
     5     1     4    1
     6     1    24    1
     7     1     2    1
     8     1     3    2
     9     6    11    1
    10     6    12    1
    11    29    36    1
    12    29    37    1
    13     7     9    1
    14     7    13    1
    15     8    10    1
    16     8    14    1
    17    28    37    1
    18     4     5    1
    19    30    33    1
    20    30    38    1
    21    31    34    1
    22    31    39    1
    23    32    35    1
    24    32    40    1
    25    41    42    1
    26    41    43    1
    27    15    19    2
    28    16    22    2
    29    17    12    1
    30    17    19   ar
    31    17    20   ar
    32    18    19   ar
    33    18    22   ar
    34    18    23    1
    35     9    10    1
    36     9    11    1
    37    10    12    1
    38    11     5    1
    39    33    34    1
    40    33    35    1
    41    34    36    1
    42    35    37    1
    43    36    42    1
    44    20    21   ar
    45    21    22   ar
@<TRIPOS>MOLECULE
*****
 43 45 0 0 0
SMALL
GASTEIGER

@<TRIPOS>ATOM
      1 P          22.7314   71.3413   -2.0876 P.3     1  UNL1        0.2189
      2 O          22.3645   72.9166   -2.1248 O.co2   1  UNL1       -0.4371
      3 O          24.0501   70.9830   -2.7073 O.2     1  UNL1       -0.5170
      4 O          21.4331   70.6247   -2.7347 O.3     1  UNL1       -0.3112
      5 C          20.8400   71.2084   -3.8816 C.3     1  UNL1        0.1811
      6 O          18.7449   71.8943   -4.8376 O.3     1  UNL1       -0.3308
      7 O          17.4472   70.5280   -2.5052 O.3     1  UNL1       -0.3794
      8 O          17.1425   68.7027   -4.5082 O.3     1  UNL1       -0.3779
      9 C          18.6167   70.1556   -3.2326 C.3     1  UNL1        0.1713
     10 C          18.2369   69.5931   -4.5865 C.3     1  UNL1        0.1895
     11 C          19.3577   71.4309   -3.6144 C.3     1  UNL1        0.1764
     12 C          17.9108   70.8528   -5.3707 C.3     1  UNL1        0.2383
     13 H          16.9575   69.7298   -2.2501 H       1  UNL1        0.2105
     14 H          17.3998   67.9177   -4.0000 H       1  UNL1        0.2106
     15 O          15.9238   70.6336   -7.3662 O.2     1  UNL1       -0.2464
     16 O          19.0684   70.3086  -10.7199 O.2     1  UNL1       -0.2670
     17 N          18.1821   70.7103   -6.7734 N.ar    1  UNL1       -0.2551
     18 N          17.4912   70.4721   -9.0345 N.ar    1  UNL1       -0.2743
     19 C          17.1122   70.6072   -7.6928 C.ar    1  UNL1        0.3323
     20 C          19.4970   70.6742   -7.2248 C.ar    1  UNL1        0.0869
     21 C          19.8416   70.5437   -8.5075 C.ar    1  UNL1        0.0795
     22 C          18.7839   70.4298   -9.5324 C.ar    1  UNL1        0.2626
     23 H          16.7627   70.3982   -9.6929 H       1  UNL1        0.1734
     24 O          22.6040   70.9754   -0.5183 O.3     1  UNL1       -0.2703
     25 P          23.5856   71.2873    0.7276 P.3     1  UNL1        0.2208
     26 O          24.9559   70.5305    0.3187 O.co2   1  UNL1       -0.4371
     27 O          23.0310   70.8853    2.0635 O.2     1  UNL1       -0.5170
     28 O          23.9313   72.8579    0.5920 O.3     1  UNL1       -0.2858
     29 O          24.5583   74.7686    1.8461 O.3     1  UNL1       -0.3258
     30 O          20.9751   76.1325    0.3129 O.3     1  UNL1       -0.3794
     31 O          23.4454   77.1873   -0.7034 O.3     1  UNL1       -0.3794
     32 O          21.2302   73.3736    1.1513 O.3     1  UNL1       -0.3775
     33 C          22.2056   75.4038    0.2979 C.3     1  UNL1        0.1715
     34 C          23.3541   76.3982    0.4795 C.3     1  UNL1        0.1694
     35 C          22.1945   74.3821    1.4334 C.3     1  UNL1        0.1967
     36 C          24.6801   75.6713    0.7406 C.3     1  UNL1        0.1761
     37 C          23.5736   73.7537    1.6413 C.3     1  UNL1        0.2704
     38 H          20.9755   76.7826   -0.4061 H       1  UNL1        0.2105
     39 H          22.6016   77.6406   -0.8572 H       1  UNL1        0.2105
     40 H          20.3615   73.7842    1.0221 H       1  UNL1        0.2106
     41 O          26.2357   77.2707   -0.1142 O.3     1  UNL1       -0.3794
     42 C          25.8079   76.6433    1.0806 C.3     1  UNL1        0.1693
     43 H          26.9532   77.8925    0.0868 H       1  UNL1        0.2105
@<TRIPOS>UNITY_ATOM_ATTR
2 1
charge -1
26 1
charge -1
@<TRIPOS>BOND
     1    25    28    1
     2    25    24    1
     3    25    26    1
     4    25    27    2
     5     1     4    1
     6     1    24    1
     7     1     2    1
     8     1     3    2
     9     6    11    1
    10     6    12    1
    11    29    36    1
    12    29    37    1
    13     7     9    1
    14     7    13    1
    15     8    10    1
    16     8    14    1
    17    28    37    1
    18     4     5    1
    19    30    33    1
    20    30    38    1
    21    31    34    1
    22    31    39    1
    23    32    35    1
    24    32    40    1
    25    41    42    1
    26    41    43    1
    27    15    19    2
    28    16    22    2
    29    17    12    1
    30    17    19   ar
    31    17    20   ar
    32    18    19   ar
    33    18    22   ar
    34    18    23    1
    35     9    10    1
    36     9    11    1
    37    10    12    1
    38    11     5    1
    39    33    34    1
    40    33    35    1
    41    34    36    1
    42    35    37    1
    43    36    42    1
    44    20    21   ar
    45    21    22   ar
@<TRIPOS>MOLECULE
*****
 43 45 0 0 0
SMALL
GASTEIGER

@<TRIPOS>ATOM
      1 P          22.8997   72.3899   -2.5365 P.3     1  UNL1        0.2189
      2 O          23.7359   73.5138   -1.7271 O.co2   1  UNL1       -0.4371
      3 O          23.3928   70.9838   -2.3603 O.2     1  UNL1       -0.5170
      4 O          22.8788   72.9417   -4.0574 O.3     1  UNL1       -0.3112
      5 C          21.9271   73.9327   -4.4040 C.3     1  UNL1        0.1811
      6 O          21.2290   72.5820   -6.2647 O.3     1  UNL1       -0.3308
      7 O          20.8657   75.1573   -7.7570 O.3     1  UNL1       -0.3794
      8 O          18.3132   74.5220   -7.0375 O.3     1  UNL1       -0.3779
      9 C          20.6276   74.8713   -6.3797 C.3     1  UNL1        0.1713
     10 C          19.3666   74.0471   -6.2242 C.3     1  UNL1        0.1895
     11 C          21.7027   73.8995   -5.9096 C.3     1  UNL1        0.1764
     12 C          19.8423   72.6633   -6.6326 C.3     1  UNL1        0.2383
     13 H          20.1916   75.7765   -8.0797 H       1  UNL1        0.2105
     14 H          18.0460   75.4050   -6.7380 H       1  UNL1        0.2106
     15 O          17.4486   71.5117   -7.5929 O.2     1  UNL1       -0.2464
     16 O          17.1603   68.6563   -3.9867 O.2     1  UNL1       -0.2670
     17 N          19.1207   71.6169   -5.9649 N.ar    1  UNL1       -0.2551
     18 N          17.3071   70.0908   -5.7966 N.ar    1  UNL1       -0.2743
     19 C          17.9283   71.1089   -6.5312 C.ar    1  UNL1        0.3323
     20 C          19.5965   71.1050   -4.7627 C.ar    1  UNL1        0.0869
     21 C          18.9916   70.1349   -4.0740 C.ar    1  UNL1        0.0795
     22 C          17.7402   69.5494   -4.5966 C.ar    1  UNL1        0.2626
     23 H          16.4746   69.7218   -6.1716 H       1  UNL1        0.1734
     24 O          21.3818   72.6379   -2.0391 O.3     1  UNL1       -0.2703
     25 P          20.6318   72.2193   -0.6697 P.3     1  UNL1        0.2208
     26 O          20.5491   70.6067   -0.7699 O.co2   1  UNL1       -0.4371
     27 O          19.3076   72.8956   -0.4620 O.2     1  UNL1       -0.5170
     28 O          21.7160   72.5005    0.4923 O.3     1  UNL1       -0.2858
     29 O          22.9886   71.0671    1.8860 O.3     1  UNL1       -0.3258
     30 O          21.9886   73.9625    4.6551 O.3     1  UNL1       -0.3794
     31 O          24.6843   73.8070    3.6767 O.3     1  UNL1       -0.3794
     32 O          20.0561   73.1416    2.6623 O.3     1  UNL1       -0.3775
     33 C          22.3385   73.4619    3.3618 C.3     1  UNL1        0.1715
     34 C          23.7094   72.7901    3.4624 C.3     1  UNL1        0.1694
     35 C          21.2792   72.4574    2.9121 C.3     1  UNL1        0.1967
     36 C          24.0336   71.9991    2.1879 C.3     1  UNL1        0.1761
     37 C          21.7219   71.6903    1.6648 C.3     1  UNL1        0.2704
     38 H          22.6570   74.6013    4.9463 H       1  UNL1        0.2105
     39 H          24.4677   74.2993    4.4841 H       1  UNL1        0.2105
     40 H          19.7865   73.6230    3.4594 H       1  UNL1        0.2106
     41 O          24.9863   69.8608    2.6661 O.3     1  UNL1       -0.3794
     42 C          25.3233   71.1934    2.3274 C.3     1  UNL1        0.1693
     43 H          25.7975   69.3361    2.7578 H       1  UNL1        0.2105
@<TRIPOS>UNITY_ATOM_ATTR
2 1
charge -1
26 1
charge -1
@<TRIPOS>BOND
     1    25    28    1
     2    25    24    1
     3    25    26    1
     4    25    27    2
     5     1     4    1
     6     1    24    1
     7     1     2    1
     8     1     3    2
     9     6    11    1
    10     6    12    1
    11    29    36    1
    12    29    37    1
    13     7     9    1
    14     7    13    1
    15     8    10    1
    16     8    14    1
    17    28    37    1
    18     4     5    1
    19    30    33    1
    20    30    38    1
    21    31    34    1
    22    31    39    1
    23    32    35    1
    24    32    40    1
    25    41    42    1
    26    41    43    1
    27    15    19    2
    28    16    22    2
    29    17    12    1
    30    17    19   ar
    31    17    20   ar
    32    18    19   ar
    33    18    22   ar
    34    18    23    1
    35     9    10    1
    36     9    11    1
    37    10    12    1
    38    11     5    1
    39    33    34    1
    40    33    35    1
    41    34    36    1
    42    35    37    1
    43    36    42    1
    44    20    21   ar
    45    21    22   ar
@<TRIPOS>MOLECULE
*****
 43 45 0 0 0
SMALL
GASTEIGER

@<TRIPOS>ATOM
      1 P          22.8943   71.4816   -3.0890 P.3     1  UNL1        0.2189
      2 O          22.5894   72.0612   -4.5683 O.co2   1  UNL1       -0.4371
      3 O          24.2035   70.7621   -2.9477 O.2     1  UNL1       -0.5170
      4 O          21.5748   70.6162   -2.7313 O.3     1  UNL1       -0.3112
      5 C          20.7215   70.2158   -3.7893 C.3     1  UNL1        0.1811
      6 O          18.9215   71.4887   -4.7450 O.3     1  UNL1       -0.3308
      7 O          17.1992   70.3229   -2.5849 O.3     1  UNL1       -0.3794
      8 O          16.5489   68.7991   -4.7510 O.3     1  UNL1       -0.3779
      9 C          18.2731   69.7210   -3.3059 C.3     1  UNL1        0.1713
     10 C          17.8354   69.3824   -4.7157 C.3     1  UNL1        0.1895
     11 C          19.3317   70.7894   -3.5495 C.3     1  UNL1        0.1764
     12 C          17.8804   70.7408   -5.3944 C.3     1  UNL1        0.2383
     13 H          16.5108   69.6596   -2.4172 H       1  UNL1        0.2105
     14 H          16.5721   67.9371   -4.3069 H       1  UNL1        0.2106
     15 O          15.9525   70.3096   -7.4131 O.2     1  UNL1       -0.2464
     16 O          19.1467   70.3836  -10.7346 O.2     1  UNL1       -0.2670
     17 N          18.1804   70.6436   -6.7951 N.ar    1  UNL1       -0.2551
     18 N          17.5445   70.3470   -9.0653 N.ar    1  UNL1       -0.2743
     19 C          17.1390   70.4248   -7.7269 C.ar    1  UNL1        0.3323
     20 C          19.4949   70.7651   -7.2323 C.ar    1  UNL1        0.0869
     21 C          19.8651   70.6871   -8.5122 C.ar    1  UNL1        0.0795
     22 C          18.8382   70.4601   -9.5494 C.ar    1  UNL1        0.2626
     23 H          16.8362   70.1946   -9.7323 H       1  UNL1        0.1734
     24 O          22.7389   72.7867   -2.1481 O.3     1  UNL1       -0.2703
     25 P          22.4082   72.9258   -0.5719 P.3     1  UNL1        0.2208
     26 O          22.7460   71.4542    0.0093 O.co2   1  UNL1       -0.4371
     27 O          21.0165   73.4044   -0.2751 O.2     1  UNL1       -0.5170
     28 O          23.5792   73.8723    0.0092 O.3     1  UNL1       -0.2858
     29 O          22.7608   74.3941    2.1713 O.3     1  UNL1       -0.3258
     30 O          26.4713   76.1889    2.4195 O.3     1  UNL1       -0.3794
     31 O          25.9691   73.7639    3.8737 O.3     1  UNL1       -0.3794
     32 O          24.9726   76.3074   -0.0543 O.3     1  UNL1       -0.3775
     33 C          25.5302   75.1940    2.0075 C.3     1  UNL1        0.1715
     34 C          24.9439   74.5404    3.2605 C.3     1  UNL1        0.1694
     35 C          24.4296   75.8590    1.1829 C.3     1  UNL1        0.1967
     36 C          23.7395   73.6555    2.9118 C.3     1  UNL1        0.1761
     37 C          23.2576   74.9080    0.9339 C.3     1  UNL1        0.2704
     38 H          27.1731   75.7731    2.9431 H       1  UNL1        0.2105
     39 H          26.7239   74.3343    4.0884 H       1  UNL1        0.2105
     40 H          25.7134   76.9088    0.1170 H       1  UNL1        0.2106
     41 O          22.0942   72.1468    3.7636 O.3     1  UNL1       -0.3794
     42 C          23.0430   73.1196    4.1607 C.3     1  UNL1        0.1693
     43 H          21.6432   71.7966    4.5483 H       1  UNL1        0.2105
@<TRIPOS>UNITY_ATOM_ATTR
2 1
charge -1
26 1
charge -1
@<TRIPOS>BOND
     1    25    28    1
     2    25    24    1
     3    25    26    1
     4    25    27    2
     5     1     4    1
     6     1    24    1
     7     1     2    1
     8     1     3    2
     9     6    11    1
    10     6    12    1
    11    29    36    1
    12    29    37    1
    13     7     9    1
    14     7    13    1
    15     8    10    1
    16     8    14    1
    17    28    37    1
    18     4     5    1
    19    30    33    1
    20    30    38    1
    21    31    34    1
    22    31    39    1
    23    32    35    1
    24    32    40    1
    25    41    42    1
    26    41    43    1
    27    15    19    2
    28    16    22    2
    29    17    12    1
    30    17    19   ar
    31    17    20   ar
    32    18    19   ar
    33    18    22   ar
    34    18    23    1
    35     9    10    1
    36     9    11    1
    37    10    12    1
    38    11     5    1
    39    33    34    1
    40    33    35    1
    41    34    36    1
    42    35    37    1
    43    36    42    1
    44    20    21   ar
    45    21    22   ar
@<TRIPOS>MOLECULE
*****
 43 45 0 0 0
SMALL
GASTEIGER

@<TRIPOS>ATOM
      1 P          22.6306   71.5836   -2.9380 P.3     1  UNL1        0.2189
      2 O          22.6947   71.6906   -4.5510 O.co2   1  UNL1       -0.4371
      3 O          23.8559   71.0067   -2.2919 O.2     1  UNL1       -0.5170
      4 O          21.2484   70.7913   -2.6558 O.3     1  UNL1       -0.3112
      5 C          20.4786   70.3588   -3.7641 C.3     1  UNL1        0.1811
      6 O          18.6542   71.5163   -4.8154 O.3     1  UNL1       -0.3308
      7 O          16.9025   70.2631   -2.7292 O.3     1  UNL1       -0.3794
      8 O          16.4480   68.6902   -4.9100 O.3     1  UNL1       -0.3779
      9 C          18.0435   69.7220   -3.3930 C.3     1  UNL1        0.1713
     10 C          17.6947   69.3493   -4.8189 C.3     1  UNL1        0.1895
     11 C          19.0474   70.8500   -3.5956 C.3     1  UNL1        0.1764
     12 C          17.6915   70.7039   -5.5068 C.3     1  UNL1        0.2383
     13 H          16.2474   69.5611   -2.5885 H       1  UNL1        0.2105
     14 H          16.5010   67.8339   -4.4577 H       1  UNL1        0.2106
     15 O          15.8827   70.1980   -7.6164 O.2     1  UNL1       -0.2464
     16 O          19.2315   70.3877  -10.7772 O.2     1  UNL1       -0.2670
     17 N          18.0635   70.6162   -6.8907 N.ar    1  UNL1       -0.2551
     18 N          17.5516   70.2930   -9.1886 N.ar    1  UNL1       -0.2743
     19 C          17.0781   70.3573   -7.8718 C.ar    1  UNL1        0.3323
     20 C          19.3924   70.7864   -7.2632 C.ar    1  UNL1        0.0869
     21 C          19.8279   70.7208   -8.5231 C.ar    1  UNL1        0.0795
     22 C          18.8624   70.4540   -9.6088 C.ar    1  UNL1        0.2626
     23 H          16.8831   70.1134   -9.8890 H       1  UNL1        0.1734
     24 O          22.2811   73.0960   -2.4870 O.3     1  UNL1       -0.2703
     25 P          23.1457   74.4585   -2.5815 P.3     1  UNL1        0.2208
     26 O          24.5985   73.9428   -3.0723 O.co2   1  UNL1       -0.4371
     27 O          23.1697   75.2613   -1.3130 O.2     1  UNL1       -0.5170
     28 O          22.5384   75.2401   -3.8563 O.3     1  UNL1       -0.2858
     29 O          23.3570   74.5697   -5.9770 O.3     1  UNL1       -0.3258
     30 O          21.6439   78.1733   -7.0401 O.3     1  UNL1       -0.3794
     31 O          20.3835   75.7164   -7.8296 O.3     1  UNL1       -0.3794
     32 O          23.0308   77.9240   -4.5115 O.3     1  UNL1       -0.3775
     33 C          21.7565   76.9497   -6.3082 C.3     1  UNL1        0.1715
     34 C          21.7058   75.7890   -7.3037 C.3     1  UNL1        0.1694
     35 C          23.0791   76.9452   -5.5440 C.3     1  UNL1        0.1967
     36 C          22.0862   74.4640   -6.6296 C.3     1  UNL1        0.1761
     37 C          23.3860   75.5674   -4.9544 C.3     1  UNL1        0.2704
     38 H          20.8060   78.1828   -7.5273 H       1  UNL1        0.2105
     39 H          20.1555   76.5595   -8.2521 H       1  UNL1        0.2105
     40 H          22.8362   78.7917   -4.8976 H       1  UNL1        0.2106
     41 O          23.1368   72.3819   -7.1496 O.3     1  UNL1       -0.3794
     42 C          22.1955   73.3208   -7.6362 C.3     1  UNL1        0.1693
     43 H          23.2165   71.6485   -7.7800 H       1  UNL1        0.2105
@<TRIPOS>UNITY_ATOM_ATTR
2 1
charge -1
26 1
charge -1
@<TRIPOS>BOND
     1    25    28    1
     2    25    24    1
     3    25    26    1
     4    25    27    2
     5     1     4    1
     6     1    24    1
     7     1     2    1
     8     1     3    2
     9     6    11    1
    10     6    12    1
    11    29    36    1
    12    29    37    1
    13     7     9    1
    14     7    13    1
    15     8    10    1
    16     8    14    1
    17    28    37    1
    18     4     5    1
    19    30    33    1
    20    30    38    1
    21    31    34    1
    22    31    39    1
    23    32    35    1
    24    32    40    1
    25    41    42    1
    26    41    43    1
    27    15    19    2
    28    16    22    2
    29    17    12    1
    30    17    19   ar
    31    17    20   ar
    32    18    19   ar
    33    18    22   ar
    34    18    23    1
    35     9    10    1
    36     9    11    1
    37    10    12    1
    38    11     5    1
    39    33    34    1
    40    33    35    1
    41    34    36    1
    42    35    37    1
    43    36    42    1
    44    20    21   ar
    45    21    22   ar
@<TRIPOS>MOLECULE
*****
 43 45 0 0 0
SMALL
GASTEIGER

@<TRIPOS>ATOM
      1 P          21.4535   72.1990   -4.7110 P.3     1  UNL1        0.2189
      2 O          20.6071   73.5776   -4.6855 O.co2   1  UNL1       -0.4371
      3 O          22.5856   72.1685   -5.6952 O.2     1  UNL1       -0.5170
      4 O          20.3259   71.0544   -4.9013 O.3     1  UNL1       -0.3112
      5 C          19.6811   70.5421   -3.7482 C.3     1  UNL1        0.1811
      6 O          17.9437   71.5620   -5.0578 O.3     1  UNL1       -0.3308
      7 O          16.0131   70.2551   -3.1721 O.3     1  UNL1       -0.3794
      8 O          15.9323   68.6063   -5.3427 O.3     1  UNL1       -0.3779
      9 C          17.2587   69.7683   -3.6688 C.3     1  UNL1        0.1713
     10 C          17.1174   69.3415   -5.1150 C.3     1  UNL1        0.1895
     11 C          18.2145   70.9498   -3.7779 C.3     1  UNL1        0.1764
     12 C          17.1255   70.6766   -5.8398 C.3     1  UNL1        0.2383
     13 H          15.3863   69.5183   -3.0936 H       1  UNL1        0.2105
     14 H          15.9755   67.7657   -4.8607 H       1  UNL1        0.2106
     15 O          15.5898   70.6490   -8.2103 O.2     1  UNL1       -0.2464
     16 O          19.3463   70.2958  -10.8571 O.2     1  UNL1       -0.2670
     17 N          17.6763   70.5787   -7.1621 N.ar    1  UNL1       -0.2551
     18 N          17.4615   70.4734   -9.5262 N.ar    1  UNL1       -0.2743
     19 C          16.8179   70.5722   -8.2861 C.ar    1  UNL1        0.3323
     20 C          19.0535   70.4907   -7.3343 C.ar    1  UNL1        0.0869
     21 C          19.6515   70.3957   -8.5237 C.ar    1  UNL1        0.0795
     22 C          18.8264   70.3823   -9.7489 C.ar    1  UNL1        0.2626
     23 H          16.8835   70.4666  -10.3235 H       1  UNL1        0.1734
     24 O          21.8987   72.0174   -3.1677 O.3     1  UNL1       -0.2703
     25 P          23.3626   71.9064   -2.4912 P.3     1  UNL1        0.2208
     26 O          23.9554   73.4042   -2.6417 O.co2   1  UNL1       -0.4371
     27 O          24.2328   70.8340   -3.0798 O.2     1  UNL1       -0.5170
     28 O          23.0714   71.7400   -0.9124 O.3     1  UNL1       -0.2858
     29 O          22.6440   73.7258    0.3084 O.3     1  UNL1       -0.3258
     30 O          23.4858   71.1862    3.4536 O.3     1  UNL1       -0.3794
     31 O          20.7796   72.0347    3.0015 O.3     1  UNL1       -0.3794
     32 O          24.9904   70.9806    0.9891 O.3     1  UNL1       -0.3775
     33 C          22.9672   71.5421    2.1692 C.3     1  UNL1        0.1715
     34 C          21.9073   72.6281    2.3641 C.3     1  UNL1        0.1694
     35 C          24.1092   72.0561    1.2946 C.3     1  UNL1        0.1967
     36 C          21.4971   73.2491    1.0220 C.3     1  UNL1        0.1761
     37 C          23.5897   72.6979    0.0069 C.3     1  UNL1        0.2704
     38 H          22.7658   70.8585    4.0137 H       1  UNL1        0.2105
     39 H          21.0523   71.6459    3.8474 H       1  UNL1        0.2105
     40 H          25.3126   70.5829    1.8125 H       1  UNL1        0.2106
     41 O          21.2974   75.5115    1.7640 O.3     1  UNL1       -0.3794
     42 C          20.5592   74.4402    1.2057 C.3     1  UNL1        0.1693
     43 H          20.7133   76.2767    1.8864 H       1  UNL1        0.2105
@<TRIPOS>UNITY_ATOM_ATTR
2 1
charge -1
26 1
charge -1
@<TRIPOS>BOND
     1    25    28    1
     2    25    24    1
     3    25    26    1
     4    25    27    2
     5     1     4    1
     6     1    24    1
     7     1     2    1
     8     1     3    2
     9     6    11    1
    10     6    12    1
    11    29    36    1
    12    29    37    1
    13     7     9    1
    14     7    13    1
    15     8    10    1
    16     8    14    1
    17    28    37    1
    18     4     5    1
    19    30    33    1
    20    30    38    1
    21    31    34    1
    22    31    39    1
    23    32    35    1
    24    32    40    1
    25    41    42    1
    26    41    43    1
    27    15    19    2
    28    16    22    2
    29    17    12    1
    30    17    19   ar
    31    17    20   ar
    32    18    19   ar
    33    18    22   ar
    34    18    23    1
    35     9    10    1
    36     9    11    1
    37    10    12    1
    38    11     5    1
    39    33    34    1
    40    33    35    1
    41    34    36    1
    42    35    37    1
    43    36    42    1
    44    20    21   ar
    45    21    22   ar
@<TRIPOS>MOLECULE
*****
 43 45 0 0 0
SMALL
GASTEIGER

@<TRIPOS>ATOM
      1 P          22.5080   71.4480   -2.4017 P.3     1  UNL1        0.2189
      2 O          22.0046   72.6892   -3.3092 O.co2   1  UNL1       -0.4371
      3 O          23.9038   70.9783   -2.6886 O.2     1  UNL1       -0.5170
      4 O          21.3431   70.3393   -2.5796 O.3     1  UNL1       -0.3112
      5 C          20.6373   70.2911   -3.8073 C.3     1  UNL1        0.1811
      6 O          18.8280   71.5179   -4.8048 O.3     1  UNL1       -0.3308
      7 O          17.0970   70.3493   -2.6533 O.3     1  UNL1       -0.3794
      8 O          16.5050   68.7854   -4.8075 O.3     1  UNL1       -0.3779
      9 C          18.1917   69.7578   -3.3512 C.3     1  UNL1        0.1713
     10 C          17.7802   69.3926   -4.7622 C.3     1  UNL1        0.1895
     11 C          19.2340   70.8422   -3.5945 C.3     1  UNL1        0.1764
     12 C          17.8099   70.7426   -5.4585 C.3     1  UNL1        0.2383
     13 H          16.4185   69.6758   -2.4863 H       1  UNL1        0.2105
     14 H          16.5377   67.9299   -4.3516 H       1  UNL1        0.2106
     15 O          15.9071   70.3475   -7.5081 O.2     1  UNL1       -0.2464
     16 O          19.1582   70.3330  -10.7749 O.2     1  UNL1       -0.2670
     17 N          18.1314   70.6323   -6.8534 N.ar    1  UNL1       -0.2551
     18 N          17.5274   70.3408   -9.1331 N.ar    1  UNL1       -0.2743
     19 C          17.1012   70.4338   -7.8020 C.ar    1  UNL1        0.3323
     20 C          19.4556   70.7215   -7.2686 C.ar    1  UNL1        0.0869
     21 C          19.8456   70.6294   -8.5417 C.ar    1  UNL1        0.0795
     22 C          18.8314   70.4218   -9.5954 C.ar    1  UNL1        0.2626
     23 H          16.8272   70.2021   -9.8114 H       1  UNL1        0.1734
     24 O          22.2743   71.9819   -0.8940 O.3     1  UNL1       -0.2703
     25 P          23.1462   72.9877    0.0231 P.3     1  UNL1        0.2208
     26 O          23.1896   74.3463   -0.8544 O.co2   1  UNL1       -0.4371
     27 O          24.4963   72.4556    0.4078 O.2     1  UNL1       -0.5170
     28 O          22.1853   73.3392    1.2713 O.3     1  UNL1       -0.2858
     29 O          21.5884   75.3669    2.3430 O.3     1  UNL1       -0.3258
     30 O          22.0729   72.9771    5.6754 O.3     1  UNL1       -0.3794
     31 O          19.4315   73.7584    4.8628 O.3     1  UNL1       -0.3794
     32 O          23.8682   72.6942    3.4223 O.3     1  UNL1       -0.3775
     33 C          21.7098   73.2694    4.3234 C.3     1  UNL1        0.1715
     34 C          20.6210   74.3441    4.3409 C.3     1  UNL1        0.1694
     35 C          22.9433   73.7660    3.5715 C.3     1  UNL1        0.1967
     36 C          20.3693   74.9007    2.9331 C.3     1  UNL1        0.1761
     37 C          22.5763   74.3439    2.2035 C.3     1  UNL1        0.2704
     38 H          21.2943   72.6608    6.1583 H       1  UNL1        0.2105
     39 H          19.6041   73.4104    5.7518 H       1  UNL1        0.2105
     40 H          24.0928   72.3373    4.2953 H       1  UNL1        0.2106
     41 O          19.8813   77.0685    2.0548 O.3     1  UNL1       -0.3794
     42 C          19.4015   76.0819    2.9497 C.3     1  UNL1        0.1693
     43 H          19.2751   77.8263    2.0547 H       1  UNL1        0.2105
@<TRIPOS>UNITY_ATOM_ATTR
2 1
charge -1
26 1
charge -1
@<TRIPOS>BOND
     1    25    28    1
     2    25    24    1
     3    25    26    1
     4    25    27    2
     5     1     4    1
     6     1    24    1
     7     1     2    1
     8     1     3    2
     9     6    11    1
    10     6    12    1
    11    29    36    1
    12    29    37    1
    13     7     9    1
    14     7    13    1
    15     8    10    1
    16     8    14    1
    17    28    37    1
    18     4     5    1
    19    30    33    1
    20    30    38    1
    21    31    34    1
    22    31    39    1
    23    32    35    1
    24    32    40    1
    25    41    42    1
    26    41    43    1
    27    15    19    2
    28    16    22    2
    29    17    12    1
    30    17    19   ar
    31    17    20   ar
    32    18    19   ar
    33    18    22   ar
    34    18    23    1
    35     9    10    1
    36     9    11    1
    37    10    12    1
    38    11     5    1
    39    33    34    1
    40    33    35    1
    41    34    36    1
    42    35    37    1
    43    36    42    1
    44    20    21   ar
    45    21    22   ar
@<TRIPOS>MOLECULE
*****
 43 45 0 0 0
SMALL
GASTEIGER

@<TRIPOS>ATOM
      1 P          22.0965   71.4703   -2.9499 P.3     1  UNL1        0.2189
      2 O          21.7458   73.0360   -2.7430 O.co2   1  UNL1       -0.4371
      3 O          23.5301   71.1808   -3.2853 O.2     1  UNL1       -0.5170
      4 O          21.0060   70.9680   -4.0345 O.3     1  UNL1       -0.3112
      5 C          20.0746   69.9733   -3.6459 C.3     1  UNL1        0.1811
      6 O          18.4472   71.3527   -4.7517 O.3     1  UNL1       -0.3308
      7 O          16.4476   70.2060   -2.8341 O.3     1  UNL1       -0.3794
      8 O          15.9795   68.7747   -5.1076 O.3     1  UNL1       -0.3779
      9 C          17.5690   69.5766   -3.4518 C.3     1  UNL1        0.1713
     10 C          17.2774   69.2978   -4.9115 C.3     1  UNL1        0.1895
     11 C          18.6920   70.6023   -3.5420 C.3     1  UNL1        0.1764
     12 C          17.4547   70.6714   -5.5361 C.3     1  UNL1        0.2383
     13 H          15.7175   69.5701   -2.7652 H       1  UNL1        0.2105
     14 H          15.9170   67.9004   -4.6923 H       1  UNL1        0.2106
     15 O          15.7503   70.3484   -7.7652 O.2     1  UNL1       -0.2464
     16 O          19.2924   70.4090  -10.7133 O.2     1  UNL1       -0.2670
     17 N          17.9047   70.6000   -6.8977 N.ar    1  UNL1       -0.2551
     18 N          17.5154   70.3791   -9.2313 N.ar    1  UNL1       -0.2743
     19 C          16.9670   70.4358   -7.9437 C.ar    1  UNL1        0.3323
     20 C          19.2622   70.6928   -7.1846 C.ar    1  UNL1        0.0869
     21 C          19.7692   70.6356   -8.4179 C.ar    1  UNL1        0.0795
     22 C          18.8572   70.4653   -9.5673 C.ar    1  UNL1        0.2626
     23 H          16.8811   70.2646   -9.9759 H       1  UNL1        0.1734
     24 O          21.5782   70.7969   -1.5748 O.3     1  UNL1       -0.2703
     25 P          21.9095   71.1452   -0.0315 P.3     1  UNL1        0.2208
     26 O          23.4574   71.6133   -0.0808 O.co2   1  UNL1       -0.4371
     27 O          21.6323   70.0225    0.9259 O.2     1  UNL1       -0.5170
     28 O          21.0836   72.4991    0.2682 O.3     1  UNL1       -0.2858
     29 O          21.7556   74.7388    0.6535 O.3     1  UNL1       -0.3258
     30 O          18.7387   74.4632    3.4594 O.3     1  UNL1       -0.3794
     31 O          18.3252   76.0188    1.0810 O.3     1  UNL1       -0.3794
     32 O          20.4894   72.2051    2.9950 O.3     1  UNL1       -0.3775
     33 C          19.3862   74.1979    2.2121 C.3     1  UNL1        0.1715
     34 C          19.5995   75.5297    1.4898 C.3     1  UNL1        0.1694
     35 C          20.7242   73.5114    2.4803 C.3     1  UNL1        0.1967
     36 C          20.5214   75.3594    0.2748 C.3     1  UNL1        0.1761
     37 C          21.5841   73.4371    1.2173 C.3     1  UNL1        0.2704
     38 H          17.8883   74.8986    3.2962 H       1  UNL1        0.2105
     39 H          17.7526   76.1214    1.8574 H       1  UNL1        0.2105
     40 H          19.9444   72.2658    3.7945 H       1  UNL1        0.2106
     41 O          21.4096   76.4533   -1.6549 O.3     1  UNL1       -0.3794
     42 C          20.8745   76.6992   -0.3674 C.3     1  UNL1        0.1693
     43 H          21.6386   77.2972   -2.0757 H       1  UNL1        0.2105
@<TRIPOS>UNITY_ATOM_ATTR
2 1
charge -1
26 1
charge -1
@<TRIPOS>BOND
     1    25    28    1
     2    25    24    1
     3    25    26    1
     4    25    27    2
     5     1     4    1
     6     1    24    1
     7     1     2    1
     8     1     3    2
     9     6    11    1
    10     6    12    1
    11    29    36    1
    12    29    37    1
    13     7     9    1
    14     7    13    1
    15     8    10    1
    16     8    14    1
    17    28    37    1
    18     4     5    1
    19    30    33    1
    20    30    38    1
    21    31    34    1
    22    31    39    1
    23    32    35    1
    24    32    40    1
    25    41    42    1
    26    41    43    1
    27    15    19    2
    28    16    22    2
    29    17    12    1
    30    17    19   ar
    31    17    20   ar
    32    18    19   ar
    33    18    22   ar
    34    18    23    1
    35     9    10    1
    36     9    11    1
    37    10    12    1
    38    11     5    1
    39    33    34    1
    40    33    35    1
    41    34    36    1
    42    35    37    1
    43    36    42    1
    44    20    21   ar
    45    21    22   ar
@<TRIPOS>MOLECULE
*****
 43 45 0 0 0
SMALL
GASTEIGER

@<TRIPOS>ATOM
      1 P          22.8360   72.5973   -3.7341 P.3     1  UNL1        0.2189
      2 O          22.3413   71.0842   -3.4454 O.co2   1  UNL1       -0.4371
      3 O          24.2218   72.7145   -4.2971 O.2     1  UNL1       -0.5170
      4 O          22.5799   73.3638   -2.3324 O.3     1  UNL1       -0.3112
      5 C          21.5746   74.3610   -2.2809 C.3     1  UNL1        0.1811
      6 O          20.8679   72.6561   -0.7422 O.3     1  UNL1       -0.3308
      7 O          18.7695   74.6000    0.1569 O.3     1  UNL1       -0.3794
      8 O          20.6584   74.8181    2.1117 O.3     1  UNL1       -0.3779
      9 C          20.1118   74.8490   -0.2572 C.3     1  UNL1        0.1713
     10 C          21.0832   74.4221    0.8235 C.3     1  UNL1        0.1895
     11 C          20.4429   73.8783   -1.3839 C.3     1  UNL1        0.1764
     12 C          21.1017   72.9127    0.6522 C.3     1  UNL1        0.2383
     13 H          18.5350   75.2084    0.8759 H       1  UNL1        0.2105
     14 H          20.6636   75.7862    2.1707 H       1  UNL1        0.2106
     15 O          21.5414   70.1467    1.0183 O.2     1  UNL1       -0.2464
     16 O          25.9735   70.8076    2.0958 O.2     1  UNL1       -0.2670
     17 N          22.3609   72.3343    1.0281 N.ar    1  UNL1       -0.2551
     18 N          23.7479   70.4780    1.5543 N.ar    1  UNL1       -0.2743
     19 C          22.4753   70.9335    1.1868 C.ar    1  UNL1        0.3323
     20 C          23.4656   73.1533    1.2349 C.ar    1  UNL1        0.0869
     21 C          24.6719   72.7034    1.5864 C.ar    1  UNL1        0.0795
     22 C          24.8764   71.2524    1.7727 C.ar    1  UNL1        0.2626
     23 H          23.8513   69.5057    1.6710 H       1  UNL1        0.1734
     24 O          21.6705   73.1850   -4.6877 O.3     1  UNL1       -0.2703
     25 P          21.4897   73.1408   -6.2934 P.3     1  UNL1        0.2208
     26 O          22.6118   72.0744   -6.7639 O.co2   1  UNL1       -0.4371
     27 O          21.5911   74.4816   -6.9612 O.2     1  UNL1       -0.5170
     28 O          20.0840   72.3825   -6.5255 O.3     1  UNL1       -0.2858
     29 O          19.4249   70.2336   -5.7742 O.3     1  UNL1       -0.3258
     30 O          17.3987   70.3252   -9.3710 O.3     1  UNL1       -0.3794
     31 O          15.9347   70.5683   -6.9122 O.3     1  UNL1       -0.3794
     32 O          20.0512   71.4683   -9.1785 O.3     1  UNL1       -0.3775
     33 C          17.9461   70.8750   -8.1695 C.3     1  UNL1        0.1715
     34 C          17.2995   70.1643   -6.9789 C.3     1  UNL1        0.1694
     35 C          19.4586   70.6611   -8.1667 C.3     1  UNL1        0.1967
     36 C          18.0228   70.5073   -5.6696 C.3     1  UNL1        0.1761
     37 C          20.0722   70.9847   -6.8032 C.3     1  UNL1        0.2704
     38 H          16.4386   70.4581   -9.3793 H       1  UNL1        0.2105
     39 H          15.4895   70.3465   -7.7452 H       1  UNL1        0.2105
     40 H          19.6546   71.2537  -10.0367 H       1  UNL1        0.2106
     41 O          16.6657   68.6587   -4.9988 O.3     1  UNL1       -0.3794
     42 C          17.4951   69.6887   -4.4933 C.3     1  UNL1        0.1693
     43 H          16.3228   68.1293   -4.2613 H       1  UNL1        0.2105
@<TRIPOS>UNITY_ATOM_ATTR
2 1
charge -1
26 1
charge -1
@<TRIPOS>BOND
     1    25    28    1
     2    25    24    1
     3    25    26    1
     4    25    27    2
     5     1     4    1
     6     1    24    1
     7     1     2    1
     8     1     3    2
     9     6    11    1
    10     6    12    1
    11    29    36    1
    12    29    37    1
    13     7     9    1
    14     7    13    1
    15     8    10    1
    16     8    14    1
    17    28    37    1
    18     4     5    1
    19    30    33    1
    20    30    38    1
    21    31    34    1
    22    31    39    1
    23    32    35    1
    24    32    40    1
    25    41    42    1
    26    41    43    1
    27    15    19    2
    28    16    22    2
    29    17    12    1
    30    17    19   ar
    31    17    20   ar
    32    18    19   ar
    33    18    22   ar
    34    18    23    1
    35     9    10    1
    36     9    11    1
    37    10    12    1
    38    11     5    1
    39    33    34    1
    40    33    35    1
    41    34    36    1
    42    35    37    1
    43    36    42    1
    44    20    21   ar
    45    21    22   ar
@<TRIPOS>MOLECULE
*****
 43 45 0 0 0
SMALL
GASTEIGER

@<TRIPOS>ATOM
      1 P          20.5427   73.8306   -2.5706 P.3     1  UNL1        0.2189
      2 O          20.3270   74.7494   -1.2566 O.co2   1  UNL1       -0.4371
      3 O          21.1356   74.5421   -3.7512 O.2     1  UNL1       -0.5170
      4 O          19.0933   73.1537   -2.8134 O.3     1  UNL1       -0.3112
      5 C          18.6054   73.0583   -4.1403 C.3     1  UNL1        0.1811
      6 O          16.8336   72.1588   -5.4914 O.3     1  UNL1       -0.3308
      7 O          16.0229   70.6021   -3.0603 O.3     1  UNL1       -0.3794
      8 O          17.3604   68.7415   -4.5388 O.3     1  UNL1       -0.3779
      9 C          17.3299   70.9472   -3.5162 C.3     1  UNL1        0.1713
     10 C          17.7105   70.0995   -4.7122 C.3     1  UNL1        0.1895
     11 C          17.2617   72.3426   -4.1241 C.3     1  UNL1        0.1764
     12 C          16.9296   70.7661   -5.8321 C.3     1  UNL1        0.2383
     13 H          16.0414   69.7147   -2.6676 H       1  UNL1        0.2105
     14 H          17.8839   68.3624   -3.8156 H       1  UNL1        0.2106
     15 O          15.5849   70.6860   -8.3146 O.2     1  UNL1       -0.2464
     16 O          19.5376   70.2837  -10.6503 O.2     1  UNL1       -0.2670
     17 N          17.5826   70.6413   -7.1046 N.ar    1  UNL1       -0.2551
     18 N          17.5541   70.4859   -9.4756 N.ar    1  UNL1       -0.2743
     19 C          16.8150   70.6098   -8.2922 C.ar    1  UNL1        0.3323
     20 C          18.9690   70.5521   -7.1663 C.ar    1  UNL1        0.0869
     21 C          19.6586   70.4331   -8.3028 C.ar    1  UNL1        0.0795
     22 C          18.9322   70.3925   -9.5884 C.ar    1  UNL1        0.2626
     23 H          17.0405   70.4614  -10.3155 H       1  UNL1        0.1734
     24 O          21.4295   72.5999   -2.0120 O.3     1  UNL1       -0.2703
     25 P          21.1457   71.5399   -0.8250 P.3     1  UNL1        0.2208
     26 O          22.5535   70.7551   -0.6841 O.co2   1  UNL1       -0.4371
     27 O          19.9615   70.6491   -1.0656 O.2     1  UNL1       -0.5170
     28 O          21.0452   72.4399    0.5110 O.3     1  UNL1       -0.2858
     29 O          23.2642   73.0041    1.1229 O.3     1  UNL1       -0.3258
     30 O          21.2433   74.7871    4.2515 O.3     1  UNL1       -0.3794
     31 O          22.4224   76.4249    2.2082 O.3     1  UNL1       -0.3794
     32 O          20.3468   72.2348    3.2212 O.3     1  UNL1       -0.3775
     33 C          21.4365   74.3587    2.9008 C.3     1  UNL1        0.1715
     34 C          22.6974   75.0350    2.3589 C.3     1  UNL1        0.1694
     35 C          21.5886   72.8390    2.8759 C.3     1  UNL1        0.1967
     36 C          23.1194   74.4250    1.0154 C.3     1  UNL1        0.1761
     37 C          22.0586   72.3406    1.5082 C.3     1  UNL1        0.2704
     38 H          21.1456   75.7511    4.2742 H       1  UNL1        0.2105
     39 H          22.1566   76.7978    3.0635 H       1  UNL1        0.2105
     40 H          20.0602   72.5581    4.0890 H       1  UNL1        0.2106
     41 O          24.2279   76.1958   -0.1442 O.3     1  UNL1       -0.3794
     42 C          24.4602   74.9748    0.5337 C.3     1  UNL1        0.1693
     43 H          25.0726   76.5575   -0.4562 H       1  UNL1        0.2105
@<TRIPOS>UNITY_ATOM_ATTR
2 1
charge -1
26 1
charge -1
@<TRIPOS>BOND
     1    25    28    1
     2    25    24    1
     3    25    26    1
     4    25    27    2
     5     1     4    1
     6     1    24    1
     7     1     2    1
     8     1     3    2
     9     6    11    1
    10     6    12    1
    11    29    36    1
    12    29    37    1
    13     7     9    1
    14     7    13    1
    15     8    10    1
    16     8    14    1
    17    28    37    1
    18     4     5    1
    19    30    33    1
    20    30    38    1
    21    31    34    1
    22    31    39    1
    23    32    35    1
    24    32    40    1
    25    41    42    1
    26    41    43    1
    27    15    19    2
    28    16    22    2
    29    17    12    1
    30    17    19   ar
    31    17    20   ar
    32    18    19   ar
    33    18    22   ar
    34    18    23    1
    35     9    10    1
    36     9    11    1
    37    10    12    1
    38    11     5    1
    39    33    34    1
    40    33    35    1
    41    34    36    1
    42    35    37    1
    43    36    42    1
    44    20    21   ar
    45    21    22   ar
@<TRIPOS>MOLECULE
*****
 43 45 0 0 0
SMALL
GASTEIGER

@<TRIPOS>ATOM
      1 P          21.9062   72.4510   -5.7495 P.3     1  UNL1        0.2189
      2 O          21.0594   73.7976   -5.4549 O.co2   1  UNL1       -0.4371
      3 O          23.1717   72.6559   -6.5293 O.2     1  UNL1       -0.5170
      4 O          20.8243   71.4498   -6.4165 O.3     1  UNL1       -0.3112
      5 C          20.0920   71.8992   -7.5433 C.3     1  UNL1        0.1811
      6 O          18.8166   69.9009   -7.1510 O.3     1  UNL1       -0.3308
      7 O          18.0534   70.0436  -10.0472 O.3     1  UNL1       -0.3794
      8 O          15.8451   71.0466   -8.8004 O.3     1  UNL1       -0.3779
      9 C          18.2555   71.1038   -9.1141 C.3     1  UNL1        0.1713
     10 C          17.0914   71.1835   -8.1486 C.3     1  UNL1        0.1895
     11 C          19.4043   70.7075   -8.1952 C.3     1  UNL1        0.1764
     12 C          17.3866   70.0313   -7.2034 C.3     1  UNL1        0.2383
     13 H          17.3244   70.2740  -10.6451 H       1  UNL1        0.2105
     14 H          15.7036   71.8036   -9.3901 H       1  UNL1        0.2106
     15 O          16.2596   68.0466   -5.5393 O.2     1  UNL1       -0.2464
     16 O          15.5179   71.0631   -2.1346 O.2     1  UNL1       -0.2670
     17 N          16.8912   70.2702   -5.8772 N.ar    1  UNL1       -0.2551
     18 N          15.8914   69.5502   -3.8453 N.ar    1  UNL1       -0.2743
     19 C          16.3436   69.2047   -5.1253 C.ar    1  UNL1        0.3323
     20 C          16.9515   71.5493   -5.3349 C.ar    1  UNL1        0.0869
     21 C          16.5147   71.8625   -4.1132 C.ar    1  UNL1        0.0795
     22 C          15.9284   70.8069   -3.2623 C.ar    1  UNL1        0.2626
     23 H          15.5055   68.8241   -3.3034 H       1  UNL1        0.1734
     24 O          22.1189   71.8253   -4.2743 O.3     1  UNL1       -0.2703
     25 P          23.3251   71.9976   -3.2120 P.3     1  UNL1        0.2208
     26 O          23.9734   73.4241   -3.6147 O.co2   1  UNL1       -0.4371
     27 O          24.3002   70.8562   -3.1977 O.2     1  UNL1       -0.5170
     28 O          22.5907   72.2676   -1.8003 O.3     1  UNL1       -0.2858
     29 O          22.5636   74.0461   -0.2341 O.3     1  UNL1       -0.3258
     30 O          22.9505   70.8719    2.3785 O.3     1  UNL1       -0.3794
     31 O          20.4484   72.2714    2.2082 O.3     1  UNL1       -0.3794
     32 O          24.3561   70.8389   -0.1518 O.3     1  UNL1       -0.3775
     33 C          22.4917   71.5420    1.2013 C.3     1  UNL1        0.1715
     34 C          21.6596   72.7517    1.6316 C.3     1  UNL1        0.1694
     35 C          23.6988   71.9856    0.3769 C.3     1  UNL1        0.1967
     36 C          21.3568   73.6684    0.4387 C.3     1  UNL1        0.1761
     37 C          23.2933   72.9328   -0.7538 C.3     1  UNL1        0.2704
     38 H          22.1889   70.5873    2.9062 H       1  UNL1        0.2105
     39 H          20.6536   71.6935    2.9600 H       1  UNL1        0.2105
     40 H          24.6079   70.2474    0.5738 H       1  UNL1        0.2106
     41 O          19.3099   74.6666    1.1618 O.3     1  UNL1       -0.3794
     42 C          20.6642   74.9591    0.8705 C.3     1  UNL1        0.1693
     43 H          18.8566   75.4788    1.4384 H       1  UNL1        0.2105
@<TRIPOS>UNITY_ATOM_ATTR
2 1
charge -1
26 1
charge -1
@<TRIPOS>BOND
     1    25    28    1
     2    25    24    1
     3    25    26    1
     4    25    27    2
     5     1     4    1
     6     1    24    1
     7     1     2    1
     8     1     3    2
     9     6    11    1
    10     6    12    1
    11    29    36    1
    12    29    37    1
    13     7     9    1
    14     7    13    1
    15     8    10    1
    16     8    14    1
    17    28    37    1
    18     4     5    1
    19    30    33    1
    20    30    38    1
    21    31    34    1
    22    31    39    1
    23    32    35    1
    24    32    40    1
    25    41    42    1
    26    41    43    1
    27    15    19    2
    28    16    22    2
    29    17    12    1
    30    17    19   ar
    31    17    20   ar
    32    18    19   ar
    33    18    22   ar
    34    18    23    1
    35     9    10    1
    36     9    11    1
    37    10    12    1
    38    11     5    1
    39    33    34    1
    40    33    35    1
    41    34    36    1
    42    35    37    1
    43    36    42    1
    44    20    21   ar
    45    21    22   ar
@<TRIPOS>MOLECULE
*****
 43 45 0 0 0
SMALL
GASTEIGER

@<TRIPOS>ATOM
      1 P          15.1629   71.5454   -2.3129 P.3     1  UNL1        0.2189
      2 O          16.3454   72.3657   -1.5737 O.co2   1  UNL1       -0.4371
      3 O          14.4870   72.2796   -3.4335 O.2     1  UNL1       -0.5170
      4 O          14.2007   71.0738   -1.1007 O.3     1  UNL1       -0.3112
      5 C          14.4984   69.8591   -0.4346 C.3     1  UNL1        0.1811
      6 O          13.2852   68.0259    0.5357 O.3     1  UNL1       -0.3308
      7 O          11.0714   68.7323   -1.3592 O.3     1  UNL1       -0.3794
      8 O          10.2181   69.8291    0.9872 O.3     1  UNL1       -0.3779
      9 C          11.9794   69.5917   -0.6720 C.3     1  UNL1        0.1713
     10 C          11.6102   69.6824    0.7940 C.3     1  UNL1        0.1895
     11 C          13.3335   68.8956   -0.6165 C.3     1  UNL1        0.1764
     12 C          12.1398   68.3651    1.3344 C.3     1  UNL1        0.2383
     13 H          10.1994   69.1557   -1.4075 H       1  UNL1        0.2105
     14 H           9.9296   70.6822    0.6269 H       1  UNL1        0.2106
     15 O          13.9986   66.6380    2.5755 O.2     1  UNL1       -0.2464
     16 O          13.6040   68.8191    6.6164 O.2     1  UNL1       -0.2670
     17 N          12.5415   68.4591    2.7096 N.ar    1  UNL1       -0.2551
     18 N          13.8008   67.7256    4.5865 N.ar    1  UNL1       -0.2743
     19 C          13.4810   67.5417    3.2352 C.ar    1  UNL1        0.3323
     20 C          12.0058   69.4528    3.5216 C.ar    1  UNL1        0.0869
     21 C          12.3202   69.6139    4.8087 C.ar    1  UNL1        0.0795
     22 C          13.2943   68.6971    5.4352 C.ar    1  UNL1        0.2626
     23 H          14.4529   67.0979    4.9745 H       1  UNL1        0.1734
     24 O          15.8932   70.1720   -2.7525 O.3     1  UNL1       -0.2703
     25 P          17.2569   69.9128   -3.5809 P.3     1  UNL1        0.2208
     26 O          17.3688   68.2992   -3.6160 O.co2   1  UNL1       -0.4371
     27 O          18.4624   70.6050   -3.0138 O.2     1  UNL1       -0.5170
     28 O          16.8985   70.3296   -5.0984 O.3     1  UNL1       -0.2858
     29 O          18.6742   71.3849   -6.2602 O.3     1  UNL1       -0.3258
     30 O          15.5805   72.2541   -8.8533 O.3     1  UNL1       -0.3794
     31 O          17.5464   70.2971   -9.5970 O.3     1  UNL1       -0.3794
     32 O          15.1286   72.3144   -5.9947 O.3     1  UNL1       -0.3775
     33 C          16.3080   71.4593   -7.9128 C.3     1  UNL1        0.1715
     34 C          17.6971   71.1833   -8.4914 C.3     1  UNL1        0.1694
     35 C          16.4167   72.2217   -6.5936 C.3     1  UNL1        0.1967
     36 C          18.6247   70.5674   -7.4354 C.3     1  UNL1        0.1761
     37 C          17.4009   71.5514   -5.6334 C.3     1  UNL1        0.2704
     38 H          15.5074   71.7756   -9.6930 H       1  UNL1        0.2105
     39 H          16.9582   70.6977  -10.2562 H       1  UNL1        0.2105
     40 H          14.5149   72.7408   -6.6123 H       1  UNL1        0.2106
     41 O          20.0959   69.3923   -8.9064 O.3     1  UNL1       -0.3794
     42 C          20.0582   70.4296   -7.9436 C.3     1  UNL1        0.1693
     43 H          21.0021   69.2935   -9.2389 H       1  UNL1        0.2105
@<TRIPOS>UNITY_ATOM_ATTR
2 1
charge -1
26 1
charge -1
@<TRIPOS>BOND
     1    25    28    1
     2    25    24    1
     3    25    26    1
     4    25    27    2
     5     1     4    1
     6     1    24    1
     7     1     2    1
     8     1     3    2
     9     6    11    1
    10     6    12    1
    11    29    36    1
    12    29    37    1
    13     7     9    1
    14     7    13    1
    15     8    10    1
    16     8    14    1
    17    28    37    1
    18     4     5    1
    19    30    33    1
    20    30    38    1
    21    31    34    1
    22    31    39    1
    23    32    35    1
    24    32    40    1
    25    41    42    1
    26    41    43    1
    27    15    19    2
    28    16    22    2
    29    17    12    1
    30    17    19   ar
    31    17    20   ar
    32    18    19   ar
    33    18    22   ar
    34    18    23    1
    35     9    10    1
    36     9    11    1
    37    10    12    1
    38    11     5    1
    39    33    34    1
    40    33    35    1
    41    34    36    1
    42    35    37    1
    43    36    42    1
    44    20    21   ar
    45    21    22   ar
@<TRIPOS>MOLECULE
*****
 43 45 0 0 0
SMALL
GASTEIGER

@<TRIPOS>ATOM
      1 P          21.3402   71.1042   -0.2786 P.3     1  UNL1        0.2189
      2 O          20.0155   70.7405   -1.1331 O.co2   1  UNL1       -0.4371
      3 O          21.5690   70.2470    0.9315 O.2     1  UNL1       -0.5170
      4 O          21.1981   72.6915    0.0014 O.3     1  UNL1       -0.3112
      5 C          21.4919   73.1780    1.2994 C.3     1  UNL1        0.1811
      6 O          22.5711   75.0438    2.3615 O.3     1  UNL1       -0.3308
      7 O          24.9400   74.4172    0.6334 O.3     1  UNL1       -0.3794
      8 O          25.6526   73.3363    3.0334 O.3     1  UNL1       -0.3779
      9 C          24.0117   73.5261    1.2494 C.3     1  UNL1        0.1713
     10 C          24.2746   73.4398    2.7383 C.3     1  UNL1        0.1895
     11 C          22.6357   74.1787    1.2066 C.3     1  UNL1        0.1764
     12 C          23.6647   74.7371    3.2417 C.3     1  UNL1        0.2383
     13 H          25.8263   74.0219    0.6485 H       1  UNL1        0.2105
     14 H          25.9939   72.4945    2.6932 H       1  UNL1        0.2106
     15 O          22.5088   72.3971    4.3216 O.2     1  UNL1       -0.2464
     16 O          21.7842   74.4174    8.4002 O.2     1  UNL1       -0.2670
     17 N          23.1659   74.6235    4.5832 N.ar    1  UNL1       -0.2551
     18 N          22.1491   73.4049    6.3516 N.ar    1  UNL1       -0.2743
     19 C          22.6033   73.4040    5.0266 C.ar    1  UNL1        0.3323
     20 C          23.2376   75.7136    5.4437 C.ar    1  UNL1        0.0869
     21 C          22.7987   75.6985    6.7041 C.ar    1  UNL1        0.0795
     22 C          22.1971   74.4629    7.2455 C.ar    1  UNL1        0.2626
     23 H          21.7529   72.5662    6.6823 H       1  UNL1        0.1734
     24 O          22.5168   71.0343   -1.3848 O.3     1  UNL1       -0.2703
     25 P          22.9968   72.1085   -2.4933 P.3     1  UNL1        0.2208
     26 O          24.1107   71.2957   -3.3396 O.co2   1  UNL1       -0.4371
     27 O          23.4814   73.4089   -1.9207 O.2     1  UNL1       -0.5170
     28 O          21.7417   72.2466   -3.4986 O.3     1  UNL1       -0.2858
     29 O          20.2902   70.6558   -4.4880 O.3     1  UNL1       -0.3258
     30 O          20.8071   73.1759   -7.7179 O.3     1  UNL1       -0.3794
     31 O          18.2978   73.1574   -6.3212 O.3     1  UNL1       -0.3794
     32 O          23.0365   72.6023   -5.9628 O.3     1  UNL1       -0.3775
     33 C          20.6689   72.8433   -6.3339 C.3     1  UNL1        0.1715
     34 C          19.3090   72.1708   -6.1358 C.3     1  UNL1        0.1694
     35 C          21.7997   71.8981   -5.9323 C.3     1  UNL1        0.1967
     36 C          19.1975   71.5475   -4.7379 C.3     1  UNL1        0.1761
     37 C          21.5666   71.2957   -4.5456 C.3     1  UNL1        0.2704
     38 H          20.0924   73.7763   -7.9792 H       1  UNL1        0.2105
     39 H          18.3796   73.5434   -7.2075 H       1  UNL1        0.2105
     40 H          23.1725   72.9786   -6.8458 H       1  UNL1        0.2106
     41 O          17.4653   70.3408   -5.8569 O.3     1  UNL1       -0.3794
     42 C          17.9137   70.7369   -4.5738 C.3     1  UNL1        0.1693
     43 H          16.6490   69.8237   -5.7680 H       1  UNL1        0.2105
@<TRIPOS>UNITY_ATOM_ATTR
2 1
charge -1
26 1
charge -1
@<TRIPOS>BOND
     1    25    28    1
     2    25    24    1
     3    25    26    1
     4    25    27    2
     5     1     4    1
     6     1    24    1
     7     1     2    1
     8     1     3    2
     9     6    11    1
    10     6    12    1
    11    29    36    1
    12    29    37    1
    13     7     9    1
    14     7    13    1
    15     8    10    1
    16     8    14    1
    17    28    37    1
    18     4     5    1
    19    30    33    1
    20    30    38    1
    21    31    34    1
    22    31    39    1
    23    32    35    1
    24    32    40    1
    25    41    42    1
    26    41    43    1
    27    15    19    2
    28    16    22    2
    29    17    12    1
    30    17    19   ar
    31    17    20   ar
    32    18    19   ar
    33    18    22   ar
    34    18    23    1
    35     9    10    1
    36     9    11    1
    37    10    12    1
    38    11     5    1
    39    33    34    1
    40    33    35    1
    41    34    36    1
    42    35    37    1
    43    36    42    1
    44    20    21   ar
    45    21    22   ar
@<TRIPOS>MOLECULE
*****
 43 45 0 0 0
SMALL
GASTEIGER

@<TRIPOS>ATOM
      1 P          19.8065   72.3083   -2.9959 P.3     1  UNL1        0.2189
      2 O          18.8687   73.6050   -3.2337 O.co2   1  UNL1       -0.4371
      3 O          19.0861   70.9923   -3.0188 O.2     1  UNL1       -0.5170
      4 O          20.6024   72.6500   -1.6293 O.3     1  UNL1       -0.3112
      5 C          20.2885   73.8512   -0.9463 C.3     1  UNL1        0.1811
      6 O          20.2749   72.3622    0.9395 O.3     1  UNL1       -0.3308
      7 O          18.6452   74.4529    2.3410 O.3     1  UNL1       -0.3794
      8 O          21.1392   74.8563    3.3675 O.3     1  UNL1       -0.3779
      9 C          19.7152   74.6160    1.4116 C.3     1  UNL1        0.1713
     10 C          21.0397   74.2976    2.0734 C.3     1  UNL1        0.1895
     11 C          19.6055   73.5088    0.3707 C.3     1  UNL1        0.1764
     12 C          21.0256   72.7786    2.0918 C.3     1  UNL1        0.2383
     13 H          18.6941   75.1490    3.0155 H       1  UNL1        0.2105
     14 H          21.1443   75.8240    3.3026 H       1  UNL1        0.2106
     15 O          21.6119   70.2103    1.0729 O.2     1  UNL1       -0.2464
     16 O          26.1245   70.7307    1.8524 O.2     1  UNL1       -0.2670
     17 N          22.3451   72.2177    2.0163 N.ar    1  UNL1       -0.2551
     18 N          23.8584   70.4716    1.4617 N.ar    1  UNL1       -0.2743
     19 C          22.5312   70.9188    1.4884 C.ar    1  UNL1        0.3323
     20 C          23.4375   72.9536    2.4623 C.ar    1  UNL1        0.0869
     21 C          24.6967   72.5123    2.4311 C.ar    1  UNL1        0.0795
     22 C          24.9776   71.1650    1.8944 C.ar    1  UNL1        0.2626
     23 H          24.0122   69.5693    1.0984 H       1  UNL1        0.1734
     24 O          20.9463   72.4711   -4.1305 O.3     1  UNL1       -0.2703
     25 P          20.9064   73.1842   -5.5807 P.3     1  UNL1        0.2208
     26 O          22.2527   72.6439   -6.2969 O.co2   1  UNL1       -0.4371
     27 O          20.7905   74.6800   -5.5279 O.2     1  UNL1       -0.5170
     28 O          19.7035   72.4474   -6.3651 O.3     1  UNL1       -0.2858
     29 O          18.8631   70.2410   -6.1603 O.3     1  UNL1       -0.3258
     30 O          18.4555   70.7261  -10.2406 O.3     1  UNL1       -0.3794
     31 O          16.1185   70.7334   -8.5714 O.3     1  UNL1       -0.3794
     32 O          20.7698   71.8107   -8.8817 O.3     1  UNL1       -0.3775
     33 C          18.4557   71.1429   -8.8726 C.3     1  UNL1        0.1715
     34 C          17.4061   70.3218   -8.1209 C.3     1  UNL1        0.1694
     35 C          19.8446   70.9113   -8.2804 C.3     1  UNL1        0.1967
     36 C          17.5300   70.5196   -6.6041 C.3     1  UNL1        0.1761
     37 C          19.8469   71.0857   -6.7606 C.3     1  UNL1        0.2704
     38 H          17.5765   70.8709  -10.6227 H       1  UNL1        0.2105
     39 H          16.0535   70.6038   -9.5306 H       1  UNL1        0.2105
     40 H          20.7591   71.6903   -9.8435 H       1  UNL1        0.2106
     41 O          15.5314   69.2124   -6.6782 O.3     1  UNL1       -0.3794
     42 C          16.5983   69.5912   -5.8283 C.3     1  UNL1        0.1693
     43 H          14.9304   68.6210   -6.1978 H       1  UNL1        0.2105
@<TRIPOS>UNITY_ATOM_ATTR
2 1
charge -1
26 1
charge -1
@<TRIPOS>BOND
     1    25    28    1
     2    25    24    1
     3    25    26    1
     4    25    27    2
     5     1     4    1
     6     1    24    1
     7     1     2    1
     8     1     3    2
     9     6    11    1
    10     6    12    1
    11    29    36    1
    12    29    37    1
    13     7     9    1
    14     7    13    1
    15     8    10    1
    16     8    14    1
    17    28    37    1
    18     4     5    1
    19    30    33    1
    20    30    38    1
    21    31    34    1
    22    31    39    1
    23    32    35    1
    24    32    40    1
    25    41    42    1
    26    41    43    1
    27    15    19    2
    28    16    22    2
    29    17    12    1
    30    17    19   ar
    31    17    20   ar
    32    18    19   ar
    33    18    22   ar
    34    18    23    1
    35     9    10    1
    36     9    11    1
    37    10    12    1
    38    11     5    1
    39    33    34    1
    40    33    35    1
    41    34    36    1
    42    35    37    1
    43    36    42    1
    44    20    21   ar
    45    21    22   ar
@<TRIPOS>MOLECULE
*****
 43 45 0 0 0
SMALL
GASTEIGER

@<TRIPOS>ATOM
      1 P          19.7451   72.1069   -1.3481 P.3     1  UNL1        0.2189
      2 O          19.9983   70.5962   -0.8274 O.co2   1  UNL1       -0.4371
      3 O          18.5368   72.7826   -0.7693 O.2     1  UNL1       -0.5170
      4 O          19.7696   71.9713   -2.9602 O.3     1  UNL1       -0.3112
      5 C          19.1860   70.8232   -3.5511 C.3     1  UNL1        0.1811
      6 O          17.4644   71.6325   -5.0191 O.3     1  UNL1       -0.3308
      7 O          15.5402   70.1066   -3.2987 O.3     1  UNL1       -0.3794
      8 O          15.8466   68.4610   -5.4515 O.3     1  UNL1       -0.3779
      9 C          16.8735   69.7699   -3.6785 C.3     1  UNL1        0.1713
     10 C          16.9124   69.3303   -5.1272 C.3     1  UNL1        0.1895
     11 C          17.6901   71.0557   -3.7143 C.3     1  UNL1        0.1764
     12 C          16.8284   70.6576   -5.8617 C.3     1  UNL1        0.2383
     13 H          14.9996   69.3012   -3.2686 H       1  UNL1        0.2105
     14 H          15.9450   67.6310   -4.9593 H       1  UNL1        0.2106
     15 O          15.5196   70.5912   -8.3638 O.2     1  UNL1       -0.2464
     16 O          19.5161   70.5362  -10.6587 O.2     1  UNL1       -0.2670
     17 N          17.5024   70.6259   -7.1290 N.ar    1  UNL1       -0.2551
     18 N          17.5106   70.5641   -9.5044 N.ar    1  UNL1       -0.2743
     19 C          16.7518   70.5929   -8.3274 C.ar    1  UNL1        0.3323
     20 C          18.8922   70.6280   -7.1750 C.ar    1  UNL1        0.0869
     21 C          19.6008   70.5989   -8.3057 C.ar    1  UNL1        0.0795
     22 C          18.8931   70.5635   -9.6018 C.ar    1  UNL1        0.2626
     23 H          17.0091   70.5405  -10.3516 H       1  UNL1        0.1734
     24 O          21.1473   72.8429   -1.0240 O.3     1  UNL1       -0.2703
     25 P          22.6257   72.6299   -1.6422 P.3     1  UNL1        0.2208
     26 O          22.5979   71.0939   -2.1497 O.co2   1  UNL1       -0.4371
     27 O          23.7423   72.9475   -0.6902 O.2     1  UNL1       -0.5170
     28 O          22.6321   73.5069   -2.9971 O.3     1  UNL1       -0.2858
     29 O          23.3038   73.0261   -5.2185 O.3     1  UNL1       -0.3258
     30 O          24.7664   76.8750   -4.9052 O.3     1  UNL1       -0.3794
     31 O          22.4509   76.3655   -6.5260 O.3     1  UNL1       -0.3794
     32 O          24.9285   75.0799   -2.6401 O.3     1  UNL1       -0.3775
     33 C          23.8456   75.8074   -4.6647 C.3     1  UNL1        0.1715
     34 C          23.2934   75.3377   -6.0121 C.3     1  UNL1        0.1694
     35 C          24.5761   74.6681   -3.9564 C.3     1  UNL1        0.1967
     36 C          22.5080   74.0279   -5.8626 C.3     1  UNL1        0.1761
     37 C          23.7256   73.3977   -3.9047 C.3     1  UNL1        0.2704
     38 H          24.3088   77.6018   -5.3544 H       1  UNL1        0.2105
     39 H          22.9588   77.1873   -6.6151 H       1  UNL1        0.2105
     40 H          25.4669   75.8848   -2.6864 H       1  UNL1        0.2106
     41 O          23.2295   72.9457   -7.8669 O.3     1  UNL1       -0.3794
     42 C          22.0826   73.4586   -7.2143 C.3     1  UNL1        0.1693
     43 H          22.9739   72.5797   -8.7285 H       1  UNL1        0.2105
@<TRIPOS>UNITY_ATOM_ATTR
2 1
charge -1
26 1
charge -1
@<TRIPOS>BOND
     1    25    28    1
     2    25    24    1
     3    25    26    1
     4    25    27    2
     5     1     4    1
     6     1    24    1
     7     1     2    1
     8     1     3    2
     9     6    11    1
    10     6    12    1
    11    29    36    1
    12    29    37    1
    13     7     9    1
    14     7    13    1
    15     8    10    1
    16     8    14    1
    17    28    37    1
    18     4     5    1
    19    30    33    1
    20    30    38    1
    21    31    34    1
    22    31    39    1
    23    32    35    1
    24    32    40    1
    25    41    42    1
    26    41    43    1
    27    15    19    2
    28    16    22    2
    29    17    12    1
    30    17    19   ar
    31    17    20   ar
    32    18    19   ar
    33    18    22   ar
    34    18    23    1
    35     9    10    1
    36     9    11    1
    37    10    12    1
    38    11     5    1
    39    33    34    1
    40    33    35    1
    41    34    36    1
    42    35    37    1
    43    36    42    1
    44    20    21   ar
    45    21    22   ar
