@<TRIPOS>MOLECULE
UDP-glaA
 43 45 0 0 0
SMALL
GASTEIGER

@<TRIPOS>ATOM
      1 P          22.4509   71.5775   -2.9576 P.3     1  UNL1        0.2189
      2 O          22.1070   73.1339   -2.6807 O.3     1  UNL1       -0.4371
      3 O          23.8839   71.2979   -3.3045 O.2     1  UNL1       -0.5170
      4 O          21.3594   71.1279   -4.0631 O.3     1  UNL1       -0.3112
      5 C          20.4642   70.0766   -3.7427 C.3     1  UNL1        0.1811
      6 O          18.7213   71.3811   -4.7599 O.3     1  UNL1       -0.3308
      7 O          16.8853   70.1777   -2.7173 O.3     1  UNL1       -0.3794
      8 O          16.3401   68.7071   -4.9479 O.3     1  UNL1       -0.3779
      9 C          17.9927   69.5860   -3.3964 C.3     1  UNL1        0.1713
     10 C          17.6256   69.2814   -4.8334 C.3     1  UNL1        0.1895
     11 C          19.0671   70.6528   -3.5611 C.3     1  UNL1        0.1764
     12 C          17.7116   70.6539   -5.4790 C.3     1  UNL1        0.2383
     13 H          17.1788   70.3906   -1.8150 H       1  UNL1        0.2105
     14 H          16.3363   67.8904   -4.4195 H       1  UNL1        0.2106
     15 O          15.9029   70.1647   -7.5919 O.2     1  UNL1       -0.2464
     16 O          19.2457   70.4137  -10.7545 O.2     1  UNL1       -0.2670
     17 N          18.0818   70.5862   -6.8638 N.ar    1  UNL1       -0.2551
     18 N          17.5687   70.2885   -9.1653 N.ar    1  UNL1       -0.2743
     19 C          17.0965   70.3343   -7.8470 C.ar    1  UNL1        0.3323
     20 C          19.4090   70.7683   -7.2362 C.ar    1  UNL1        0.0869
     21 C          19.8433   70.7221   -8.4976 C.ar    1  UNL1        0.0795
     22 C          18.8785   70.4630   -9.5846 C.ar    1  UNL1        0.2626
     23 H          16.8781   70.1081   -9.8889 H       1  UNL1        0.1734
     24 O          21.9284   70.8463   -1.6131 O.3     1  UNL1       -0.2703
     25 P          21.2726   71.4496   -0.2645 P.3     1  UNL1        0.2208
     26 O          21.3017   70.1948    0.7557 O.3     1  UNL1       -0.4371
     27 O          19.9137   72.0588   -0.4595 O.2     1  UNL1       -0.5170
     28 O          22.3839   72.4689    0.3100 O.3     1  UNL1       -0.2858
     29 O          23.5312   71.7525    2.2516 O.3     1  UNL1       -0.3226
     30 O          24.6346   75.7531    2.0143 O.3     1  UNL1       -0.3794
     31 O          21.8929   74.9363    1.4473 O.3     1  UNL1       -0.3775
     32 O          25.3630   73.5584    3.5251 O.3     1  UNL1       -0.3792
     33 C          24.2715   74.4510    1.5638 C.3     1  UNL1        0.1718
     34 C          22.8646   74.0897    2.0522 C.3     1  UNL1        0.1968
     35 C          25.2882   73.4398    2.1006 C.3     1  UNL1        0.1723
     36 C          22.5327   72.6296    1.7200 C.3     1  UNL1        0.2706
     37 C          24.8384   72.0236    1.7483 C.3     1  UNL1        0.1830
     38 H          25.5306   75.9382    1.6848 H       1  UNL1        0.2105
     39 H          21.0203   74.6646    1.7783 H       1  UNL1        0.2106
     40 H          24.5591   73.1701    3.9100 H       1  UNL1        0.2106
     41 O          25.0230   69.9051    2.7392 O.co2   1  UNL1       -0.5466
     42 O          26.9416   71.1148    2.5103 O.co2   1  UNL1       -0.5466
     43 C          25.7337   70.9960    2.3644 C.2     1  UNL1        0.0799
@<TRIPOS>UNITY_ATOM_ATTR
41 1
charge -1
@<TRIPOS>BOND
     1     1     4    1
     2     1    24    1
     3     1     2    1
     4     1     3    2
     5    25    28    1
     6    25    24    1
     7    25    26    1
     8    25    27    2
     9     6    11    1
    10     6    12    1
    11    29    36    1
    12    29    37    1
    13     7     9    1
    14     7    13    1
    15     8    10    1
    16     8    14    1
    17     4     5    1
    18    28    36    1
    19    30    33    1
    20    30    38    1
    21    31    34    1
    22    31    39    1
    23    32    35    1
    24    32    40    1
    25    41    43   ar
    26    15    19    2
    27    42    43   ar
    28    16    22    2
    29    17    12    1
    30    17    19   ar
    31    17    20   ar
    32    18    19   ar
    33    18    22   ar
    34    18    23    1
    35     9    10    1
    36     9    11    1
    37    10    12    1
    38    11     5    1
    39    33    34    1
    40    33    35    1
    41    34    36    1
    42    35    37    1
    43    37    43    1
    44    20    21   ar
    45    21    22   ar
@<TRIPOS>MOLECULE
UDP-glaA
 43 45 0 0 0
SMALL
GASTEIGER

@<TRIPOS>ATOM
      1 P          20.8342   72.4348   -4.5703 P.3     1  UNL1        0.2189
      2 O          20.2341   73.0480   -3.1987 O.3     1  UNL1       -0.4371
      3 O          20.8299   73.3756   -5.7394 O.2     1  UNL1       -0.5170
      4 O          20.0121   71.0570   -4.7737 O.3     1  UNL1       -0.3112
      5 C          19.3055   70.5203   -3.6683 C.3     1  UNL1        0.1811
      6 O          17.6281   71.4463   -5.1185 O.3     1  UNL1       -0.3308
      7 O          15.6238   70.0281   -3.3972 O.3     1  UNL1       -0.3794
      8 O          15.8155   68.3851   -5.5650 O.3     1  UNL1       -0.3779
      9 C          16.9323   69.6132   -3.7888 C.3     1  UNL1        0.1713
     10 C          16.9346   69.1839   -5.2407 C.3     1  UNL1        0.1895
     11 C          17.8263   70.8459   -3.8195 C.3     1  UNL1        0.1764
     12 C          16.9284   70.5193   -5.9649 C.3     1  UNL1        0.2383
     13 H          15.6795   70.3302   -2.4746 H       1  UNL1        0.2105
     14 H          15.8341   67.6054   -4.9837 H       1  UNL1        0.2106
     15 O          15.6229   70.7612   -8.4574 O.2     1  UNL1       -0.2464
     16 O          19.5713   70.2599  -10.7806 O.2     1  UNL1       -0.2670
     17 N          17.5906   70.4564   -7.2365 N.ar    1  UNL1       -0.2551
     18 N          17.5898   70.5109   -9.6126 N.ar    1  UNL1       -0.2743
     19 C          16.8427   70.5886   -8.4298 C.ar    1  UNL1        0.3323
     20 C          18.9667   70.2654   -7.2927 C.ar    1  UNL1        0.0869
     21 C          19.6646   70.1941   -8.4284 C.ar    1  UNL1        0.0795
     22 C          18.9590   70.3216   -9.7189 C.ar    1  UNL1        0.2626
     23 H          17.0728   70.6027  -10.4829 H       1  UNL1        0.1734
     24 O          22.3013   71.9199   -4.1256 O.3     1  UNL1       -0.2703
     25 P          22.8835   71.4993   -2.6775 P.3     1  UNL1        0.2208
     26 O          24.2639   70.7380   -3.0395 O.3     1  UNL1       -0.4371
     27 O          21.9315   70.6928   -1.8415 O.2     1  UNL1       -0.5170
     28 O          23.3485   72.8900   -2.0041 O.3     1  UNL1       -0.2858
     29 O          22.3682   72.5594    0.1240 O.3     1  UNL1       -0.3226
     30 O          25.0294   75.6658    0.8641 O.3     1  UNL1       -0.3794
     31 O          23.4537   75.6176   -1.5896 O.3     1  UNL1       -0.3775
     32 O          23.4078   74.0129    2.3702 O.3     1  UNL1       -0.3792
     33 C          24.5157   74.4749    0.2740 C.3     1  UNL1        0.1718
     34 C          23.2103   74.7687   -0.4729 C.3     1  UNL1        0.1968
     35 C          24.2670   73.4428    1.3774 C.3     1  UNL1        0.1723
     36 C          22.5612   73.4689   -0.9643 C.3     1  UNL1        0.2706
     37 C          23.5842   72.2122    0.7846 C.3     1  UNL1        0.1830
     38 H          25.8522   75.4325    1.3270 H       1  UNL1        0.2105
     39 H          22.6029   75.7675   -2.0352 H       1  UNL1        0.2106
     40 H          22.5059   74.0563    2.0100 H       1  UNL1        0.2106
     41 O          22.1378   70.4927    1.4590 O.co2   1  UNL1       -0.5466
     42 O          23.7758   71.1049    2.9216 O.co2   1  UNL1       -0.5466
     43 C          23.2049   71.2313    1.8480 C.2     1  UNL1        0.0799
@<TRIPOS>UNITY_ATOM_ATTR
41 1
charge -1
@<TRIPOS>BOND
     1     1     4    1
     2     1    24    1
     3     1     2    1
     4     1     3    2
     5    25    28    1
     6    25    24    1
     7    25    26    1
     8    25    27    2
     9     6    11    1
    10     6    12    1
    11    29    36    1
    12    29    37    1
    13     7     9    1
    14     7    13    1
    15     8    10    1
    16     8    14    1
    17     4     5    1
    18    28    36    1
    19    30    33    1
    20    30    38    1
    21    31    34    1
    22    31    39    1
    23    32    35    1
    24    32    40    1
    25    41    43   ar
    26    15    19    2
    27    42    43   ar
    28    16    22    2
    29    17    12    1
    30    17    19   ar
    31    17    20   ar
    32    18    19   ar
    33    18    22   ar
    34    18    23    1
    35     9    10    1
    36     9    11    1
    37    10    12    1
    38    11     5    1
    39    33    34    1
    40    33    35    1
    41    34    36    1
    42    35    37    1
    43    37    43    1
    44    20    21   ar
    45    21    22   ar
@<TRIPOS>MOLECULE
UDP-glaA
 43 45 0 0 0
SMALL
GASTEIGER

@<TRIPOS>ATOM
      1 P          22.2295   71.4698   -3.2092 P.3     1  UNL1        0.2189
      2 O          21.6800   72.1275   -4.5814 O.3     1  UNL1       -0.4371
      3 O          23.5878   70.8395   -3.3090 O.2     1  UNL1       -0.5170
      4 O          21.0322   70.4890   -2.7404 O.3     1  UNL1       -0.3112
      5 C          20.1826   69.9357   -3.7309 C.3     1  UNL1        0.1811
      6 O          18.5248   71.3112   -4.7958 O.3     1  UNL1       -0.3308
      7 O          16.5684   70.1314   -2.8536 O.3     1  UNL1       -0.3794
      8 O          16.0729   68.7167   -5.1315 O.3     1  UNL1       -0.3779
      9 C          17.6848   69.5169   -3.4968 C.3     1  UNL1        0.1713
     10 C          17.3695   69.2484   -4.9532 C.3     1  UNL1        0.1895
     11 C          18.7974   70.5521   -3.5972 C.3     1  UNL1        0.1764
     12 C          17.5245   70.6283   -5.5694 C.3     1  UNL1        0.2383
     13 H          16.8300   70.3197   -1.9362 H       1  UNL1        0.2105
     14 H          16.0219   67.8916   -4.6187 H       1  UNL1        0.2106
     15 O          15.7854   70.2924   -7.7690 O.2     1  UNL1       -0.2464
     16 O          19.2718   70.4266  -10.7799 O.2     1  UNL1       -0.2670
     17 N          17.9505   70.5725   -6.9387 N.ar    1  UNL1       -0.2551
     18 N          17.5227   70.3589   -9.2668 N.ar    1  UNL1       -0.2743
     19 C          16.9967   70.4001   -7.9688 C.ar    1  UNL1        0.3323
     20 C          19.3008   70.6879   -7.2498 C.ar    1  UNL1        0.0869
     21 C          19.7865   70.6472   -8.4924 C.ar    1  UNL1        0.0795
     22 C          18.8572   70.4688   -9.6256 C.ar    1  UNL1        0.2626
     23 H          16.8554   70.2350  -10.0234 H       1  UNL1        0.1734
     24 O          22.1304   72.6930   -2.1560 O.3     1  UNL1       -0.2703
     25 P          22.5268   72.7798   -0.5915 P.3     1  UNL1        0.2208
     26 O          21.1631   72.3445    0.1615 O.3     1  UNL1       -0.4371
     27 O          23.0708   74.1138   -0.1669 O.2     1  UNL1       -0.5170
     28 O          23.5360   71.5428   -0.3561 O.3     1  UNL1       -0.2858
     29 O          24.7911   72.0981    1.5715 O.3     1  UNL1       -0.3226
     30 O          20.8904   72.2402    3.0012 O.3     1  UNL1       -0.3794
     31 O          21.7211   70.1281    1.1695 O.3     1  UNL1       -0.3775
     32 O          23.3982   72.9087    3.9467 O.3     1  UNL1       -0.3792
     33 C          21.9672   72.3692    2.0769 C.3     1  UNL1        0.1718
     34 C          22.6253   71.0076    1.8296 C.3     1  UNL1        0.1968
     35 C          22.9941   73.3516    2.6469 C.3     1  UNL1        0.1723
     36 C          23.8883   71.1622    0.9732 C.3     1  UNL1        0.2706
     37 C          24.2213   73.3953    1.7391 C.3     1  UNL1        0.1830
     38 H          20.5062   73.1242    3.1292 H       1  UNL1        0.2105
     39 H          22.1835   69.2852    1.0262 H       1  UNL1        0.2106
     40 H          23.9812   72.1376    3.8429 H       1  UNL1        0.2106
     41 O          26.2057   73.4798    2.9877 O.co2   1  UNL1       -0.5466
     42 O          25.3769   75.4600    2.2202 O.co2   1  UNL1       -0.5466
     43 C          25.3049   74.2441    2.3243 C.2     1  UNL1        0.0799
@<TRIPOS>UNITY_ATOM_ATTR
41 1
charge -1
@<TRIPOS>BOND
     1     1     4    1
     2     1    24    1
     3     1     2    1
     4     1     3    2
     5    25    28    1
     6    25    24    1
     7    25    26    1
     8    25    27    2
     9     6    11    1
    10     6    12    1
    11    29    36    1
    12    29    37    1
    13     7     9    1
    14     7    13    1
    15     8    10    1
    16     8    14    1
    17     4     5    1
    18    28    36    1
    19    30    33    1
    20    30    38    1
    21    31    34    1
    22    31    39    1
    23    32    35    1
    24    32    40    1
    25    41    43   ar
    26    15    19    2
    27    42    43   ar
    28    16    22    2
    29    17    12    1
    30    17    19   ar
    31    17    20   ar
    32    18    19   ar
    33    18    22   ar
    34    18    23    1
    35     9    10    1
    36     9    11    1
    37    10    12    1
    38    11     5    1
    39    33    34    1
    40    33    35    1
    41    34    36    1
    42    35    37    1
    43    37    43    1
    44    20    21   ar
    45    21    22   ar
@<TRIPOS>MOLECULE
UDP-glaA
 43 45 0 0 0
SMALL
GASTEIGER

@<TRIPOS>ATOM
      1 P          23.3728   72.1680   -3.5269 P.3     1  UNL1        0.2189
      2 O          23.4696   72.5471   -5.0966 O.3     1  UNL1       -0.4371
      3 O          24.1368   70.9408   -3.1238 O.2     1  UNL1       -0.5170
      4 O          21.7831   72.1349   -3.2313 O.3     1  UNL1       -0.3112
      5 C          21.0392   71.0040   -3.6519 C.3     1  UNL1        0.1811
      6 O          18.9290   71.7541   -4.5229 O.3     1  UNL1       -0.3308
      7 O          17.6744   70.3073   -2.2156 O.3     1  UNL1       -0.3794
      8 O          17.2948   68.5716   -4.2842 O.3     1  UNL1       -0.3779
      9 C          18.8204   69.9520   -2.9889 C.3     1  UNL1        0.1713
     10 C          18.3981   69.4510   -4.3539 C.3     1  UNL1        0.1895
     11 C          19.5678   71.2327   -3.3367 C.3     1  UNL1        0.1764
     12 C          18.0683   70.7456   -5.0773 C.3     1  UNL1        0.2383
     13 H          17.9947   70.6582   -1.3672 H       1  UNL1        0.2105
     14 H          17.5513   67.8247   -3.7164 H       1  UNL1        0.2106
     15 O          16.1838   69.7838   -6.9479 O.2     1  UNL1       -0.2464
     16 O          19.0713   70.4546  -10.4765 O.2     1  UNL1       -0.2670
     17 N          18.3007   70.6584   -6.4907 N.ar    1  UNL1       -0.2551
     18 N          17.6231   70.1180   -8.7037 N.ar    1  UNL1       -0.2743
     19 C          17.2886   70.1599   -7.3438 C.ar    1  UNL1        0.3323
     20 C          19.5213   71.0644   -7.0187 C.ar    1  UNL1        0.0869
     21 C          19.8248   71.0187   -8.3178 C.ar    1  UNL1        0.0795
     22 C          18.8234   70.5101   -9.2759 C.ar    1  UNL1        0.2626
     23 H          16.9108   69.7625   -9.3357 H       1  UNL1        0.1734
     24 O          23.8499   73.5289   -2.7952 O.3     1  UNL1       -0.2703
     25 P          23.0135   74.8307   -2.3277 P.3     1  UNL1        0.2208
     26 O          21.5985   74.6567   -3.0918 O.3     1  UNL1       -0.4371
     27 O          23.7059   76.1364   -2.5949 O.2     1  UNL1       -0.5170
     28 O          22.6739   74.5620   -0.7732 O.3     1  UNL1       -0.2858
     29 O          21.5426   72.5802   -0.1471 O.3     1  UNL1       -0.3226
     30 O          21.0117   74.9819    3.2039 O.3     1  UNL1       -0.3794
     31 O          20.7900   76.1089    0.5231 O.3     1  UNL1       -0.3775
     32 O          20.5359   72.3455    2.5306 O.3     1  UNL1       -0.3792
     33 C          21.6545   74.4334    2.0566 C.3     1  UNL1        0.1718
     34 C          20.8283   74.7122    0.7965 C.3     1  UNL1        0.1968
     35 C          21.8158   72.9235    2.2538 C.3     1  UNL1        0.1723
     36 C          21.4209   73.9811   -0.4145 C.3     1  UNL1        0.2706
     37 C          22.3728   72.2960    0.9778 C.3     1  UNL1        0.1830
     38 H          21.5671   74.7798    3.9761 H       1  UNL1        0.2105
     39 H          20.2658   76.2353   -0.2857 H       1  UNL1        0.2106
     40 H          20.0205   72.3272    1.7064 H       1  UNL1        0.2106
     41 O          23.6915   70.3859    1.3190 O.co2   1  UNL1       -0.5466
     42 O          21.4630   70.0595    0.9662 O.co2   1  UNL1       -0.5466
     43 C          22.4255   70.8047    1.0794 C.2     1  UNL1        0.0799
@<TRIPOS>UNITY_ATOM_ATTR
41 1
charge -1
@<TRIPOS>BOND
     1     1     4    1
     2     1    24    1
     3     1     2    1
     4     1     3    2
     5    25    28    1
     6    25    24    1
     7    25    26    1
     8    25    27    2
     9     6    11    1
    10     6    12    1
    11    29    36    1
    12    29    37    1
    13     7     9    1
    14     7    13    1
    15     8    10    1
    16     8    14    1
    17     4     5    1
    18    28    36    1
    19    30    33    1
    20    30    38    1
    21    31    34    1
    22    31    39    1
    23    32    35    1
    24    32    40    1
    25    41    43   ar
    26    15    19    2
    27    42    43   ar
    28    16    22    2
    29    17    12    1
    30    17    19   ar
    31    17    20   ar
    32    18    19   ar
    33    18    22   ar
    34    18    23    1
    35     9    10    1
    36     9    11    1
    37    10    12    1
    38    11     5    1
    39    33    34    1
    40    33    35    1
    41    34    36    1
    42    35    37    1
    43    37    43    1
    44    20    21   ar
    45    21    22   ar
@<TRIPOS>MOLECULE
UDP-glaA
 43 45 0 0 0
SMALL
GASTEIGER

@<TRIPOS>ATOM
      1 P          21.0335   72.4586   -4.4875 P.3     1  UNL1        0.2189
      2 O          21.0915   73.7709   -5.4319 O.3     1  UNL1       -0.4371
      3 O          21.4658   71.1829   -5.1493 O.2     1  UNL1       -0.5170
      4 O          19.5277   72.4692   -3.8976 O.3     1  UNL1       -0.3112
      5 C          18.9497   71.2396   -3.4937 C.3     1  UNL1        0.1811
      6 O          17.1931   71.7753   -5.0435 O.3     1  UNL1       -0.3308
      7 O          15.3884   70.1744   -3.2626 O.3     1  UNL1       -0.3794
      8 O          15.9125   68.4359   -5.2970 O.3     1  UNL1       -0.3779
      9 C          16.7587   69.9517   -3.5949 C.3     1  UNL1        0.1713
     10 C          16.8773   69.4272   -5.0104 C.3     1  UNL1        0.1895
     11 C          17.4431   71.3083   -3.6994 C.3     1  UNL1        0.1764
     12 C          16.6797   70.6894   -5.8324 C.3     1  UNL1        0.2383
     13 H          15.3648   70.5458   -2.3642 H       1  UNL1        0.2105
     14 H          16.0375   67.7126   -4.6588 H       1  UNL1        0.2106
     15 O          15.4333   70.6215   -8.3656 O.2     1  UNL1       -0.2464
     16 O          19.4849   70.5211  -10.5595 O.2     1  UNL1       -0.2670
     17 N          17.3843   70.6458   -7.0818 N.ar    1  UNL1       -0.2551
     18 N          17.4516   70.5710   -9.4564 N.ar    1  UNL1       -0.2743
     19 C          16.6638   70.6132   -8.2986 C.ar    1  UNL1        0.3323
     20 C          18.7747   70.6355   -7.0935 C.ar    1  UNL1        0.0869
     21 C          19.5115   70.5956   -8.2058 C.ar    1  UNL1        0.0795
     22 C          18.8365   70.5588   -9.5183 C.ar    1  UNL1        0.2626
     23 H          16.9549   70.5464  -10.3429 H       1  UNL1        0.1734
     24 O          21.9267   72.8913   -3.2108 O.3     1  UNL1       -0.2703
     25 P          23.1029   72.1087   -2.4255 P.3     1  UNL1        0.2208
     26 O          24.1920   71.8157   -3.5849 O.3     1  UNL1       -0.4371
     27 O          22.6416   70.8861   -1.6850 O.2     1  UNL1       -0.5170
     28 O          23.7906   73.2325   -1.4938 O.3     1  UNL1       -0.2858
     29 O          22.1108   74.3594   -0.2658 O.3     1  UNL1       -0.3226
     30 O          21.2847   70.3748    0.5827 O.3     1  UNL1       -0.3794
     31 O          24.0388   71.3302    0.4918 O.3     1  UNL1       -0.3775
     32 O          20.0682   72.8141    1.0297 O.3     1  UNL1       -0.3792
     33 C          21.7074   71.5078   -0.1710 C.3     1  UNL1        0.1718
     34 C          22.9016   72.1865    0.5084 C.3     1  UNL1        0.1968
     35 C          20.5396   72.4918   -0.2828 C.3     1  UNL1        0.1723
     36 C          23.2542   73.5008   -0.1990 C.3     1  UNL1        0.2706
     37 C          21.0126   73.7743   -0.9637 C.3     1  UNL1        0.1830
     38 H          20.5276   69.9793    0.1181 H       1  UNL1        0.2105
     39 H          24.7696   71.8046    0.9227 H       1  UNL1        0.2106
     40 H          20.7131   73.4060    1.4528 H       1  UNL1        0.2106
     41 O          18.7311   74.2521   -1.2291 O.co2   1  UNL1       -0.5466
     42 O          20.1153   76.0090   -0.7879 O.co2   1  UNL1       -0.5466
     43 C          19.9380   74.8145   -0.9783 C.2     1  UNL1        0.0799
@<TRIPOS>UNITY_ATOM_ATTR
41 1
charge -1
@<TRIPOS>BOND
     1     1     4    1
     2     1    24    1
     3     1     2    1
     4     1     3    2
     5    25    28    1
     6    25    24    1
     7    25    26    1
     8    25    27    2
     9     6    11    1
    10     6    12    1
    11    29    36    1
    12    29    37    1
    13     7     9    1
    14     7    13    1
    15     8    10    1
    16     8    14    1
    17     4     5    1
    18    28    36    1
    19    30    33    1
    20    30    38    1
    21    31    34    1
    22    31    39    1
    23    32    35    1
    24    32    40    1
    25    41    43   ar
    26    15    19    2
    27    42    43   ar
    28    16    22    2
    29    17    12    1
    30    17    19   ar
    31    17    20   ar
    32    18    19   ar
    33    18    22   ar
    34    18    23    1
    35     9    10    1
    36     9    11    1
    37    10    12    1
    38    11     5    1
    39    33    34    1
    40    33    35    1
    41    34    36    1
    42    35    37    1
    43    37    43    1
    44    20    21   ar
    45    21    22   ar
@<TRIPOS>MOLECULE
UDP-glaA
 43 45 0 0 0
SMALL
GASTEIGER

@<TRIPOS>ATOM
      1 P          22.9534   71.4319   -2.3532 P.3     1  UNL1        0.2189
      2 O          22.7994   73.0422   -2.3288 O.3     1  UNL1       -0.4371
      3 O          24.1563   70.9222   -3.0917 O.2     1  UNL1       -0.5170
      4 O          21.5220   70.9117   -2.8973 O.3     1  UNL1       -0.3112
      5 C          20.8613   71.6691   -3.8968 C.3     1  UNL1        0.1811
      6 O          18.6670   72.0634   -4.7935 O.3     1  UNL1       -0.3308
      7 O          17.6259   70.6143   -2.3836 O.3     1  UNL1       -0.3794
      8 O          17.4862   68.7097   -4.3301 O.3     1  UNL1       -0.3779
      9 C          18.8090   70.3691   -3.1437 C.3     1  UNL1        0.1713
     10 C          18.4581   69.7255   -4.4686 C.3     1  UNL1        0.1895
     11 C          19.3728   71.7143   -3.5822 C.3     1  UNL1        0.1764
     12 C          17.9525   70.9118   -5.2718 C.3     1  UNL1        0.2383
     13 H          17.8958   71.0613   -1.5633 H       1  UNL1        0.2105
     14 H          17.8437   68.0443   -3.7172 H       1  UNL1        0.2106
     15 O          15.9300   70.5259   -7.2046 O.2     1  UNL1       -0.2464
     16 O          18.9940   70.3542  -10.6427 O.2     1  UNL1       -0.2670
     17 N          18.1932   70.7639   -6.6787 N.ar    1  UNL1       -0.2551
     18 N          17.4571   70.4401   -8.9153 N.ar    1  UNL1       -0.2743
     19 C          17.1074   70.5737   -7.5651 C.ar    1  UNL1        0.3323
     20 C          19.4941   70.8076   -7.1678 C.ar    1  UNL1        0.0869
     21 C          19.8111   70.6792   -8.4580 C.ar    1  UNL1        0.0795
     22 C          18.7359   70.4764   -9.4492 C.ar    1  UNL1        0.2626
     23 H          16.6926   70.3018   -9.5707 H       1  UNL1        0.1734
     24 O          22.9099   71.0399   -0.7848 O.3     1  UNL1       -0.2703
     25 P          21.8385   71.4033    0.3695 P.3     1  UNL1        0.2208
     26 O          21.5030   69.9656    1.0303 O.3     1  UNL1       -0.4371
     27 O          20.6351   72.1558   -0.1218 O.2     1  UNL1       -0.5170
     28 O          22.6966   72.1795    1.4943 O.3     1  UNL1       -0.2858
     29 O          22.0770   73.9260    2.9657 O.3     1  UNL1       -0.3226
     30 O          26.0751   74.7891    2.2240 O.3     1  UNL1       -0.3794
     31 O          24.3288   73.8897    0.0682 O.3     1  UNL1       -0.3775
     32 O          24.1056   75.7160    3.9246 O.3     1  UNL1       -0.3792
     33 C          24.9067   73.9990    2.4263 C.3     1  UNL1        0.1718
     34 C          23.8618   74.3041    1.3476 C.3     1  UNL1        0.1968
     35 C          24.3342   74.3074    3.8124 C.3     1  UNL1        0.1723
     36 C          22.5401   73.5888    1.6539 C.3     1  UNL1        0.2706
     37 C          23.0046   73.5780    3.9924 C.3     1  UNL1        0.1830
     38 H          26.7063   74.5653    2.9290 H       1  UNL1        0.2105
     39 H          23.6324   74.0937   -0.5785 H       1  UNL1        0.2106
     40 H          23.3243   75.9454    3.3936 H       1  UNL1        0.2106
     41 O          22.5524   72.9973    6.2200 O.co2   1  UNL1       -0.5466
     42 O          21.7081   74.9783    5.4717 O.co2   1  UNL1       -0.5466
     43 C          22.3452   73.9524    5.2816 C.2     1  UNL1        0.0799
@<TRIPOS>UNITY_ATOM_ATTR
41 1
charge -1
@<TRIPOS>BOND
     1     1     4    1
     2     1    24    1
     3     1     2    1
     4     1     3    2
     5    25    28    1
     6    25    24    1
     7    25    26    1
     8    25    27    2
     9     6    11    1
    10     6    12    1
    11    29    36    1
    12    29    37    1
    13     7     9    1
    14     7    13    1
    15     8    10    1
    16     8    14    1
    17     4     5    1
    18    28    36    1
    19    30    33    1
    20    30    38    1
    21    31    34    1
    22    31    39    1
    23    32    35    1
    24    32    40    1
    25    41    43   ar
    26    15    19    2
    27    42    43   ar
    28    16    22    2
    29    17    12    1
    30    17    19   ar
    31    17    20   ar
    32    18    19   ar
    33    18    22   ar
    34    18    23    1
    35     9    10    1
    36     9    11    1
    37    10    12    1
    38    11     5    1
    39    33    34    1
    40    33    35    1
    41    34    36    1
    42    35    37    1
    43    37    43    1
    44    20    21   ar
    45    21    22   ar
@<TRIPOS>MOLECULE
UDP-glaA
 43 45 0 0 0
SMALL
GASTEIGER

@<TRIPOS>ATOM
      1 P          23.3703   71.9439   -3.2248 P.3     1  UNL1        0.2189
      2 O          24.2407   72.9065   -4.1908 O.3     1  UNL1       -0.4371
      3 O          24.1563   70.8782   -2.5186 O.2     1  UNL1       -0.5170
      4 O          22.1712   71.4197   -4.1749 O.3     1  UNL1       -0.3112
      5 C          21.5953   72.3253   -5.1009 C.3     1  UNL1        0.1811
      6 O          20.5186   70.4190   -6.0913 O.3     1  UNL1       -0.3308
      7 O          20.7183   71.8935   -8.6946 O.3     1  UNL1       -0.3794
      8 O          18.1204   72.3047   -7.9751 O.3     1  UNL1       -0.3779
      9 C          20.4765   72.4041   -7.3837 C.3     1  UNL1        0.1713
     10 C          19.0630   72.0815   -6.9469 C.3     1  UNL1        0.1895
     11 C          21.3074   71.5889   -6.4015 C.3     1  UNL1        0.1764
     12 C          19.1768   70.6149   -6.5672 C.3     1  UNL1        0.2383
     13 H          21.6449   72.0889   -8.9154 H       1  UNL1        0.2105
     14 H          18.1869   73.2397   -8.2353 H       1  UNL1        0.2106
     15 O          16.5184   69.7778   -7.0228 O.2     1  UNL1       -0.2464
     16 O          15.7295   69.2165   -2.5171 O.2     1  UNL1       -0.2670
     17 N          18.2550   70.2436   -5.5320 N.ar    1  UNL1       -0.2551
     18 N          16.1272   69.4994   -4.7788 N.ar    1  UNL1       -0.2743
     19 C          16.9418   69.8386   -5.8671 C.ar    1  UNL1        0.3323
     20 C          18.6550   70.2831   -4.2009 C.ar    1  UNL1        0.0869
     21 C          17.8665   69.9561   -3.1746 C.ar    1  UNL1        0.0795
     22 C          16.4800   69.5232   -3.4384 C.ar    1  UNL1        0.2626
     23 H          15.1786   69.2057   -4.9960 H       1  UNL1        0.1734
     24 O          22.6251   72.9923   -2.2446 O.3     1  UNL1       -0.2703
     25 P          23.0774   74.4488   -1.7094 P.3     1  UNL1        0.2208
     26 O          23.0483   75.3605   -3.0451 O.3     1  UNL1       -0.4371
     27 O          24.3913   74.4570   -0.9818 O.2     1  UNL1       -0.5170
     28 O          21.8266   74.9689   -0.8326 O.3     1  UNL1       -0.2858
     29 O          21.1983   73.2177    0.6296 O.3     1  UNL1       -0.3226
     30 O          25.2375   73.6724    1.5001 O.3     1  UNL1       -0.3794
     31 O          23.5439   76.0064    1.0639 O.3     1  UNL1       -0.3775
     32 O          23.2341   71.8864    2.1533 O.3     1  UNL1       -0.3792
     33 C          24.0453   73.6534    0.7199 C.3     1  UNL1        0.1718
     34 C          23.0442   74.6862    1.2484 C.3     1  UNL1        0.1968
     35 C          23.4341   72.2510    0.7837 C.3     1  UNL1        0.1723
     36 C          21.6970   74.5555    0.5270 C.3     1  UNL1        0.2706
     37 C          22.0830   72.2472    0.0719 C.3     1  UNL1        0.1830
     38 H          25.8396   73.0033    1.1322 H       1  UNL1        0.2105
     39 H          22.8743   76.6237    1.4035 H       1  UNL1        0.2106
     40 H          22.4764   72.3878    2.4990 H       1  UNL1        0.2106
     41 O          20.5611   70.7046   -0.8271 O.co2   1  UNL1       -0.5466
     42 O          21.5461   70.1568    1.1545 O.co2   1  UNL1       -0.5466
     43 C          21.3897   70.9303    0.2208 C.2     1  UNL1        0.0799
@<TRIPOS>UNITY_ATOM_ATTR
41 1
charge -1
@<TRIPOS>BOND
     1     1     4    1
     2     1    24    1
     3     1     2    1
     4     1     3    2
     5    25    28    1
     6    25    24    1
     7    25    26    1
     8    25    27    2
     9     6    11    1
    10     6    12    1
    11    29    36    1
    12    29    37    1
    13     7     9    1
    14     7    13    1
    15     8    10    1
    16     8    14    1
    17     4     5    1
    18    28    36    1
    19    30    33    1
    20    30    38    1
    21    31    34    1
    22    31    39    1
    23    32    35    1
    24    32    40    1
    25    41    43   ar
    26    15    19    2
    27    42    43   ar
    28    16    22    2
    29    17    12    1
    30    17    19   ar
    31    17    20   ar
    32    18    19   ar
    33    18    22   ar
    34    18    23    1
    35     9    10    1
    36     9    11    1
    37    10    12    1
    38    11     5    1
    39    33    34    1
    40    33    35    1
    41    34    36    1
    42    35    37    1
    43    37    43    1
    44    20    21   ar
    45    21    22   ar
@<TRIPOS>MOLECULE
UDP-glaA
 43 45 0 0 0
SMALL
GASTEIGER

@<TRIPOS>ATOM
      1 P          21.6223   72.7133   -4.8888 P.3     1  UNL1        0.2189
      2 O          21.4198   74.3114   -5.0378 O.3     1  UNL1       -0.4371
      3 O          22.5899   72.1045   -5.8610 O.2     1  UNL1       -0.5170
      4 O          20.1169   72.1239   -4.9330 O.3     1  UNL1       -0.3112
      5 C          19.6349   71.4116   -3.8062 C.3     1  UNL1        0.1811
      6 O          17.6882   71.7844   -5.1647 O.3     1  UNL1       -0.3308
      7 O          16.1794   70.2129   -3.1044 O.3     1  UNL1       -0.3794
      8 O          16.5495   68.3853   -5.0940 O.3     1  UNL1       -0.3779
      9 C          17.5115   70.0294   -3.5833 C.3     1  UNL1        0.1713
     10 C          17.4919   69.4308   -4.9739 C.3     1  UNL1        0.1895
     11 C          18.1132   71.4053   -3.8370 C.3     1  UNL1        0.1764
     12 C          17.1406   70.6349   -5.8310 C.3     1  UNL1        0.2383
     13 H          16.2411   70.6334   -2.2298 H       1  UNL1        0.2105
     14 H          16.7817   67.7052   -4.4384 H       1  UNL1        0.2106
     15 O          15.6336   70.7986   -8.2138 O.2     1  UNL1       -0.2464
     16 O          19.3878   70.2941  -10.8387 O.2     1  UNL1       -0.2670
     17 N          17.6983   70.5500   -7.1505 N.ar    1  UNL1       -0.2551
     18 N          17.5040   70.5467   -9.5193 N.ar    1  UNL1       -0.2743
     19 C          16.8542   70.6431   -8.2817 C.ar    1  UNL1        0.3323
     20 C          19.0681   70.3762   -7.3142 C.ar    1  UNL1        0.0869
     21 C          19.6726   70.2867   -8.5010 C.ar    1  UNL1        0.0795
     22 C          18.8627   70.3733   -9.7323 C.ar    1  UNL1        0.2626
     23 H          16.9167   70.6104  -10.3465 H       1  UNL1        0.1734
     24 O          22.0332   72.5435   -3.3339 O.3     1  UNL1       -0.2703
     25 P          23.4581   72.2192   -2.6432 P.3     1  UNL1        0.2208
     26 O          24.3470   73.5235   -2.9961 O.3     1  UNL1       -0.4371
     27 O          24.0695   70.9169   -3.0745 O.2     1  UNL1       -0.5170
     28 O          23.1790   72.3319   -1.0578 O.3     1  UNL1       -0.2858
     29 O          24.4937   71.2502    0.5857 O.3     1  UNL1       -0.3226
     30 O          20.8987   71.8317    2.5900 O.3     1  UNL1       -0.3794
     31 O          20.9188   70.9957   -0.2040 O.3     1  UNL1       -0.3775
     32 O          23.4435   70.9790    3.2432 O.3     1  UNL1       -0.3792
     33 C          21.9705   72.0978    1.6896 C.3     1  UNL1        0.1718
     34 C          22.0694   70.9909    0.6345 C.3     1  UNL1        0.1968
     35 C          23.2762   72.1815    2.4850 C.3     1  UNL1        0.1723
     36 C          23.3211   71.1768   -0.2321 C.3     1  UNL1        0.2706
     37 C          24.4543   72.3243    1.5239 C.3     1  UNL1        0.1830
     38 H          20.8753   72.5546    3.2400 H       1  UNL1        0.2105
     39 H          21.0307   70.2869   -0.8597 H       1  UNL1        0.2106
     40 H          23.6929   70.2626    2.6351 H       1  UNL1        0.2106
     41 O          26.2496   71.0163    2.2788 O.co2   1  UNL1       -0.5466
     42 O          26.3202   73.2460    2.7482 O.co2   1  UNL1       -0.5466
     43 C          25.7613   72.2797    2.2498 C.2     1  UNL1        0.0799
@<TRIPOS>UNITY_ATOM_ATTR
41 1
charge -1
@<TRIPOS>BOND
     1     1     4    1
     2     1    24    1
     3     1     2    1
     4     1     3    2
     5    25    28    1
     6    25    24    1
     7    25    26    1
     8    25    27    2
     9     6    11    1
    10     6    12    1
    11    29    36    1
    12    29    37    1
    13     7     9    1
    14     7    13    1
    15     8    10    1
    16     8    14    1
    17     4     5    1
    18    28    36    1
    19    30    33    1
    20    30    38    1
    21    31    34    1
    22    31    39    1
    23    32    35    1
    24    32    40    1
    25    41    43   ar
    26    15    19    2
    27    42    43   ar
    28    16    22    2
    29    17    12    1
    30    17    19   ar
    31    17    20   ar
    32    18    19   ar
    33    18    22   ar
    34    18    23    1
    35     9    10    1
    36     9    11    1
    37    10    12    1
    38    11     5    1
    39    33    34    1
    40    33    35    1
    41    34    36    1
    42    35    37    1
    43    37    43    1
    44    20    21   ar
    45    21    22   ar
@<TRIPOS>MOLECULE
UDP-glaA
 43 45 0 0 0
SMALL
GASTEIGER

@<TRIPOS>ATOM
      1 P          21.1912   71.3609   -2.9410 P.3     1  UNL1        0.2189
      2 O          21.7540   72.5770   -3.8474 O.3     1  UNL1       -0.4371
      3 O          21.5137   69.9877   -3.4533 O.2     1  UNL1       -0.5170
      4 O          19.6182   71.6964   -2.7718 O.3     1  UNL1       -0.3112
      5 C          18.9554   72.3828   -3.8201 C.3     1  UNL1        0.1811
      6 O          17.0561   72.0138   -5.2452 O.3     1  UNL1       -0.3308
      7 O          15.9695   70.2985   -3.0388 O.3     1  UNL1       -0.3794
      8 O          16.9575   68.4584   -4.7921 O.3     1  UNL1       -0.3779
      9 C          17.3197   70.4667   -3.4705 C.3     1  UNL1        0.1713
     10 C          17.5462   69.7425   -4.7808 C.3     1  UNL1        0.1895
     11 C          17.5054   71.9232   -3.8751 C.3     1  UNL1        0.1764
     12 C          16.9025   70.6888   -5.7800 C.3     1  UNL1        0.2383
     13 H          15.8614   70.8103   -2.2191 H       1  UNL1        0.2105
     14 H          17.3447   67.9526   -4.0570 H       1  UNL1        0.2106
     15 O          15.4992   70.6359   -8.2301 O.2     1  UNL1       -0.2464
     16 O          19.4035   70.4634  -10.6724 O.2     1  UNL1       -0.2670
     17 N          17.5268   70.6307   -7.0708 N.ar    1  UNL1       -0.2551
     18 N          17.4443   70.5495   -9.4447 N.ar    1  UNL1       -0.2743
     19 C          16.7312   70.6074   -8.2400 C.ar    1  UNL1        0.3323
     20 C          18.9134   70.5973   -7.1692 C.ar    1  UNL1        0.0869
     21 C          19.5785   70.5427   -8.3253 C.ar    1  UNL1        0.0795
     22 C          18.8222   70.5142   -9.5929 C.ar    1  UNL1        0.2626
     23 H          16.8928   70.5312  -10.2983 H       1  UNL1        0.1734
     24 O          21.7925   71.6919   -1.4767 O.3     1  UNL1       -0.2703
     25 P          21.0599   71.8898   -0.0496 P.3     1  UNL1        0.2208
     26 O          21.0390   70.3947    0.5673 O.3     1  UNL1       -0.4371
     27 O          19.7107   72.5440   -0.1353 O.2     1  UNL1       -0.5170
     28 O          22.1322   72.6892    0.8532 O.3     1  UNL1       -0.2858
     29 O          23.4840   74.4548    0.0440 O.3     1  UNL1       -0.3226
     30 O          25.6802   73.0996    3.3027 O.3     1  UNL1       -0.3794
     31 O          24.3683   71.2092    1.5108 O.3     1  UNL1       -0.3775
     32 O          25.7949   75.2366    1.5563 O.3     1  UNL1       -0.3792
     33 C          24.5334   73.4148    2.5180 C.3     1  UNL1        0.1718
     34 C          24.5295   72.5943    1.2238 C.3     1  UNL1        0.1968
     35 C          24.5536   74.9103    2.1900 C.3     1  UNL1        0.1723
     36 C          23.3958   73.0485    0.2960 C.3     1  UNL1        0.2706
     37 C          23.4110   75.2411    1.2323 C.3     1  UNL1        0.1830
     38 H          25.6425   73.6425    4.1086 H       1  UNL1        0.2105
     39 H          24.3622   70.7327    0.6636 H       1  UNL1        0.2106
     40 H          25.7777   74.8917    0.6475 H       1  UNL1        0.2106
     41 O          24.0464   76.7588   -0.4401 O.co2   1  UNL1       -0.5466
     42 O          23.0533   77.6214    1.4219 O.co2   1  UNL1       -0.5466
     43 C          23.4695   76.6663    0.7823 C.2     1  UNL1        0.0799
@<TRIPOS>UNITY_ATOM_ATTR
41 1
charge -1
@<TRIPOS>BOND
     1     1     4    1
     2     1    24    1
     3     1     2    1
     4     1     3    2
     5    25    28    1
     6    25    24    1
     7    25    26    1
     8    25    27    2
     9     6    11    1
    10     6    12    1
    11    29    36    1
    12    29    37    1
    13     7     9    1
    14     7    13    1
    15     8    10    1
    16     8    14    1
    17     4     5    1
    18    28    36    1
    19    30    33    1
    20    30    38    1
    21    31    34    1
    22    31    39    1
    23    32    35    1
    24    32    40    1
    25    41    43   ar
    26    15    19    2
    27    42    43   ar
    28    16    22    2
    29    17    12    1
    30    17    19   ar
    31    17    20   ar
    32    18    19   ar
    33    18    22   ar
    34    18    23    1
    35     9    10    1
    36     9    11    1
    37    10    12    1
    38    11     5    1
    39    33    34    1
    40    33    35    1
    41    34    36    1
    42    35    37    1
    43    37    43    1
    44    20    21   ar
    45    21    22   ar
@<TRIPOS>MOLECULE
UDP-glaA
 43 45 0 0 0
SMALL
GASTEIGER

@<TRIPOS>ATOM
      1 P          20.4408   73.1040   -2.5295 P.3     1  UNL1        0.2189
      2 O          19.1569   74.0524   -2.2653 O.3     1  UNL1       -0.4371
      3 O          21.7451   73.8313   -2.6778 O.2     1  UNL1       -0.5170
      4 O          19.9982   72.1907   -3.7887 O.3     1  UNL1       -0.3112
      5 C          19.3291   70.9669   -3.5359 C.3     1  UNL1        0.1811
      6 O          17.5559   71.7396   -4.9617 O.3     1  UNL1       -0.3308
      7 O          15.6974   70.2366   -3.1511 O.3     1  UNL1       -0.3794
      8 O          15.9437   68.5531   -5.2820 O.3     1  UNL1       -0.3779
      9 C          17.0205   69.9000   -3.5682 C.3     1  UNL1        0.1713
     10 C          17.0142   69.4333   -5.0086 C.3     1  UNL1        0.1895
     11 C          17.8279   71.1886   -3.6542 C.3     1  UNL1        0.1764
     12 C          16.8989   70.7457   -5.7653 C.3     1  UNL1        0.2383
     13 H          15.7564   70.5662   -2.2381 H       1  UNL1        0.2105
     14 H          16.0300   67.7921   -4.6823 H       1  UNL1        0.2106
     15 O          15.5125   70.5136   -8.2146 O.2     1  UNL1       -0.2464
     16 O          19.4282   70.5526  -10.6446 O.2     1  UNL1       -0.2670
     17 N          17.5307   70.6935   -7.0527 N.ar    1  UNL1       -0.2551
     18 N          17.4633   70.5326   -9.4230 N.ar    1  UNL1       -0.2743
     19 C          16.7433   70.5754   -8.2218 C.ar    1  UNL1        0.3323
     20 C          18.9163   70.7590   -7.1480 C.ar    1  UNL1        0.0869
     21 C          19.5880   70.7175   -8.3008 C.ar    1  UNL1        0.0795
     22 C          18.8406   70.5940   -9.5680 C.ar    1  UNL1        0.2626
     23 H          16.9179   70.4473  -10.2764 H       1  UNL1        0.1734
     24 O          20.3855   72.0660   -1.2907 O.3     1  UNL1       -0.2703
     25 P          21.5641   71.4388   -0.3796 P.3     1  UNL1        0.2208
     26 O          22.7298   71.1141   -1.4528 O.3     1  UNL1       -0.4371
     27 O          21.1403   70.2612    0.4507 O.2     1  UNL1       -0.5170
     28 O          22.1299   72.6866    0.4730 O.3     1  UNL1       -0.2858
     29 O          24.0580   73.1583    1.7610 O.3     1  UNL1       -0.3226
     30 O          21.0209   74.7041    4.1412 O.3     1  UNL1       -0.3794
     31 O          20.6693   72.1616    2.7564 O.3     1  UNL1       -0.3775
     32 O          23.7829   74.7399    4.1404 O.3     1  UNL1       -0.3792
     33 C          21.7176   74.3456    2.9512 C.3     1  UNL1        0.1718
     34 C          21.9206   72.8280    2.8874 C.3     1  UNL1        0.1968
     35 C          23.0737   75.0564    2.9380 C.3     1  UNL1        0.1723
     36 C          22.8161   72.4491    1.7013 C.3     1  UNL1        0.2706
     37 C          23.8937   74.5755    1.7428 C.3     1  UNL1        0.1830
     38 H          20.9173   75.6710    4.1405 H       1  UNL1        0.2105
     39 H          20.8485   71.2074    2.7105 H       1  UNL1        0.2106
     40 H          24.1019   73.8236    4.0788 H       1  UNL1        0.2106
     41 O          26.1316   74.3071    2.3937 O.co2   1  UNL1       -0.5466
     42 O          25.5981   76.2203    1.2747 O.co2   1  UNL1       -0.5466
     43 C          25.2759   75.1465    1.7621 C.2     1  UNL1        0.0799
@<TRIPOS>UNITY_ATOM_ATTR
41 1
charge -1
@<TRIPOS>BOND
     1     1     4    1
     2     1    24    1
     3     1     2    1
     4     1     3    2
     5    25    28    1
     6    25    24    1
     7    25    26    1
     8    25    27    2
     9     6    11    1
    10     6    12    1
    11    29    36    1
    12    29    37    1
    13     7     9    1
    14     7    13    1
    15     8    10    1
    16     8    14    1
    17     4     5    1
    18    28    36    1
    19    30    33    1
    20    30    38    1
    21    31    34    1
    22    31    39    1
    23    32    35    1
    24    32    40    1
    25    41    43   ar
    26    15    19    2
    27    42    43   ar
    28    16    22    2
    29    17    12    1
    30    17    19   ar
    31    17    20   ar
    32    18    19   ar
    33    18    22   ar
    34    18    23    1
    35     9    10    1
    36     9    11    1
    37    10    12    1
    38    11     5    1
    39    33    34    1
    40    33    35    1
    41    34    36    1
    42    35    37    1
    43    37    43    1
    44    20    21   ar
    45    21    22   ar
@<TRIPOS>MOLECULE
UDP-glaA
 43 45 0 0 0
SMALL
GASTEIGER

@<TRIPOS>ATOM
      1 P          22.1005   73.1865   -5.1020 P.3     1  UNL1        0.2189
      2 O          21.9402   74.7479   -5.4940 O.3     1  UNL1       -0.4371
      3 O          23.0674   72.4163   -5.9529 O.2     1  UNL1       -0.5170
      4 O          20.5817   72.6310   -5.0854 O.3     1  UNL1       -0.3112
      5 C          20.1675   71.8237   -3.9964 C.3     1  UNL1        0.1811
      6 O          18.1233   72.1515   -5.2162 O.3     1  UNL1       -0.3308
      7 O          16.7567   70.7765   -2.9287 O.3     1  UNL1       -0.3794
      8 O          16.9199   68.7997   -4.7998 O.3     1  UNL1       -0.3779
      9 C          18.0401   70.5214   -3.4991 C.3     1  UNL1        0.1713
     10 C          17.8918   69.8243   -4.8351 C.3     1  UNL1        0.1895
     11 C          18.6487   71.8579   -3.9029 C.3     1  UNL1        0.1764
     12 C          17.4971   70.9725   -5.7483 C.3     1  UNL1        0.2383
     13 H          16.9002   71.2574   -2.0958 H       1  UNL1        0.2105
     14 H          17.1908   68.1628   -4.1164 H       1  UNL1        0.2106
     15 O          15.7876   70.4083   -7.9242 O.2     1  UNL1       -0.2464
     16 O          19.3137   70.2374  -10.8866 O.2     1  UNL1       -0.2670
     17 N          17.9412   70.7765   -7.0987 N.ar    1  UNL1       -0.2551
     18 N          17.5446   70.3230   -9.3978 N.ar    1  UNL1       -0.2743
     19 C          17.0013   70.4970   -8.1181 C.ar    1  UNL1        0.3323
     20 C          19.2955   70.8616   -7.4022 C.ar    1  UNL1        0.0869
     21 C          19.7978   70.6937   -8.6275 C.ar    1  UNL1        0.0795
     22 C          18.8837   70.3978   -9.7484 C.ar    1  UNL1        0.2626
     23 H          16.8875   70.1206  -10.1463 H       1  UNL1        0.1734
     24 O          22.4831   73.2445   -3.5318 O.3     1  UNL1       -0.2703
     25 P          23.4803   74.2229   -2.7190 P.3     1  UNL1        0.2208
     26 O          22.6078   75.5723   -2.5350 O.3     1  UNL1       -0.4371
     27 O          24.8128   74.4315   -3.3800 O.2     1  UNL1       -0.5170
     28 O          23.5629   73.5849   -1.2391 O.3     1  UNL1       -0.2858
     29 O          23.7088   71.4659   -0.1962 O.3     1  UNL1       -0.3226
     30 O          20.6013   73.2580    1.9040 O.3     1  UNL1       -0.3794
     31 O          20.8135   73.5775   -0.9872 O.3     1  UNL1       -0.3775
     32 O          22.1027   70.9501    2.1260 O.3     1  UNL1       -0.3792
     33 C          21.8255   73.1562    1.1819 C.3     1  UNL1        0.1718
     34 C          21.5681   72.6330   -0.2353 C.3     1  UNL1        0.1968
     35 C          22.7636   72.2045    1.9293 C.3     1  UNL1        0.1723
     36 C          22.8908   72.3573   -0.9611 C.3     1  UNL1        0.2706
     37 C          24.0246   71.9708    1.1003 C.3     1  UNL1        0.1830
     38 H          20.8121   73.5897    2.7934 H       1  UNL1        0.2105
     39 H          20.6840   73.2080   -1.8769 H       1  UNL1        0.2106
     40 H          22.0717   70.4805    1.2753 H       1  UNL1        0.2106
     41 O          24.4128   70.5516    2.9276 O.co2   1  UNL1       -0.5466
     42 O          25.9466   70.5162    1.2415 O.co2   1  UNL1       -0.5466
     43 C          24.9126   70.9461    1.7317 C.2     1  UNL1        0.0799
@<TRIPOS>UNITY_ATOM_ATTR
41 1
charge -1
@<TRIPOS>BOND
     1     1     4    1
     2     1    24    1
     3     1     2    1
     4     1     3    2
     5    25    28    1
     6    25    24    1
     7    25    26    1
     8    25    27    2
     9     6    11    1
    10     6    12    1
    11    29    36    1
    12    29    37    1
    13     7     9    1
    14     7    13    1
    15     8    10    1
    16     8    14    1
    17     4     5    1
    18    28    36    1
    19    30    33    1
    20    30    38    1
    21    31    34    1
    22    31    39    1
    23    32    35    1
    24    32    40    1
    25    41    43   ar
    26    15    19    2
    27    42    43   ar
    28    16    22    2
    29    17    12    1
    30    17    19   ar
    31    17    20   ar
    32    18    19   ar
    33    18    22   ar
    34    18    23    1
    35     9    10    1
    36     9    11    1
    37    10    12    1
    38    11     5    1
    39    33    34    1
    40    33    35    1
    41    34    36    1
    42    35    37    1
    43    37    43    1
    44    20    21   ar
    45    21    22   ar
@<TRIPOS>MOLECULE
UDP-glaA
 43 45 0 0 0
SMALL
GASTEIGER

@<TRIPOS>ATOM
      1 P          23.4454   72.2074   -3.5519 P.3     1  UNL1        0.2189
      2 O          24.0172   70.7397   -3.1828 O.3     1  UNL1       -0.4371
      3 O          24.4624   73.1621   -4.1053 O.2     1  UNL1       -0.5170
      4 O          22.6954   72.6845   -2.2008 O.3     1  UNL1       -0.3112
      5 C          23.4329   72.7130   -0.9906 C.3     1  UNL1        0.1811
      6 O          24.4099   71.0713    0.4669 O.3     1  UNL1       -0.3308
      7 O          21.6014   70.2233    1.0872 O.3     1  UNL1       -0.3794
      8 O          22.2565   71.7442    3.2537 O.3     1  UNL1       -0.3779
      9 C          22.1154   71.5311    0.8360 C.3     1  UNL1        0.1713
     10 C          22.9052   72.0234    2.0303 C.3     1  UNL1        0.1895
     11 C          23.1937   71.4146   -0.2332 C.3     1  UNL1        0.1764
     12 C          24.2137   71.2668    1.8771 C.3     1  UNL1        0.2383
     13 H          21.1378   69.9346    0.2827 H       1  UNL1        0.2105
     14 H          21.3842   72.1738    3.2272 H       1  UNL1        0.2106
     15 O          24.1650   74.0116    2.5400 O.2     1  UNL1       -0.2464
     16 O          28.5661   73.9471    3.9058 O.2     1  UNL1       -0.2670
     17 N          25.3320   71.9926    2.4082 N.ar    1  UNL1       -0.2551
     18 N          26.3568   73.9778    3.2192 N.ar    1  UNL1       -0.2743
     19 C          25.2034   73.3692    2.7069 C.ar    1  UNL1        0.3323
     20 C          26.5403   71.3406    2.6278 C.ar    1  UNL1        0.0869
     21 C          27.6308   71.9347    3.1173 C.ar    1  UNL1        0.0795
     22 C          27.5808   73.3711    3.4546 C.ar    1  UNL1        0.2626
     23 H          26.2877   74.9674    3.4406 H       1  UNL1        0.1734
     24 O          22.2177   71.8772   -4.5514 O.3     1  UNL1       -0.2703
     25 P          21.4006   72.8234   -5.5759 P.3     1  UNL1        0.2208
     26 O          21.9355   72.3485   -7.0265 O.3     1  UNL1       -0.4371
     27 O          21.5519   74.2939   -5.3102 O.2     1  UNL1       -0.5170
     28 O          19.8806   72.2861   -5.5050 O.3     1  UNL1       -0.2858
     29 O          19.3815   70.0460   -4.9288 O.3     1  UNL1       -0.3226
     30 O          15.9038   71.2426   -6.8661 O.3     1  UNL1       -0.3794
     31 O          18.5176   72.0305   -7.8924 O.3     1  UNL1       -0.3775
     32 O          16.7324   69.0492   -5.4060 O.3     1  UNL1       -0.3792
     33 C          17.0738   71.3493   -6.0599 C.3     1  UNL1        0.1718
     34 C          18.3244   71.0389   -6.8892 C.3     1  UNL1        0.1968
     35 C          16.9620   70.3653   -4.8922 C.3     1  UNL1        0.1723
     36 C          19.5692   70.9826   -5.9949 C.3     1  UNL1        0.2706
     37 C          18.2659   70.3619   -4.0973 C.3     1  UNL1        0.1830
     38 H          15.1387   71.4445   -6.3009 H       1  UNL1        0.2105
     39 H          19.3232   71.7977   -8.3838 H       1  UNL1        0.2106
     40 H          17.5617   68.7191   -5.7915 H       1  UNL1        0.2106
     41 O          18.6371   69.8496   -1.8382 O.co2   1  UNL1       -0.5466
     42 O          17.9293   68.1519   -3.1850 O.co2   1  UNL1       -0.5466
     43 C          18.2497   69.3206   -3.0238 C.2     1  UNL1        0.0799
@<TRIPOS>UNITY_ATOM_ATTR
41 1
charge -1
@<TRIPOS>BOND
     1     1     4    1
     2     1    24    1
     3     1     2    1
     4     1     3    2
     5    25    28    1
     6    25    24    1
     7    25    26    1
     8    25    27    2
     9     6    11    1
    10     6    12    1
    11    29    36    1
    12    29    37    1
    13     7     9    1
    14     7    13    1
    15     8    10    1
    16     8    14    1
    17     4     5    1
    18    28    36    1
    19    30    33    1
    20    30    38    1
    21    31    34    1
    22    31    39    1
    23    32    35    1
    24    32    40    1
    25    41    43   ar
    26    15    19    2
    27    42    43   ar
    28    16    22    2
    29    17    12    1
    30    17    19   ar
    31    17    20   ar
    32    18    19   ar
    33    18    22   ar
    34    18    23    1
    35     9    10    1
    36     9    11    1
    37    10    12    1
    38    11     5    1
    39    33    34    1
    40    33    35    1
    41    34    36    1
    42    35    37    1
    43    37    43    1
    44    20    21   ar
    45    21    22   ar
@<TRIPOS>MOLECULE
UDP-glaA
 43 45 0 0 0
SMALL
GASTEIGER

@<TRIPOS>ATOM
      1 P          23.1212   71.4701   -2.3886 P.3     1  UNL1        0.2189
      2 O          23.1667   73.0668   -2.1321 O.3     1  UNL1       -0.4371
      3 O          24.3487   70.8976   -3.0348 O.2     1  UNL1       -0.5170
      4 O          21.7345   71.2434   -3.1894 O.3     1  UNL1       -0.3112
      5 C          21.2165   72.3121   -3.9631 C.3     1  UNL1        0.1811
      6 O          21.4118   71.5692   -6.2400 O.3     1  UNL1       -0.3308
      7 O          23.1569   73.9683   -6.6765 O.3     1  UNL1       -0.3794
      8 O          20.7675   74.7730   -7.7154 O.3     1  UNL1       -0.3779
      9 C          22.0037   73.8292   -5.8467 C.3     1  UNL1        0.1713
     10 C          20.7485   73.7985   -6.6929 C.3     1  UNL1        0.1895
     11 C          22.0205   72.4279   -5.2504 C.3     1  UNL1        0.1764
     12 C          20.7693   72.3803   -7.2373 C.3     1  UNL1        0.2383
     13 H          23.9365   73.9437   -6.0958 H       1  UNL1        0.2105
     14 H          20.8649   75.6421   -7.2896 H       1  UNL1        0.2106
     15 O          20.1867   70.2431   -8.9890 O.2     1  UNL1       -0.2464
     16 O          15.6739   70.4950   -8.0887 O.2     1  UNL1       -0.2670
     17 N          19.4514   71.8666   -7.4792 N.ar    1  UNL1       -0.2551
     18 N          17.9398   70.3703   -8.5399 N.ar    1  UNL1       -0.2743
     19 C          19.2666   70.7907   -8.3787 C.ar    1  UNL1        0.3323
     20 C          18.3583   72.4281   -6.8286 C.ar    1  UNL1        0.0869
     21 C          17.0994   72.0156   -6.9926 C.ar    1  UNL1        0.0795
     22 C          16.8202   70.8975   -7.9153 C.ar    1  UNL1        0.2626
     23 H          17.7831   69.5984   -9.1824 H       1  UNL1        0.1734
     24 O          22.7938   70.8765   -0.9204 O.3     1  UNL1       -0.2703
     25 P          21.6848   71.3065    0.1740 P.3     1  UNL1        0.2208
     26 O          21.5612   69.9948    1.1122 O.3     1  UNL1       -0.4371
     27 O          20.3844   71.7712   -0.4165 O.2     1  UNL1       -0.5170
     28 O          22.4261   72.4016    1.0988 O.3     1  UNL1       -0.2858
     29 O          24.2649   72.4801    2.5861 O.3     1  UNL1       -0.3226
     30 O          21.3445   74.5474    4.7019 O.3     1  UNL1       -0.3794
     31 O          20.6645   72.1366    3.2082 O.3     1  UNL1       -0.3775
     32 O          24.0486   74.0549    4.9760 O.3     1  UNL1       -0.3792
     33 C          22.0804   74.0774    3.5759 C.3     1  UNL1        0.1718
     34 C          21.9987   72.5499    3.4839 C.3     1  UNL1        0.1968
     35 C          23.5402   74.5162    3.7201 C.3     1  UNL1        0.1723
     36 C          22.9244   72.0219    2.3809 C.3     1  UNL1        0.2706
     37 C          24.3738   73.9026    2.5972 C.3     1  UNL1        0.1830
     38 H          21.4260   75.5162    4.7220 H       1  UNL1        0.2105
     39 H          20.6642   71.1663    3.1497 H       1  UNL1        0.2106
     40 H          24.1936   73.0954    4.9170 H       1  UNL1        0.2106
     41 O          26.4842   73.1139    3.2512 O.co2   1  UNL1       -0.5466
     42 O          26.3631   75.2685    2.5162 O.co2   1  UNL1       -0.5466
     43 C          25.8294   74.1988    2.7717 C.2     1  UNL1        0.0799
@<TRIPOS>UNITY_ATOM_ATTR
41 1
charge -1
@<TRIPOS>BOND
     1     1     4    1
     2     1    24    1
     3     1     2    1
     4     1     3    2
     5    25    28    1
     6    25    24    1
     7    25    26    1
     8    25    27    2
     9     6    11    1
    10     6    12    1
    11    29    36    1
    12    29    37    1
    13     7     9    1
    14     7    13    1
    15     8    10    1
    16     8    14    1
    17     4     5    1
    18    28    36    1
    19    30    33    1
    20    30    38    1
    21    31    34    1
    22    31    39    1
    23    32    35    1
    24    32    40    1
    25    41    43   ar
    26    15    19    2
    27    42    43   ar
    28    16    22    2
    29    17    12    1
    30    17    19   ar
    31    17    20   ar
    32    18    19   ar
    33    18    22   ar
    34    18    23    1
    35     9    10    1
    36     9    11    1
    37    10    12    1
    38    11     5    1
    39    33    34    1
    40    33    35    1
    41    34    36    1
    42    35    37    1
    43    37    43    1
    44    20    21   ar
    45    21    22   ar
@<TRIPOS>MOLECULE
UDP-glaA
 43 45 0 0 0
SMALL
GASTEIGER

@<TRIPOS>ATOM
      1 P          21.9336   72.4185   -5.8139 P.3     1  UNL1        0.2189
      2 O          21.2559   73.8265   -5.3949 O.3     1  UNL1       -0.4371
      3 O          23.1308   72.5344   -6.7114 O.2     1  UNL1       -0.5170
      4 O          20.6998   71.5503   -6.3966 O.3     1  UNL1       -0.3112
      5 C          20.1143   71.9452   -7.6256 C.3     1  UNL1        0.1811
      6 O          18.8986   69.9126   -7.2200 O.3     1  UNL1       -0.3308
      7 O          18.0943   70.0379  -10.1060 O.3     1  UNL1       -0.3794
      8 O          15.8768   70.9792   -8.8284 O.3     1  UNL1       -0.3779
      9 C          18.2803   71.1023   -9.1731 C.3     1  UNL1        0.1713
     10 C          17.1270   71.1492   -8.1931 C.3     1  UNL1        0.1895
     11 C          19.4510   70.7365   -8.2703 C.3     1  UNL1        0.1764
     12 C          17.4648   70.0046   -7.2530 C.3     1  UNL1        0.2383
     13 H          18.8739   70.0223  -10.6870 H       1  UNL1        0.2105
     14 H          15.7856   71.6872   -9.4892 H       1  UNL1        0.2106
     15 O          16.2351   68.0311   -5.6504 O.2     1  UNL1       -0.2464
     16 O          15.6422   70.9772   -2.1565 O.2     1  UNL1       -0.2670
     17 N          16.9802   70.2281   -5.9209 N.ar    1  UNL1       -0.2551
     18 N          15.9402   69.4996   -3.9118 N.ar    1  UNL1       -0.2743
     19 C          16.3775   69.1699   -5.2015 C.ar    1  UNL1        0.3323
     20 C          17.1041   71.4854   -5.3401 C.ar    1  UNL1        0.0869
     21 C          16.6826   71.7837   -4.1092 C.ar    1  UNL1        0.0795
     22 C          16.0411   70.7352   -3.2915 C.ar    1  UNL1        0.2626
     23 H          15.5031   68.7543   -3.3763 H       1  UNL1        0.1734
     24 O          22.2276   71.7187   -4.3860 O.3     1  UNL1       -0.2703
     25 P          23.4146   71.9538   -3.3144 P.3     1  UNL1        0.2208
     26 O          24.1768   73.2610   -3.8858 O.3     1  UNL1       -0.4371
     27 O          24.3020   70.7601   -3.1063 O.2     1  UNL1       -0.5170
     28 O          22.6656   72.4682   -1.9808 O.3     1  UNL1       -0.2858
     29 O          22.7089   70.9264   -0.1863 O.3     1  UNL1       -0.3226
     30 O          20.0296   73.7906    1.1908 O.3     1  UNL1       -0.3794
     31 O          19.9702   72.9233   -1.5931 O.3     1  UNL1       -0.3775
     32 O          21.3102   71.5767    2.2343 O.3     1  UNL1       -0.3792
     33 C          21.1558   73.2537    0.5026 C.3     1  UNL1        0.1718
     34 C          20.7018   72.2572   -0.5694 C.3     1  UNL1        0.1968
     35 C          22.0678   72.5550    1.5147 C.3     1  UNL1        0.1723
     36 C          21.9079   71.5475   -1.1970 C.3     1  UNL1        0.2706
     37 C          23.2064   71.8514    0.7794 C.3     1  UNL1        0.1830
     38 H          20.3636   74.4126    1.8596 H       1  UNL1        0.2105
     39 H          19.7129   72.2561   -2.2514 H       1  UNL1        0.2106
     40 H          21.1445   70.8205    1.6462 H       1  UNL1        0.2106
     41 O          23.6115   71.1857    2.9922 O.co2   1  UNL1       -0.5466
     42 O          25.0020   70.3560    1.3874 O.co2   1  UNL1       -0.5466
     43 C          24.0494   71.0475    1.7175 C.2     1  UNL1        0.0799
@<TRIPOS>UNITY_ATOM_ATTR
41 1
charge -1
@<TRIPOS>BOND
     1     1     4    1
     2     1    24    1
     3     1     2    1
     4     1     3    2
     5    25    28    1
     6    25    24    1
     7    25    26    1
     8    25    27    2
     9     6    11    1
    10     6    12    1
    11    29    36    1
    12    29    37    1
    13     7     9    1
    14     7    13    1
    15     8    10    1
    16     8    14    1
    17     4     5    1
    18    28    36    1
    19    30    33    1
    20    30    38    1
    21    31    34    1
    22    31    39    1
    23    32    35    1
    24    32    40    1
    25    41    43   ar
    26    15    19    2
    27    42    43   ar
    28    16    22    2
    29    17    12    1
    30    17    19   ar
    31    17    20   ar
    32    18    19   ar
    33    18    22   ar
    34    18    23    1
    35     9    10    1
    36     9    11    1
    37    10    12    1
    38    11     5    1
    39    33    34    1
    40    33    35    1
    41    34    36    1
    42    35    37    1
    43    37    43    1
    44    20    21   ar
    45    21    22   ar
@<TRIPOS>MOLECULE
UDP-glaA
 43 45 0 0 0
SMALL
GASTEIGER

@<TRIPOS>ATOM
      1 P          20.6394   73.1156   -5.3108 P.3     1  UNL1        0.2189
      2 O          19.2435   73.8017   -4.8660 O.3     1  UNL1       -0.4371
      3 O          21.6264   74.0468   -5.9519 O.2     1  UNL1       -0.5170
      4 O          20.1830   71.8493   -6.2074 O.3     1  UNL1       -0.3112
      5 C          19.9596   72.0459   -7.5933 C.3     1  UNL1        0.1811
      6 O          18.7781   70.0128   -7.0983 O.3     1  UNL1       -0.3308
      7 O          18.0657   69.9382  -10.0101 O.3     1  UNL1       -0.3794
      8 O          15.7867   70.9017   -8.8639 O.3     1  UNL1       -0.3779
      9 C          18.1967   71.0629   -9.1409 C.3     1  UNL1        0.1713
     10 C          17.0114   71.1420   -8.2021 C.3     1  UNL1        0.1895
     11 C          19.3455   70.7832   -8.1808 C.3     1  UNL1        0.1764
     12 C          17.3444   70.0669   -7.1817 C.3     1  UNL1        0.2383
     13 H          18.8639   69.9058  -10.5645 H       1  UNL1        0.2105
     14 H          15.7009   71.5647   -9.5705 H       1  UNL1        0.2106
     15 O          16.5476   68.1131   -5.3047 O.2     1  UNL1       -0.2464
     16 O          15.3120   71.3116   -2.2256 O.2     1  UNL1       -0.2670
     17 N          16.8117   70.3608   -5.8820 N.ar    1  UNL1       -0.2551
     18 N          15.9324   69.7071   -3.7729 N.ar    1  UNL1       -0.2743
     19 C          16.4410   69.3062   -5.0153 C.ar    1  UNL1        0.3323
     20 C          16.6608   71.6825   -5.4774 C.ar    1  UNL1        0.0869
     21 C          16.1747   72.0485   -4.2893 C.ar    1  UNL1        0.0795
     22 C          15.7633   71.0084   -3.3258 C.ar    1  UNL1        0.2626
     23 H          15.6588   68.9657   -3.1337 H       1  UNL1        0.1734
     24 O          21.1557   72.4247   -3.9429 O.3     1  UNL1       -0.2703
     25 P          20.3493   71.6462   -2.7783 P.3     1  UNL1        0.2208
     26 O          21.5273   70.9765   -1.8952 O.3     1  UNL1       -0.4371
     27 O          19.3238   70.6725   -3.2844 O.2     1  UNL1       -0.5170
     28 O          19.7520   72.8168   -1.8418 O.3     1  UNL1       -0.2858
     29 O          21.0962   72.7913    0.1054 O.3     1  UNL1       -0.3226
     30 O          23.9042   73.4749   -2.8824 O.3     1  UNL1       -0.3794
     31 O          21.3102   74.8060   -2.9545 O.3     1  UNL1       -0.3775
     32 O          23.9498   72.9133   -0.1782 O.3     1  UNL1       -0.3792
     33 C          22.7297   72.9586   -2.2625 C.3     1  UNL1        0.1718
     34 C          21.8107   74.1031   -1.8221 C.3     1  UNL1        0.1968
     35 C          23.1384   72.1186   -1.0494 C.3     1  UNL1        0.1723
     36 C          20.6297   73.5671   -1.0034 C.3     1  UNL1        0.2706
     37 C          21.8908   71.6740   -0.2891 C.3     1  UNL1        0.1830
     38 H          24.4560   72.7175   -3.1420 H       1  UNL1        0.2105
     39 H          20.7281   75.5125   -2.6275 H       1  UNL1        0.2106
     40 H          23.3778   73.5534    0.2781 H       1  UNL1        0.2106
     41 O          23.4141   70.2873    0.8336 O.co2   1  UNL1       -0.5466
     42 O          21.5822   70.9773    2.0019 O.co2   1  UNL1       -0.5466
     43 C          22.2464   70.9595    0.9758 C.2     1  UNL1        0.0799
@<TRIPOS>UNITY_ATOM_ATTR
41 1
charge -1
@<TRIPOS>BOND
     1     1     4    1
     2     1    24    1
     3     1     2    1
     4     1     3    2
     5    25    28    1
     6    25    24    1
     7    25    26    1
     8    25    27    2
     9     6    11    1
    10     6    12    1
    11    29    36    1
    12    29    37    1
    13     7     9    1
    14     7    13    1
    15     8    10    1
    16     8    14    1
    17     4     5    1
    18    28    36    1
    19    30    33    1
    20    30    38    1
    21    31    34    1
    22    31    39    1
    23    32    35    1
    24    32    40    1
    25    41    43   ar
    26    15    19    2
    27    42    43   ar
    28    16    22    2
    29    17    12    1
    30    17    19   ar
    31    17    20   ar
    32    18    19   ar
    33    18    22   ar
    34    18    23    1
    35     9    10    1
    36     9    11    1
    37    10    12    1
    38    11     5    1
    39    33    34    1
    40    33    35    1
    41    34    36    1
    42    35    37    1
    43    37    43    1
    44    20    21   ar
    45    21    22   ar
@<TRIPOS>MOLECULE
UDP-glaA
 43 45 0 0 0
SMALL
GASTEIGER

@<TRIPOS>ATOM
      1 P          23.7750   73.0426   -3.5999 P.3     1  UNL1        0.2189
      2 O          25.0428   74.0188   -3.8390 O.3     1  UNL1       -0.4371
      3 O          24.0659   71.5783   -3.7529 O.2     1  UNL1       -0.5170
      4 O          22.6340   73.6387   -4.5788 O.3     1  UNL1       -0.3112
      5 C          21.4123   72.9310   -4.7049 C.3     1  UNL1        0.1811
      6 O          20.7897   70.8108   -5.6489 O.3     1  UNL1       -0.3308
      7 O          21.3153   72.0587   -8.3243 O.3     1  UNL1       -0.3794
      8 O          18.5964   72.1626   -8.1425 O.3     1  UNL1       -0.3779
      9 C          20.7612   72.6458   -7.1470 C.3     1  UNL1        0.1713
     10 C          19.3394   72.1678   -6.9410 C.3     1  UNL1        0.1895
     11 C          21.4762   72.0475   -5.9426 C.3     1  UNL1        0.1764
     12 C          19.5535   70.7720   -6.3807 C.3     1  UNL1        0.2383
     13 H          22.2365   72.3622   -8.3935 H       1  UNL1        0.2105
     14 H          18.5987   73.0704   -8.4920 H       1  UNL1        0.2106
     15 O          17.0668   69.7361   -7.2284 O.2     1  UNL1       -0.2464
     16 O          15.5801   69.2606   -2.8922 O.2     1  UNL1       -0.2670
     17 N          18.4988   70.3690   -5.4951 N.ar    1  UNL1       -0.2551
     18 N          16.3279   69.5005   -5.0686 N.ar    1  UNL1       -0.2743
     19 C          17.2881   69.8623   -6.0226 C.ar    1  UNL1        0.3323
     20 C          18.6693   70.4778   -4.1194 C.ar    1  UNL1        0.0869
     21 C          17.7444   70.1281   -3.2227 C.ar    1  UNL1        0.0795
     22 C          16.4514   69.5907   -3.6908 C.ar    1  UNL1        0.2626
     23 H          15.4494   69.1342   -5.4251 H       1  UNL1        0.1734
     24 O          23.2559   73.4762   -2.1309 O.3     1  UNL1       -0.2703
     25 P          22.3072   72.7073   -1.0720 P.3     1  UNL1        0.2208
     26 O          22.7697   71.1637   -1.2119 O.3     1  UNL1       -0.4371
     27 O          20.8377   72.9357   -1.2826 O.2     1  UNL1       -0.5170
     28 O          22.8527   73.1676    0.3752 O.3     1  UNL1       -0.2858
     29 O          23.9720   72.6556    2.3962 O.3     1  UNL1       -0.3226
     30 O          19.9817   72.5268    3.5538 O.3     1  UNL1       -0.3794
     31 O          20.8189   71.4062    0.9946 O.3     1  UNL1       -0.3775
     32 O          22.4387   72.4345    4.8125 O.3     1  UNL1       -0.3792
     33 C          21.1406   72.9520    2.8422 C.3     1  UNL1        0.1718
     34 C          21.7216   71.7928    2.0255 C.3     1  UNL1        0.1968
     35 C          22.1801   73.4582    3.8460 C.3     1  UNL1        0.1723
     36 C          23.0615   72.1908    1.3943 C.3     1  UNL1        0.2706
     37 C          23.4813   73.7852    3.1165 C.3     1  UNL1        0.1830
     38 H          19.6501   73.2899    4.0571 H       1  UNL1        0.2105
     39 H          21.2324   70.6785    0.5003 H       1  UNL1        0.2106
     40 H          22.9735   71.7403    4.3916 H       1  UNL1        0.2106
     41 O          24.0553   74.8208    5.1418 O.co2   1  UNL1       -0.5466
     42 O          25.7531   73.9072    3.9252 O.co2   1  UNL1       -0.5466
     43 C          24.5665   74.1605    4.0749 C.2     1  UNL1        0.0799
@<TRIPOS>UNITY_ATOM_ATTR
41 1
charge -1
@<TRIPOS>BOND
     1     1     4    1
     2     1    24    1
     3     1     2    1
     4     1     3    2
     5    25    28    1
     6    25    24    1
     7    25    26    1
     8    25    27    2
     9     6    11    1
    10     6    12    1
    11    29    36    1
    12    29    37    1
    13     7     9    1
    14     7    13    1
    15     8    10    1
    16     8    14    1
    17     4     5    1
    18    28    36    1
    19    30    33    1
    20    30    38    1
    21    31    34    1
    22    31    39    1
    23    32    35    1
    24    32    40    1
    25    41    43   ar
    26    15    19    2
    27    42    43   ar
    28    16    22    2
    29    17    12    1
    30    17    19   ar
    31    17    20   ar
    32    18    19   ar
    33    18    22   ar
    34    18    23    1
    35     9    10    1
    36     9    11    1
    37    10    12    1
    38    11     5    1
    39    33    34    1
    40    33    35    1
    41    34    36    1
    42    35    37    1
    43    37    43    1
    44    20    21   ar
    45    21    22   ar
@<TRIPOS>MOLECULE
UDP-glaA
 43 45 0 0 0
SMALL
GASTEIGER

@<TRIPOS>ATOM
      1 P          23.1252   71.9137   -2.8594 P.3     1  UNL1        0.2189
      2 O          24.1760   70.7085   -3.1060 O.3     1  UNL1       -0.4371
      3 O          23.3427   73.1279   -3.7141 O.2     1  UNL1       -0.5170
      4 O          23.1819   72.1594   -1.2619 O.3     1  UNL1       -0.3112
      5 C          23.6962   71.1287   -0.4358 C.3     1  UNL1        0.1811
      6 O          23.6865   70.9223    1.9582 O.3     1  UNL1       -0.3308
      7 O          20.8219   71.7999    1.8353 O.3     1  UNL1       -0.3794
      8 O          22.1129   74.0833    2.5808 O.3     1  UNL1       -0.3779
      9 C          21.9289   72.2153    1.0355 C.3     1  UNL1        0.1713
     10 C          22.8367   73.1304    1.8300 C.3     1  UNL1        0.1895
     11 C          22.8219   71.0035    0.8037 C.3     1  UNL1        0.1764
     12 C          23.5891   72.1447    2.7076 C.3     1  UNL1        0.2383
     13 H          20.2911   71.1864    1.2992 H       1  UNL1        0.2105
     14 H          21.5761   74.6013    1.9565 H       1  UNL1        0.2106
     15 O          25.9533   70.6989    2.1639 O.2     1  UNL1       -0.2464
     16 O          28.6052   73.9861    4.0078 O.2     1  UNL1       -0.2670
     17 N          24.9105   72.5991    3.0341 N.ar    1  UNL1       -0.2551
     18 N          27.2722   72.3365    3.0829 N.ar    1  UNL1       -0.2743
     19 C          26.0317   71.7964    2.7188 C.ar    1  UNL1        0.3323
     20 C          25.0859   73.8281    3.6603 C.ar    1  UNL1        0.0869
     21 C          26.2753   74.3295    4.0005 C.ar    1  UNL1        0.0795
     22 C          27.4967   73.5537    3.7073 C.ar    1  UNL1        0.2626
     23 H          28.0923   71.7764    2.8665 H       1  UNL1        0.1734
     24 O          21.6923   71.1929   -3.0654 O.3     1  UNL1       -0.2703
     25 P          20.2361   71.5341   -2.4526 P.3     1  UNL1        0.2208
     26 O          20.3816   73.0760   -1.9864 O.3     1  UNL1       -0.4371
     27 O          19.7900   70.5975   -1.3665 O.2     1  UNL1       -0.5170
     28 O          19.2554   71.5853   -3.7330 O.3     1  UNL1       -0.2858
     29 O          18.8920   70.3770   -5.7348 O.3     1  UNL1       -0.3226
     30 O          18.8971   74.3100   -7.0803 O.3     1  UNL1       -0.3794
     31 O          20.8164   73.4298   -5.0686 O.3     1  UNL1       -0.3775
     32 O          18.3222   71.8271   -8.1455 O.3     1  UNL1       -0.3792
     33 C          18.6758   73.2127   -6.1987 C.3     1  UNL1        0.1718
     34 C          20.0055   72.5442   -5.8333 C.3     1  UNL1        0.1968
     35 C          17.7534   72.2028   -6.8868 C.3     1  UNL1        0.1723
     36 C          19.7652   71.2624   -5.0261 C.3     1  UNL1        0.2706
     37 C          17.6184   70.9551   -6.0166 C.3     1  UNL1        0.1830
     38 H          18.0305   74.7003   -7.2862 H       1  UNL1        0.2105
     39 H          21.6404   72.9612   -4.8535 H       1  UNL1        0.2106
     40 H          19.0784   71.2391   -7.9795 H       1  UNL1        0.2106
     41 O          16.3544   70.3379   -7.8942 O.co2   1  UNL1       -0.5466
     42 O          16.6399   68.7625   -6.2713 O.co2   1  UNL1       -0.5466
     43 C          16.8303   69.8884   -6.7080 C.2     1  UNL1        0.0799
@<TRIPOS>UNITY_ATOM_ATTR
41 1
charge -1
@<TRIPOS>BOND
     1     1     4    1
     2     1    24    1
     3     1     2    1
     4     1     3    2
     5    25    28    1
     6    25    24    1
     7    25    26    1
     8    25    27    2
     9     6    11    1
    10     6    12    1
    11    29    36    1
    12    29    37    1
    13     7     9    1
    14     7    13    1
    15     8    10    1
    16     8    14    1
    17     4     5    1
    18    28    36    1
    19    30    33    1
    20    30    38    1
    21    31    34    1
    22    31    39    1
    23    32    35    1
    24    32    40    1
    25    41    43   ar
    26    15    19    2
    27    42    43   ar
    28    16    22    2
    29    17    12    1
    30    17    19   ar
    31    17    20   ar
    32    18    19   ar
    33    18    22   ar
    34    18    23    1
    35     9    10    1
    36     9    11    1
    37    10    12    1
    38    11     5    1
    39    33    34    1
    40    33    35    1
    41    34    36    1
    42    35    37    1
    43    37    43    1
    44    20    21   ar
    45    21    22   ar
@<TRIPOS>MOLECULE
UDP-glaA
 43 45 0 0 0
SMALL
GASTEIGER

@<TRIPOS>ATOM
      1 P          20.1036   70.6449   -2.1052 P.3     1  UNL1        0.2189
      2 O          18.6870   69.8862   -1.9183 O.3     1  UNL1       -0.4371
      3 O          21.0141   70.0412   -3.1341 O.2     1  UNL1       -0.5170
      4 O          20.6996   70.7328   -0.6043 O.3     1  UNL1       -0.3112
      5 C          21.5103   71.8438   -0.2614 C.3     1  UNL1        0.1811
      6 O          21.9952   71.8162    2.0920 O.3     1  UNL1       -0.3308
      7 O          20.3111   74.2902    2.2778 O.3     1  UNL1       -0.3794
      8 O          22.8471   75.2915    2.3198 O.3     1  UNL1       -0.3779
      9 C          21.1947   73.8752    1.2363 C.3     1  UNL1        0.1713
     10 C          22.6351   74.0575    1.6658 C.3     1  UNL1        0.1895
     11 C          21.0899   72.3613    1.1069 C.3     1  UNL1        0.1764
     12 C          22.8438   72.8660    2.5850 C.3     1  UNL1        0.2383
     13 H          19.4036   74.1189    1.9734 H       1  UNL1        0.2105
     14 H          22.5881   75.9979    1.7033 H       1  UNL1        0.2106
     15 O          23.6712   70.3303    1.6572 O.2     1  UNL1       -0.2464
     16 O          28.0871   71.2085    2.6409 O.2     1  UNL1       -0.2670
     17 N          24.2031   72.4061    2.5864 N.ar    1  UNL1       -0.2551
     18 N          25.8695   70.7691    2.1481 N.ar    1  UNL1       -0.2743
     19 C          24.5126   71.1148    2.0992 C.ar    1  UNL1        0.3323
     20 C          25.2136   73.2315    3.0673 C.ar    1  UNL1        0.0869
     21 C          26.5027   72.8875    3.1068 C.ar    1  UNL1        0.0795
     22 C          26.9102   71.5555    2.6176 C.ar    1  UNL1        0.2626
     23 H          26.1153   69.8450    1.8035 H       1  UNL1        0.1734
     24 O          19.6604   72.1700   -2.4099 O.3     1  UNL1       -0.2703
     25 P          19.9483   73.1236   -3.6828 P.3     1  UNL1        0.2208
     26 O          21.3713   72.5875   -4.2338 O.3     1  UNL1       -0.4371
     27 O          19.9176   74.5926   -3.3714 O.2     1  UNL1       -0.5170
     28 O          18.8770   72.6554   -4.7950 O.3     1  UNL1       -0.2858
     29 O          18.4039   70.3749   -5.2134 O.3     1  UNL1       -0.3226
     30 O          17.1360   72.1874   -8.7329 O.3     1  UNL1       -0.3794
     31 O          19.6017   73.0424   -7.4309 O.3     1  UNL1       -0.3775
     32 O          16.9838   69.6700   -7.6061 O.3     1  UNL1       -0.3792
     33 C          17.3915   72.0359   -7.3393 C.3     1  UNL1        0.1718
     34 C          18.8924   71.8568   -7.0875 C.3     1  UNL1        0.1968
     35 C          16.6245   70.8145   -6.8251 C.3     1  UNL1        0.1723
     36 C          19.1600   71.5222   -5.6148 C.3     1  UNL1        0.2706
     37 C          16.9965   70.5512   -5.3676 C.3     1  UNL1        0.1830
     38 H          16.1761   72.2950   -8.8452 H       1  UNL1        0.2105
     39 H          20.5430   72.8851   -7.2462 H       1  UNL1        0.2106
     40 H          17.8803   69.3922   -7.3527 H       1  UNL1        0.2106
     41 O          16.3096   68.3592   -5.8439 O.co2   1  UNL1       -0.5466
     42 O          15.9680   69.1159   -3.7208 O.co2   1  UNL1       -0.5466
     43 C          16.3699   69.2907   -4.8620 C.2     1  UNL1        0.0799
@<TRIPOS>UNITY_ATOM_ATTR
41 1
charge -1
@<TRIPOS>BOND
     1     1     4    1
     2     1    24    1
     3     1     2    1
     4     1     3    2
     5    25    28    1
     6    25    24    1
     7    25    26    1
     8    25    27    2
     9     6    11    1
    10     6    12    1
    11    29    36    1
    12    29    37    1
    13     7     9    1
    14     7    13    1
    15     8    10    1
    16     8    14    1
    17     4     5    1
    18    28    36    1
    19    30    33    1
    20    30    38    1
    21    31    34    1
    22    31    39    1
    23    32    35    1
    24    32    40    1
    25    41    43   ar
    26    15    19    2
    27    42    43   ar
    28    16    22    2
    29    17    12    1
    30    17    19   ar
    31    17    20   ar
    32    18    19   ar
    33    18    22   ar
    34    18    23    1
    35     9    10    1
    36     9    11    1
    37    10    12    1
    38    11     5    1
    39    33    34    1
    40    33    35    1
    41    34    36    1
    42    35    37    1
    43    37    43    1
    44    20    21   ar
    45    21    22   ar
@<TRIPOS>MOLECULE
UDP-glaA
 43 45 0 0 0
SMALL
GASTEIGER

@<TRIPOS>ATOM
      1 P          23.4075   72.2347   -3.6065 P.3     1  UNL1        0.2189
      2 O          23.9271   70.7405   -3.2676 O.3     1  UNL1       -0.4371
      3 O          24.4779   73.1950   -4.0357 O.2     1  UNL1       -0.5170
      4 O          22.5655   72.6617   -2.2933 O.3     1  UNL1       -0.3112
      5 C          23.2535   72.7944   -1.0611 C.3     1  UNL1        0.1811
      6 O          24.3188   71.2948    0.4852 O.3     1  UNL1       -0.3308
      7 O          21.5765   70.2150    1.0378 O.3     1  UNL1       -0.3794
      8 O          22.0113   71.8565    3.1714 O.3     1  UNL1       -0.3779
      9 C          21.9801   71.5556    0.7591 C.3     1  UNL1        0.1713
     10 C          22.6775   72.1549    1.9620 C.3     1  UNL1        0.1895
     11 C          23.1037   71.5040   -0.2678 C.3     1  UNL1        0.1764
     12 C          24.0534   71.5159    1.8801 C.3     1  UNL1        0.2383
     13 H          21.1709   69.8602    0.2284 H       1  UNL1        0.2105
     14 H          21.1056   72.2040    3.1002 H       1  UNL1        0.2106
     15 O          26.6712   70.6466    2.4855 O.2     1  UNL1       -0.2464
     16 O          27.9150   74.8303    3.9648 O.2     1  UNL1       -0.2670
     17 N          25.0815   72.3567    2.4237 N.ar    1  UNL1       -0.2551
     18 N          27.2887   72.7303    3.2222 N.ar    1  UNL1       -0.2743
     19 C          26.3630   71.8216    2.6927 C.ar    1  UNL1        0.3323
     20 C          24.8154   73.6962    2.6852 C.ar    1  UNL1        0.0869
     21 C          25.7089   74.5499    3.1897 C.ar    1  UNL1        0.0795
     22 C          27.0706   74.0710    3.4996 C.ar    1  UNL1        0.2626
     23 H          28.2165   72.3676    3.4240 H       1  UNL1        0.1734
     24 O          22.2534   71.9756   -4.7093 O.3     1  UNL1       -0.2703
     25 P          20.7995   71.2815   -4.5796 P.3     1  UNL1        0.2208
     26 O          19.9179   72.4057   -3.8213 O.3     1  UNL1       -0.4371
     27 O          20.8147   69.9425   -3.8992 O.2     1  UNL1       -0.5170
     28 O          20.2220   71.2572   -6.0862 O.3     1  UNL1       -0.2858
     29 O          17.9224   70.7040   -6.0151 O.3     1  UNL1       -0.3226
     30 O          18.6158   71.0224  -10.1013 O.3     1  UNL1       -0.3794
     31 O          20.5714   69.7345   -8.3626 O.3     1  UNL1       -0.3775
     32 O          16.4157   70.7238   -8.4581 O.3     1  UNL1       -0.3792
     33 C          18.7473   71.3024   -8.7105 C.3     1  UNL1        0.1718
     34 C          19.2457   70.0625   -7.9604 C.3     1  UNL1        0.1968
     35 C          17.3849   71.7345   -8.1613 C.3     1  UNL1        0.1723
     36 C          19.2265   70.3000   -6.4453 C.3     1  UNL1        0.2706
     37 C          17.4720   71.9019   -6.6459 C.3     1  UNL1        0.1830
     38 H          18.2965   71.8321  -10.5348 H       1  UNL1        0.2105
     39 H          20.8465   68.9519   -7.8560 H       1  UNL1        0.2106
     40 H          16.5715   69.9646   -7.8712 H       1  UNL1        0.2106
     41 O          16.0635   71.7399   -4.7767 O.co2   1  UNL1       -0.5466
     42 O          15.2210   72.7751   -6.6249 O.co2   1  UNL1       -0.5466
     43 C          16.1324   72.1976   -6.0501 C.2     1  UNL1        0.0799
@<TRIPOS>UNITY_ATOM_ATTR
41 1
charge -1
@<TRIPOS>BOND
     1     1     4    1
     2     1    24    1
     3     1     2    1
     4     1     3    2
     5    25    28    1
     6    25    24    1
     7    25    26    1
     8    25    27    2
     9     6    11    1
    10     6    12    1
    11    29    36    1
    12    29    37    1
    13     7     9    1
    14     7    13    1
    15     8    10    1
    16     8    14    1
    17     4     5    1
    18    28    36    1
    19    30    33    1
    20    30    38    1
    21    31    34    1
    22    31    39    1
    23    32    35    1
    24    32    40    1
    25    41    43   ar
    26    15    19    2
    27    42    43   ar
    28    16    22    2
    29    17    12    1
    30    17    19   ar
    31    17    20   ar
    32    18    19   ar
    33    18    22   ar
    34    18    23    1
    35     9    10    1
    36     9    11    1
    37    10    12    1
    38    11     5    1
    39    33    34    1
    40    33    35    1
    41    34    36    1
    42    35    37    1
    43    37    43    1
    44    20    21   ar
    45    21    22   ar
@<TRIPOS>MOLECULE
UDP-glaA
 43 45 0 0 0
SMALL
GASTEIGER

@<TRIPOS>ATOM
      1 P          16.2869   69.5240   -2.6913 P.3     1  UNL1        0.2189
      2 O          15.9309   69.0749   -4.2042 O.3     1  UNL1       -0.4371
      3 O          16.8959   68.4496   -1.8388 O.2     1  UNL1       -0.5170
      4 O          14.9070   70.1618   -2.1392 O.3     1  UNL1       -0.3112
      5 C          14.1605   69.4334   -1.1792 C.3     1  UNL1        0.1811
      6 O          11.8109   69.8826   -1.4070 O.3     1  UNL1       -0.3308
      7 O          12.0116   71.2781    1.2394 O.3     1  UNL1       -0.3794
      8 O          10.9315   68.8679    1.9176 O.3     1  UNL1       -0.3779
      9 C          12.6881   70.1072    0.7822 C.3     1  UNL1        0.1713
     10 C          11.7394   68.9274    0.7603 C.3     1  UNL1        0.1895
     11 C          13.0004   70.2926   -0.6969 C.3     1  UNL1        0.1764
     12 C          10.9346   69.1927   -0.5007 C.3     1  UNL1        0.2383
     13 H          12.6463   72.0138    1.1993 H       1  UNL1        0.2105
     14 H          11.5249   68.8080    2.6860 H       1  UNL1        0.2106
     15 O           8.9373   69.0822   -2.4942 O.2     1  UNL1       -0.2464
     16 O           9.2553   64.4960   -2.8164 O.2     1  UNL1       -0.2670
     17 N          10.4765   67.9837   -1.1232 N.ar    1  UNL1       -0.2551
     18 N           9.0966   66.7985   -2.6530 N.ar    1  UNL1       -0.2743
     19 C           9.4678   68.0371   -2.1134 C.ar    1  UNL1        0.3323
     20 C          11.0254   66.7615   -0.7512 C.ar    1  UNL1        0.0869
     21 C          10.6611   65.5892   -1.2754 C.ar    1  UNL1        0.0795
     22 C           9.6132   65.5573   -2.3150 C.ar    1  UNL1        0.2626
     23 H           8.3726   66.8126   -3.3662 H       1  UNL1        0.1734
     24 O          17.2252   70.8229   -2.9101 O.3     1  UNL1       -0.2703
     25 P          17.0812   72.0769   -3.9198 P.3     1  UNL1        0.2208
     26 O          17.3082   73.3565   -2.9569 O.3     1  UNL1       -0.4371
     27 O          15.7926   72.1020   -4.6909 O.2     1  UNL1       -0.5170
     28 O          18.4066   72.0166   -4.8383 O.3     1  UNL1       -0.2858
     29 O          18.2109   70.2507   -6.4011 O.3     1  UNL1       -0.3226
     30 O          22.0385   71.6766   -7.1730 O.3     1  UNL1       -0.3794
     31 O          21.0738   71.4306   -4.4316 O.3     1  UNL1       -0.3775
     32 O          20.2988   69.8723   -8.3340 O.3     1  UNL1       -0.3792
     33 C          20.6610   71.7112   -6.8102 C.3     1  UNL1        0.1718
     34 C          20.4164   70.8612   -5.5588 C.3     1  UNL1        0.1968
     35 C          19.8277   71.1762   -7.9780 C.3     1  UNL1        0.1723
     36 C          18.9158   70.7524   -5.2608 C.3     1  UNL1        0.2706
     37 C          18.3632   71.0717   -7.5580 C.3     1  UNL1        0.1830
     38 H          22.1460   72.2245   -7.9691 H       1  UNL1        0.2105
     39 H          20.8831   70.8653   -3.6642 H       1  UNL1        0.2106
     40 H          20.0094   69.2425   -7.6523 H       1  UNL1        0.2106
     41 O          16.2177   70.4810   -8.3008 O.co2   1  UNL1       -0.5466
     42 O          17.9710   69.9336   -9.6510 O.co2   1  UNL1       -0.5466
     43 C          17.5324   70.4318   -8.6244 C.2     1  UNL1        0.0799
@<TRIPOS>UNITY_ATOM_ATTR
41 1
charge -1
@<TRIPOS>BOND
     1     1     4    1
     2     1    24    1
     3     1     2    1
     4     1     3    2
     5    25    28    1
     6    25    24    1
     7    25    26    1
     8    25    27    2
     9     6    11    1
    10     6    12    1
    11    29    36    1
    12    29    37    1
    13     7     9    1
    14     7    13    1
    15     8    10    1
    16     8    14    1
    17     4     5    1
    18    28    36    1
    19    30    33    1
    20    30    38    1
    21    31    34    1
    22    31    39    1
    23    32    35    1
    24    32    40    1
    25    41    43   ar
    26    15    19    2
    27    42    43   ar
    28    16    22    2
    29    17    12    1
    30    17    19   ar
    31    17    20   ar
    32    18    19   ar
    33    18    22   ar
    34    18    23    1
    35     9    10    1
    36     9    11    1
    37    10    12    1
    38    11     5    1
    39    33    34    1
    40    33    35    1
    41    34    36    1
    42    35    37    1
    43    37    43    1
    44    20    21   ar
    45    21    22   ar
