@<TRIPOS>MOLECULE
*****
 43 45 0 0 0
SMALL
GASTEIGER

@<TRIPOS>ATOM
      1 P          22.8654   71.3850   -2.3584 P.3     1  UNL1        0.2189
      2 O          22.4275   72.8425   -2.9075 O.co2   1  UNL1       -0.4371
      3 O          24.1452   70.8503   -2.9309 O.2     1  UNL1       -0.5170
      4 O          21.5526   70.4697   -2.5966 O.3     1  UNL1       -0.3112
      5 C          20.8633   70.5840   -3.8294 C.3     1  UNL1        0.1811
      6 O          18.8973   71.6107   -4.7537 O.3     1  UNL1       -0.3308
      7 O          17.3924   70.3158   -2.5067 O.3     1  UNL1       -0.3794
      8 O          16.8571   68.6646   -4.6100 O.3     1  UNL1       -0.3779
      9 C          18.5062   69.8222   -3.2491 C.3     1  UNL1        0.1713
     10 C          18.0670   69.3942   -4.6339 C.3     1  UNL1        0.1895
     11 C          19.4241   70.9988   -3.5560 C.3     1  UNL1        0.1764
     12 C          17.9311   70.7285   -5.3477 C.3     1  UNL1        0.2383
     13 H          16.7920   69.5821   -2.2986 H       1  UNL1        0.2105
     14 H          16.9952   67.8244   -4.1455 H       1  UNL1        0.2106
     15 O          15.9353   70.6044   -7.3425 O.2     1  UNL1       -0.2464
     16 O          19.0650   70.3358  -10.7151 O.2     1  UNL1       -0.2670
     17 N          18.1962   70.6262   -6.7550 N.ar    1  UNL1       -0.2551
     18 N          17.4953   70.4709   -9.0202 N.ar    1  UNL1       -0.2743
     19 C          17.1223   70.5694   -7.6737 C.ar    1  UNL1        0.3323
     20 C          19.5091   70.5836   -7.2116 C.ar    1  UNL1        0.0869
     21 C          19.8480   70.4883   -8.4990 C.ar    1  UNL1        0.0795
     22 C          18.7857   70.4239   -9.5234 C.ar    1  UNL1        0.2626
     23 H          16.7639   70.4296   -9.6783 H       1  UNL1        0.1734
     24 O          22.8795   71.5898   -0.7551 O.3     1  UNL1       -0.2703
     25 P          21.6722   71.6487    0.3182 P.3     1  UNL1        0.2208
     26 O          21.6455   70.1508    0.9291 O.co2   1  UNL1       -0.4371
     27 O          20.3622   72.1077   -0.2537 O.2     1  UNL1       -0.5170
     28 O          22.2370   72.5684    1.5183 O.3     1  UNL1       -0.2858
     29 O          24.0204   71.6816    2.8027 O.3     1  UNL1       -0.3258
     30 O          22.7716   74.6600    5.3757 O.3     1  UNL1       -0.3794
     31 O          25.2411   74.9679    3.9422 O.3     1  UNL1       -0.3794
     32 O          20.8207   73.1383    3.8730 O.3     1  UNL1       -0.3775
     33 C          23.0329   74.0629    4.1027 C.3     1  UNL1        0.1715
     34 C          24.5259   73.7382    4.0226 C.3     1  UNL1        0.1694
     35 C          22.1980   72.7909    3.9671 C.3     1  UNL1        0.1967
     36 C          24.8369   72.8584    2.8043 C.3     1  UNL1        0.1761
     37 C          22.6208   71.9647    2.7510 C.3     1  UNL1        0.2704
     38 H          23.2983   75.4684    5.4680 H       1  UNL1        0.2105
     39 H          25.0355   75.5143    4.7171 H       1  UNL1        0.2105
     40 H          20.5654   73.6607    4.6487 H       1  UNL1        0.2106
     41 O          26.3207   71.0215    2.4395 O.3     1  UNL1       -0.3794
     42 C          26.2912   72.3924    2.7917 C.3     1  UNL1        0.1693
     43 H          27.2401   70.7112    2.4271 H       1  UNL1        0.2105
@<TRIPOS>UNITY_ATOM_ATTR
2 1
charge -1
26 1
charge -1
@<TRIPOS>BOND
     1    25    28    1
     2    25    24    1
     3    25    26    1
     4    25    27    2
     5     1     4    1
     6     1    24    1
     7     1     2    1
     8     1     3    2
     9     6    11    1
    10     6    12    1
    11    29    36    1
    12    29    37    1
    13     7     9    1
    14     7    13    1
    15     8    10    1
    16     8    14    1
    17    28    37    1
    18     4     5    1
    19    30    33    1
    20    30    38    1
    21    31    34    1
    22    31    39    1
    23    32    35    1
    24    32    40    1
    25    41    42    1
    26    41    43    1
    27    15    19    2
    28    16    22    2
    29    17    12    1
    30    17    19   ar
    31    17    20   ar
    32    18    19   ar
    33    18    22   ar
    34    18    23    1
    35     9    10    1
    36     9    11    1
    37    10    12    1
    38    11     5    1
    39    33    34    1
    40    33    35    1
    41    34    36    1
    42    35    37    1
    43    36    42    1
    44    20    21   ar
    45    21    22   ar
@<TRIPOS>MOLECULE
*****
 43 45 0 0 0
SMALL
GASTEIGER

@<TRIPOS>ATOM
      1 P          22.3495   71.3495   -2.5055 P.3     1  UNL1        0.2189
      2 O          21.8951   72.5014   -3.5467 O.co2   1  UNL1       -0.4371
      3 O          23.7149   70.7772   -2.7498 O.2     1  UNL1       -0.5170
      4 O          21.1271   70.2901   -2.5406 O.3     1  UNL1       -0.3112
      5 C          20.4138   70.1207   -3.7531 C.3     1  UNL1        0.1811
      6 O          18.6608   71.3967   -4.7888 O.3     1  UNL1       -0.3308
      7 O          16.8278   70.1820   -2.7504 O.3     1  UNL1       -0.3794
      8 O          16.3143   68.6908   -4.9751 O.3     1  UNL1       -0.3779
      9 C          17.9459   69.6002   -3.4187 C.3     1  UNL1        0.1713
     10 C          17.5920   69.2825   -4.8566 C.3     1  UNL1        0.1895
     11 C          19.0079   70.6802   -3.5837 C.3     1  UNL1        0.1764
     12 C          17.6646   70.6527   -5.5090 C.3     1  UNL1        0.2383
     13 H          16.1363   69.5110   -2.6334 H       1  UNL1        0.2105
     14 H          16.3193   67.8215   -4.5448 H       1  UNL1        0.2106
     15 O          15.8641   70.2004   -7.6378 O.2     1  UNL1       -0.2464
     16 O          19.2359   70.3978  -10.7735 O.2     1  UNL1       -0.2670
     17 N          18.0447   70.5815   -6.8917 N.ar    1  UNL1       -0.2551
     18 N          17.5444   70.2992   -9.1974 N.ar    1  UNL1       -0.2743
     19 C          17.0630   70.3493   -7.8830 C.ar    1  UNL1        0.3323
     20 C          19.3781   70.7414   -7.2529 C.ar    1  UNL1        0.0869
     21 C          19.8211   70.6897   -8.5108 C.ar    1  UNL1        0.0795
     22 C          18.8598   70.4509   -9.6067 C.ar    1  UNL1        0.2626
     23 H          16.8786   70.1382   -9.9049 H       1  UNL1        0.1734
     24 O          22.1679   72.0664   -1.0682 O.3     1  UNL1       -0.2703
     25 P          22.4613   71.5324    0.4291 P.3     1  UNL1        0.2208
     26 O          24.0650   71.3195    0.4394 O.co2   1  UNL1       -0.4371
     27 O          21.6724   70.3144    0.8136 O.2     1  UNL1       -0.5170
     28 O          22.2143   72.8158    1.3762 O.3     1  UNL1       -0.2858
     29 O          23.2208   74.7354    2.3346 O.3     1  UNL1       -0.3258
     30 O          22.4578   72.5984    5.7845 O.3     1  UNL1       -0.3794
     31 O          20.8814   74.9210    5.1774 O.3     1  UNL1       -0.3794
     32 O          23.3318   71.2184    3.3947 O.3     1  UNL1       -0.3775
     33 C          22.2027   73.0623    4.4560 C.3     1  UNL1        0.1715
     34 C          22.0867   74.5874    4.4946 C.3     1  UNL1        0.1694
     35 C          23.3537   72.6335    3.5479 C.3     1  UNL1        0.1967
     36 C          22.0797   75.1784    3.0784 C.3     1  UNL1        0.1761
     37 C          23.2790   73.3159    2.1808 C.3     1  UNL1        0.2704
     38 H          21.7304   72.8669    6.3661 H       1  UNL1        0.2105
     39 H          20.8984   74.5414    6.0701 H       1  UNL1        0.2105
     40 H          23.3799   70.7980    4.2670 H       1  UNL1        0.2106
     41 O          21.0564   77.1940    2.3041 O.3     1  UNL1       -0.3794
     42 C          22.1235   76.7048    3.0954 C.3     1  UNL1        0.1693
     43 H          21.0716   78.1643    2.3060 H       1  UNL1        0.2105
@<TRIPOS>UNITY_ATOM_ATTR
2 1
charge -1
26 1
charge -1
@<TRIPOS>BOND
     1    25    28    1
     2    25    24    1
     3    25    26    1
     4    25    27    2
     5     1     4    1
     6     1    24    1
     7     1     2    1
     8     1     3    2
     9     6    11    1
    10     6    12    1
    11    29    36    1
    12    29    37    1
    13     7     9    1
    14     7    13    1
    15     8    10    1
    16     8    14    1
    17    28    37    1
    18     4     5    1
    19    30    33    1
    20    30    38    1
    21    31    34    1
    22    31    39    1
    23    32    35    1
    24    32    40    1
    25    41    42    1
    26    41    43    1
    27    15    19    2
    28    16    22    2
    29    17    12    1
    30    17    19   ar
    31    17    20   ar
    32    18    19   ar
    33    18    22   ar
    34    18    23    1
    35     9    10    1
    36     9    11    1
    37    10    12    1
    38    11     5    1
    39    33    34    1
    40    33    35    1
    41    34    36    1
    42    35    37    1
    43    36    42    1
    44    20    21   ar
    45    21    22   ar
@<TRIPOS>MOLECULE
*****
 43 45 0 0 0
SMALL
GASTEIGER

@<TRIPOS>ATOM
      1 P          22.8325   71.4801   -2.4191 P.3     1  UNL1        0.2189
      2 O          22.3702   72.8246   -3.1912 O.co2   1  UNL1       -0.4371
      3 O          24.1101   70.8708   -2.9171 O.2     1  UNL1       -0.5170
      4 O          21.5271   70.5265   -2.4842 O.3     1  UNL1       -0.3112
      5 C          20.7985   70.4595   -3.6977 C.3     1  UNL1        0.1811
      6 O          18.9012   71.5880   -4.6467 O.3     1  UNL1       -0.3308
      7 O          17.2917   70.3316   -2.4508 O.3     1  UNL1       -0.3794
      8 O          16.7268   68.7365   -4.5893 O.3     1  UNL1       -0.3779
      9 C          18.3975   69.7981   -3.1776 C.3     1  UNL1        0.1713
     10 C          17.9688   69.4103   -4.5774 C.3     1  UNL1        0.1895
     11 C          19.3742   70.9359   -3.4478 C.3     1  UNL1        0.1764
     12 C          17.9088   70.7593   -5.2736 C.3     1  UNL1        0.2383
     13 H          16.6544   69.6233   -2.2662 H       1  UNL1        0.2105
     14 H          16.8166   67.8844   -4.1348 H       1  UNL1        0.2106
     15 O          15.9920   70.1713   -7.2632 O.2     1  UNL1       -0.2464
     16 O          19.1355   70.4213  -10.6243 O.2     1  UNL1       -0.2670
     17 N          18.1987   70.6649   -6.6766 N.ar    1  UNL1       -0.2551
     18 N          17.5588   70.2964   -8.9352 N.ar    1  UNL1       -0.2743
     19 C          17.1643   70.3635   -7.5928 C.ar    1  UNL1        0.3323
     20 C          19.4967   70.8705   -7.1313 C.ar    1  UNL1        0.0869
     21 C          19.8568   70.8017   -8.4146 C.ar    1  UNL1        0.0795
     22 C          18.8360   70.4916   -9.4364 C.ar    1  UNL1        0.2626
     23 H          16.8550   70.0874   -9.5915 H       1  UNL1        0.1734
     24 O          22.8670   71.9437   -0.8709 O.3     1  UNL1       -0.2703
     25 P          22.3736   71.1932    0.4731 P.3     1  UNL1        0.2208
     26 O          23.5906   70.1784    0.7994 O.co2   1  UNL1       -0.4371
     27 O          21.0315   70.5317    0.3511 O.2     1  UNL1       -0.5170
     28 O          22.4619   72.3196    1.6257 O.3     1  UNL1       -0.2858
     29 O          20.9241   73.9904    2.3041 O.3     1  UNL1       -0.3258
     30 O          24.4358   76.1267    2.6981 O.3     1  UNL1       -0.3794
     31 O          23.0356   75.2540    5.0488 O.3     1  UNL1       -0.3794
     32 O          24.1038   74.2894    0.4859 O.3     1  UNL1       -0.3775
     33 C          23.6069   74.9621    2.7447 C.3     1  UNL1        0.1715
     34 C          22.4738   75.2195    3.7399 C.3     1  UNL1        0.1694
     35 C          23.0463   74.6923    1.3495 C.3     1  UNL1        0.1967
     36 C          21.3980   74.1288    3.6487 C.3     1  UNL1        0.1761
     37 C          21.9496   73.6263    1.3780 C.3     1  UNL1        0.2704
     38 H          24.7953   76.3032    3.5807 H       1  UNL1        0.2105
     39 H          23.7137   75.9465    5.0928 H       1  UNL1        0.2105
     40 H          24.7915   74.9727    0.4764 H       1  UNL1        0.2106
     41 O          19.1630   73.5125    4.2266 O.3     1  UNL1       -0.3794
     42 C          20.1844   74.4484    4.5187 C.3     1  UNL1        0.1693
     43 H          18.3843   73.7035    4.7733 H       1  UNL1        0.2105
@<TRIPOS>UNITY_ATOM_ATTR
2 1
charge -1
26 1
charge -1
@<TRIPOS>BOND
     1    25    28    1
     2    25    24    1
     3    25    26    1
     4    25    27    2
     5     1     4    1
     6     1    24    1
     7     1     2    1
     8     1     3    2
     9     6    11    1
    10     6    12    1
    11    29    36    1
    12    29    37    1
    13     7     9    1
    14     7    13    1
    15     8    10    1
    16     8    14    1
    17    28    37    1
    18     4     5    1
    19    30    33    1
    20    30    38    1
    21    31    34    1
    22    31    39    1
    23    32    35    1
    24    32    40    1
    25    41    42    1
    26    41    43    1
    27    15    19    2
    28    16    22    2
    29    17    12    1
    30    17    19   ar
    31    17    20   ar
    32    18    19   ar
    33    18    22   ar
    34    18    23    1
    35     9    10    1
    36     9    11    1
    37    10    12    1
    38    11     5    1
    39    33    34    1
    40    33    35    1
    41    34    36    1
    42    35    37    1
    43    36    42    1
    44    20    21   ar
    45    21    22   ar
@<TRIPOS>MOLECULE
*****
 43 45 0 0 0
SMALL
GASTEIGER

@<TRIPOS>ATOM
      1 P          22.2706   73.1785   -4.7709 P.3     1  UNL1        0.2189
      2 O          22.2217   74.7955   -4.7811 O.co2   1  UNL1       -0.4371
      3 O          23.0939   72.5624   -5.8636 O.2     1  UNL1       -0.5170
      4 O          20.7128   72.7430   -4.7344 O.3     1  UNL1       -0.3112
      5 C          19.7255   73.7546   -4.8327 C.3     1  UNL1        0.1811
      6 O          17.7119   72.8262   -5.7586 O.3     1  UNL1       -0.3308
      7 O          17.2196   71.6640   -3.0387 O.3     1  UNL1       -0.3794
      8 O          18.1961   69.5308   -4.4288 O.3     1  UNL1       -0.3779
      9 C          18.4529   71.8460   -3.7323 C.3     1  UNL1        0.1713
     10 C          18.5880   70.8241   -4.8419 C.3     1  UNL1        0.1895
     11 C          18.3645   73.1521   -4.5119 C.3     1  UNL1        0.1764
     12 C          17.6746   71.3979   -5.9117 C.3     1  UNL1        0.2383
     13 H          17.2523   70.8362   -2.5332 H       1  UNL1        0.2105
     14 H          18.8077   69.2094   -3.7481 H       1  UNL1        0.2106
     15 O          15.9751   70.4035   -7.9367 O.2     1  UNL1       -0.2464
     16 O          19.4386   70.1336  -10.9653 O.2     1  UNL1       -0.2670
     17 N          18.1057   71.0598   -7.2388 N.ar    1  UNL1       -0.2551
     18 N          17.7010   70.2701   -9.4431 N.ar    1  UNL1       -0.2743
     19 C          17.1723   70.5673   -8.1805 C.ar    1  UNL1        0.3323
     20 C          19.4405   71.2178   -7.5952 C.ar    1  UNL1        0.0869
     21 C          19.9289   70.9286   -8.8031 C.ar    1  UNL1        0.0795
     22 C          19.0200   70.4089   -9.8451 C.ar    1  UNL1        0.2626
     23 H          17.0694   69.9252  -10.1154 H       1  UNL1        0.1734
     24 O          22.7778   72.8396   -3.2739 O.3     1  UNL1       -0.2703
     25 P          22.8722   71.4362   -2.4774 P.3     1  UNL1        0.2208
     26 O          24.2975   70.8354   -2.9518 O.co2   1  UNL1       -0.4371
     27 O          21.7062   70.5187   -2.7068 O.2     1  UNL1       -0.5170
     28 O          23.0997   71.8561   -0.9356 O.3     1  UNL1       -0.2858
     29 O          24.3556   70.9332    0.8497 O.3     1  UNL1       -0.3258
     30 O          20.8945   71.8747    2.8954 O.3     1  UNL1       -0.3794
     31 O          23.2638   73.4411    3.3210 O.3     1  UNL1       -0.3794
     32 O          20.7405   70.8416    0.1957 O.3     1  UNL1       -0.3775
     33 C          21.9166   72.0555    1.9116 C.3     1  UNL1        0.1715
     34 C          23.2584   72.1929    2.6338 C.3     1  UNL1        0.1694
     35 C          21.9300   70.8468    0.9777 C.3     1  UNL1        0.1967
     36 C          24.4297   72.1224    1.6447 C.3     1  UNL1        0.1761
     37 C          23.1613   70.8479    0.0699 C.3     1  UNL1        0.2704
     38 H          20.8804   72.6390    3.4913 H       1  UNL1        0.2105
     39 H          22.5191   73.4729    3.9420 H       1  UNL1        0.2105
     40 H          19.9683   70.8406    0.7819 H       1  UNL1        0.2106
     41 O          26.1445   70.7501    2.5853 O.3     1  UNL1       -0.3794
     42 C          25.7798   72.0990    2.3578 C.3     1  UNL1        0.1693
     43 H          27.0022   70.7196    3.0383 H       1  UNL1        0.2105
@<TRIPOS>UNITY_ATOM_ATTR
2 1
charge -1
26 1
charge -1
@<TRIPOS>BOND
     1    25    28    1
     2    25    24    1
     3    25    26    1
     4    25    27    2
     5     1     4    1
     6     1    24    1
     7     1     2    1
     8     1     3    2
     9     6    11    1
    10     6    12    1
    11    29    36    1
    12    29    37    1
    13     7     9    1
    14     7    13    1
    15     8    10    1
    16     8    14    1
    17    28    37    1
    18     4     5    1
    19    30    33    1
    20    30    38    1
    21    31    34    1
    22    31    39    1
    23    32    35    1
    24    32    40    1
    25    41    42    1
    26    41    43    1
    27    15    19    2
    28    16    22    2
    29    17    12    1
    30    17    19   ar
    31    17    20   ar
    32    18    19   ar
    33    18    22   ar
    34    18    23    1
    35     9    10    1
    36     9    11    1
    37    10    12    1
    38    11     5    1
    39    33    34    1
    40    33    35    1
    41    34    36    1
    42    35    37    1
    43    36    42    1
    44    20    21   ar
    45    21    22   ar
@<TRIPOS>MOLECULE
*****
 43 45 0 0 0
SMALL
GASTEIGER

@<TRIPOS>ATOM
      1 P          20.1634   72.2438   -1.2727 P.3     1  UNL1        0.2189
      2 O          20.1759   70.6427   -1.0414 O.co2   1  UNL1       -0.4371
      3 O          19.5034   73.0365   -0.1829 O.2     1  UNL1       -0.5170
      4 O          19.5290   72.4179   -2.7509 O.3     1  UNL1       -0.3112
      5 C          19.1748   71.2531   -3.4760 C.3     1  UNL1        0.1811
      6 O          17.3150   71.6547   -4.9436 O.3     1  UNL1       -0.3308
      7 O          15.7269   69.8950   -3.1072 O.3     1  UNL1       -0.3794
      8 O          16.3034   68.2221   -5.1822 O.3     1  UNL1       -0.3779
      9 C          17.0944   69.7887   -3.4995 C.3     1  UNL1        0.1713
     10 C          17.1950   69.2878   -4.9252 C.3     1  UNL1        0.1895
     11 C          17.6598   71.1986   -3.6171 C.3     1  UNL1        0.1764
     12 C          16.8586   70.5366   -5.7224 C.3     1  UNL1        0.2383
     13 H          15.3442   69.0068   -3.0252 H       1  UNL1        0.2105
     14 H          16.5592   67.4513   -4.6518 H       1  UNL1        0.2106
     15 O          15.5067   70.5836   -8.2019 O.2     1  UNL1       -0.2464
     16 O          19.4629   70.6317  -10.5657 O.2     1  UNL1       -0.2670
     17 N          17.5105   70.5621   -7.0013 N.ar    1  UNL1       -0.2551
     18 N          17.4777   70.6077   -9.3769 N.ar    1  UNL1       -0.2743
     19 C          16.7394   70.5834   -8.1868 C.ar    1  UNL1        0.3323
     20 C          18.8994   70.5661   -7.0712 C.ar    1  UNL1        0.0869
     21 C          19.5883   70.5880   -8.2141 C.ar    1  UNL1        0.0795
     22 C          18.8583   70.6113   -9.4980 C.ar    1  UNL1        0.2626
     23 H          16.9617   70.6225  -10.2155 H       1  UNL1        0.1734
     24 O          21.7253   72.5898   -1.5046 O.3     1  UNL1       -0.2703
     25 P          22.9973   72.4714   -0.5140 P.3     1  UNL1        0.2208
     26 O          23.9029   73.7495   -0.9187 O.co2   1  UNL1       -0.4371
     27 O          23.7153   71.1551   -0.5891 O.2     1  UNL1       -0.5170
     28 O          22.4126   72.8321    0.9464 O.3     1  UNL1       -0.2858
     29 O          24.2002   72.4491    2.4545 O.3     1  UNL1       -0.3258
     30 O          21.3126   73.6578    5.1474 O.3     1  UNL1       -0.3794
     31 O          23.4958   75.4168    4.5247 O.3     1  UNL1       -0.3794
     32 O          20.5813   71.9886    2.8983 O.3     1  UNL1       -0.3775
     33 C          22.0080   73.6521    3.8977 C.3     1  UNL1        0.1715
     34 C          23.4648   74.0403    4.1577 C.3     1  UNL1        0.1694
     35 C          21.9248   72.2546    3.2866 C.3     1  UNL1        0.1967
     36 C          24.3327   73.7989    2.9153 C.3     1  UNL1        0.1761
     37 C          22.8626   72.1059    2.0872 C.3     1  UNL1        0.2704
     38 H          21.3612   74.5425    5.5405 H       1  UNL1        0.2105
     39 H          22.9435   75.5558    5.3101 H       1  UNL1        0.2105
     40 H          19.9977   72.0857    3.6663 H       1  UNL1        0.2106
     41 O          25.9937   74.1312    4.6003 O.3     1  UNL1       -0.3794
     42 C          25.8152   74.0297    3.1995 C.3     1  UNL1        0.1693
     43 H          26.9328   74.2779    4.7962 H       1  UNL1        0.2105
@<TRIPOS>UNITY_ATOM_ATTR
2 1
charge -1
26 1
charge -1
@<TRIPOS>BOND
     1    25    28    1
     2    25    24    1
     3    25    26    1
     4    25    27    2
     5     1     4    1
     6     1    24    1
     7     1     2    1
     8     1     3    2
     9     6    11    1
    10     6    12    1
    11    29    36    1
    12    29    37    1
    13     7     9    1
    14     7    13    1
    15     8    10    1
    16     8    14    1
    17    28    37    1
    18     4     5    1
    19    30    33    1
    20    30    38    1
    21    31    34    1
    22    31    39    1
    23    32    35    1
    24    32    40    1
    25    41    42    1
    26    41    43    1
    27    15    19    2
    28    16    22    2
    29    17    12    1
    30    17    19   ar
    31    17    20   ar
    32    18    19   ar
    33    18    22   ar
    34    18    23    1
    35     9    10    1
    36     9    11    1
    37    10    12    1
    38    11     5    1
    39    33    34    1
    40    33    35    1
    41    34    36    1
    42    35    37    1
    43    36    42    1
    44    20    21   ar
    45    21    22   ar
@<TRIPOS>MOLECULE
*****
 43 45 0 0 0
SMALL
GASTEIGER

@<TRIPOS>ATOM
      1 P          23.4884   73.5727   -4.1760 P.3     1  UNL1        0.2189
      2 O          22.7112   74.9691   -4.4279 O.co2   1  UNL1       -0.4371
      3 O          24.9804   73.6885   -4.0670 O.2     1  UNL1       -0.5170
      4 O          22.9428   72.6067   -5.3538 O.3     1  UNL1       -0.3112
      5 C          21.5558   72.3214   -5.4061 C.3     1  UNL1        0.1811
      6 O          20.4980   70.3553   -6.2946 O.3     1  UNL1       -0.3308
      7 O          20.6323   71.7167   -8.9628 O.3     1  UNL1       -0.3794
      8 O          18.0384   72.1157   -8.2219 O.3     1  UNL1       -0.3779
      9 C          20.4012   72.2806   -7.6729 C.3     1  UNL1        0.1713
     10 C          19.0003   71.9537   -7.1995 C.3     1  UNL1        0.1895
     11 C          21.2611   71.5233   -6.6688 C.3     1  UNL1        0.1764
     12 C          19.1464   70.5073   -6.7581 C.3     1  UNL1        0.2383
     13 H          20.0940   72.1845   -9.6212 H       1  UNL1        0.2105
     14 H          17.9824   73.0522   -8.4679 H       1  UNL1        0.2106
     15 O          16.4438   69.7724   -7.1244 O.2     1  UNL1       -0.2464
     16 O          15.7892   69.2217   -2.5956 O.2     1  UNL1       -0.2670
     17 N          18.2468   70.1664   -5.6922 N.ar    1  UNL1       -0.2551
     18 N          16.1201   69.4986   -4.8691 N.ar    1  UNL1       -0.2743
     19 C          16.9088   69.8125   -5.9834 C.ar    1  UNL1        0.3323
     20 C          18.6940   70.1848   -4.3756 C.ar    1  UNL1        0.0869
     21 C          17.9289   69.8840   -3.3241 C.ar    1  UNL1        0.0795
     22 C          16.5182   69.5036   -3.5416 C.ar    1  UNL1        0.2626
     23 H          15.1843   69.2494   -5.0476 H       1  UNL1        0.1734
     24 O          22.7611   72.9846   -2.8576 O.3     1  UNL1       -0.2703
     25 P          22.8899   71.5493   -2.1253 P.3     1  UNL1        0.2208
     26 O          24.2107   70.9048   -2.8017 O.co2   1  UNL1       -0.4371
     27 O          21.6608   70.6933   -2.2286 O.2     1  UNL1       -0.5170
     28 O          23.3355   71.9002   -0.6143 O.3     1  UNL1       -0.2858
     29 O          24.6230   70.9082    1.1106 O.3     1  UNL1       -0.3258
     30 O          21.2311   71.8417    3.2727 O.3     1  UNL1       -0.3794
     31 O          23.6346   73.3601    3.6796 O.3     1  UNL1       -0.3794
     32 O          20.9911   70.8886    0.5499 O.3     1  UNL1       -0.3775
     33 C          22.2301   72.0355    2.2677 C.3     1  UNL1        0.1715
     34 C          23.5921   72.1323    2.9578 C.3     1  UNL1        0.1694
     35 C          22.2004   70.8539    1.3000 C.3     1  UNL1        0.1967
     36 C          24.7360   72.0730    1.9365 C.3     1  UNL1        0.1761
     37 C          23.4076   70.8629    0.3605 C.3     1  UNL1        0.2704
     38 H          21.2443   72.5887    3.8901 H       1  UNL1        0.2105
     39 H          22.9069   73.3851    4.3207 H       1  UNL1        0.2105
     40 H          20.2345   70.8822    1.1560 H       1  UNL1        0.2106
     41 O          26.6625   70.7300    2.3769 O.3     1  UNL1       -0.3794
     42 C          26.1038   72.0092    2.6128 C.3     1  UNL1        0.1693
     43 H          27.5335   70.6750    2.8013 H       1  UNL1        0.2105
@<TRIPOS>UNITY_ATOM_ATTR
2 1
charge -1
26 1
charge -1
@<TRIPOS>BOND
     1    25    28    1
     2    25    24    1
     3    25    26    1
     4    25    27    2
     5     1     4    1
     6     1    24    1
     7     1     2    1
     8     1     3    2
     9     6    11    1
    10     6    12    1
    11    29    36    1
    12    29    37    1
    13     7     9    1
    14     7    13    1
    15     8    10    1
    16     8    14    1
    17    28    37    1
    18     4     5    1
    19    30    33    1
    20    30    38    1
    21    31    34    1
    22    31    39    1
    23    32    35    1
    24    32    40    1
    25    41    42    1
    26    41    43    1
    27    15    19    2
    28    16    22    2
    29    17    12    1
    30    17    19   ar
    31    17    20   ar
    32    18    19   ar
    33    18    22   ar
    34    18    23    1
    35     9    10    1
    36     9    11    1
    37    10    12    1
    38    11     5    1
    39    33    34    1
    40    33    35    1
    41    34    36    1
    42    35    37    1
    43    36    42    1
    44    20    21   ar
    45    21    22   ar
@<TRIPOS>MOLECULE
*****
 43 45 0 0 0
SMALL
GASTEIGER

@<TRIPOS>ATOM
      1 P          23.0202   71.4138   -2.8129 P.3     1  UNL1        0.2189
      2 O          23.0804   73.0230   -2.6575 O.co2   1  UNL1       -0.4371
      3 O          24.3469   70.7482   -3.0326 O.2     1  UNL1       -0.5170
      4 O          21.9149   71.1765   -3.9704 O.3     1  UNL1       -0.3112
      5 C          21.6938   72.2084   -4.9160 C.3     1  UNL1        0.1811
      6 O          20.5309   70.4300   -6.0380 O.3     1  UNL1       -0.3308
      7 O          20.7920   72.0815   -8.5270 O.3     1  UNL1       -0.3794
      8 O          18.2161   72.5548   -7.7671 O.3     1  UNL1       -0.3779
      9 C          20.5755   72.5049   -7.1820 C.3     1  UNL1        0.1713
     10 C          19.1496   72.2144   -6.7624 C.3     1  UNL1        0.1895
     11 C          21.3707   71.5829   -6.2660 C.3     1  UNL1        0.1764
     12 C          19.1989   70.7201   -6.4922 C.3     1  UNL1        0.2383
     13 H          20.2943   72.6558   -9.1307 H       1  UNL1        0.2105
     14 H          18.2221   73.5153   -7.9022 H       1  UNL1        0.2106
     15 O          16.5369   69.9287   -7.0075 O.2     1  UNL1       -0.2464
     16 O          15.6982   69.1881   -2.5366 O.2     1  UNL1       -0.2670
     17 N          18.2630   70.3151   -5.4816 N.ar    1  UNL1       -0.2551
     18 N          16.1215   69.5604   -4.7809 N.ar    1  UNL1       -0.2743
     19 C          16.9495   69.9374   -5.8459 C.ar    1  UNL1        0.3323
     20 C          18.6507   70.2949   -4.1462 C.ar    1  UNL1        0.0869
     21 C          17.8485   69.9341   -3.1424 C.ar    1  UNL1        0.0795
     22 C          16.4601   69.5252   -3.4375 C.ar    1  UNL1        0.2626
     23 H          15.2018   69.2937   -5.0107 H       1  UNL1        0.1734
     24 O          22.2476   70.9477   -1.4717 O.3     1  UNL1       -0.2703
     25 P          21.5091   71.8072   -0.3190 P.3     1  UNL1        0.2208
     26 O          20.8407   70.6717    0.6198 O.co2   1  UNL1       -0.4371
     27 O          20.5406   72.8297   -0.8391 O.2     1  UNL1       -0.5170
     28 O          22.7109   72.4157    0.5701 O.3     1  UNL1       -0.2858
     29 O          21.3606   74.0179    1.6775 O.3     1  UNL1       -0.3258
     30 O          24.5680   73.9480    4.2772 O.3     1  UNL1       -0.3794
     31 O          22.0820   72.7415    5.0596 O.3     1  UNL1       -0.3794
     32 O          25.0182   73.7659    1.4235 O.3     1  UNL1       -0.3775
     33 C          23.6268   73.3938    3.3540 C.3     1  UNL1        0.1715
     34 C          22.2213   73.5921    3.9250 C.3     1  UNL1        0.1694
     35 C          23.7667   74.1065    2.0102 C.3     1  UNL1        0.1967
     36 C          21.1472   73.2669    2.8783 C.3     1  UNL1        0.1761
     37 C          22.6215   73.7510    1.0604 C.3     1  UNL1        0.2704
     38 H          24.4847   73.4995    5.1324 H       1  UNL1        0.2105
     39 H          22.7665   72.9568    5.7126 H       1  UNL1        0.2105
     40 H          25.7349   73.9962    2.0344 H       1  UNL1        0.2106
     41 O          19.0353   74.2357    2.3213 O.3     1  UNL1       -0.3794
     42 C          19.7436   73.6079    3.3742 C.3     1  UNL1        0.1693
     43 H          18.1400   74.4582    2.6224 H       1  UNL1        0.2105
@<TRIPOS>UNITY_ATOM_ATTR
2 1
charge -1
26 1
charge -1
@<TRIPOS>BOND
     1    25    28    1
     2    25    24    1
     3    25    26    1
     4    25    27    2
     5     1     4    1
     6     1    24    1
     7     1     2    1
     8     1     3    2
     9     6    11    1
    10     6    12    1
    11    29    36    1
    12    29    37    1
    13     7     9    1
    14     7    13    1
    15     8    10    1
    16     8    14    1
    17    28    37    1
    18     4     5    1
    19    30    33    1
    20    30    38    1
    21    31    34    1
    22    31    39    1
    23    32    35    1
    24    32    40    1
    25    41    42    1
    26    41    43    1
    27    15    19    2
    28    16    22    2
    29    17    12    1
    30    17    19   ar
    31    17    20   ar
    32    18    19   ar
    33    18    22   ar
    34    18    23    1
    35     9    10    1
    36     9    11    1
    37    10    12    1
    38    11     5    1
    39    33    34    1
    40    33    35    1
    41    34    36    1
    42    35    37    1
    43    36    42    1
    44    20    21   ar
    45    21    22   ar
@<TRIPOS>MOLECULE
*****
 43 45 0 0 0
SMALL
GASTEIGER

@<TRIPOS>ATOM
      1 P          21.0741   71.9296   -5.2526 P.3     1  UNL1        0.2189
      2 O          20.6658   70.8004   -4.1684 O.co2   1  UNL1       -0.4371
      3 O          20.2564   73.1865   -5.1972 O.2     1  UNL1       -0.5170
      4 O          21.0522   71.1388   -6.6640 O.3     1  UNL1       -0.3112
      5 C          20.2636   71.6606   -7.7193 C.3     1  UNL1        0.1811
      6 O          18.8860   69.7346   -7.3107 O.3     1  UNL1       -0.3308
      7 O          18.0275   69.9740  -10.1737 O.3     1  UNL1       -0.3794
      8 O          15.9302   71.0836   -8.8294 O.3     1  UNL1       -0.3779
      9 C          18.3266   71.0035   -9.2324 C.3     1  UNL1        0.1713
     10 C          17.2054   71.1348   -8.2228 C.3     1  UNL1        0.1895
     11 C          19.4824   70.5235   -8.3635 C.3     1  UNL1        0.1764
     12 C          17.4653   69.9504   -7.3074 C.3     1  UNL1        0.2383
     13 H          17.2923   70.2578  -10.7402 H       1  UNL1        0.2105
     14 H          15.8129   71.8581   -9.4015 H       1  UNL1        0.2106
     15 O          16.1954   68.0340   -5.6665 O.2     1  UNL1       -0.2464
     16 O          15.8526   70.9992   -2.1549 O.2     1  UNL1       -0.2670
     17 N          17.0339   70.1946   -5.9600 N.ar    1  UNL1       -0.2551
     18 N          16.0259   69.5120   -3.9193 N.ar    1  UNL1       -0.2743
     19 C          16.4052   69.1646   -5.2222 C.ar    1  UNL1        0.3323
     20 C          17.2357   71.4438   -5.3833 C.ar    1  UNL1        0.0869
     21 C          16.8670   71.7594   -4.1400 C.ar    1  UNL1        0.0795
     22 C          16.2035   70.7399   -3.3018 C.ar    1  UNL1        0.2626
     23 H          15.5857   68.8104   -3.3866 H       1  UNL1        0.1734
     24 O          22.6531   72.1417   -4.9795 O.3     1  UNL1       -0.2703
     25 P          23.4907   72.2184   -3.5991 P.3     1  UNL1        0.2208
     26 O          24.5489   73.4113   -3.8729 O.co2   1  UNL1       -0.4371
     27 O          24.1169   70.9179   -3.1862 O.2     1  UNL1       -0.5170
     28 O          22.4535   72.8320   -2.5254 O.3     1  UNL1       -0.2858
     29 O          22.4466   74.5915   -0.9378 O.3     1  UNL1       -0.3258
     30 O          20.9404   71.5614    1.4288 O.3     1  UNL1       -0.3794
     31 O          19.1977   73.6621    0.5354 O.3     1  UNL1       -0.3794
     32 O          23.0336   70.9917   -0.4878 O.3     1  UNL1       -0.3775
     33 C          21.1331   72.2936    0.2155 C.3     1  UNL1        0.1715
     34 C          20.6175   73.7182    0.4280 C.3     1  UNL1        0.1694
     35 C          22.6212   72.3061   -0.1290 C.3     1  UNL1        0.1967
     36 C          21.0298   74.6353   -0.7313 C.3     1  UNL1        0.1761
     37 C          22.9305   73.2866   -1.2617 C.3     1  UNL1        0.2704
     38 H          19.9974   71.5492    1.6529 H       1  UNL1        0.2105
     39 H          18.9507   73.0795    1.2707 H       1  UNL1        0.2105
     40 H          22.8327   70.3806    0.2375 H       1  UNL1        0.2106
     41 O          21.3383   76.5213    0.7029 O.3     1  UNL1       -0.3794
     42 C          20.6627   76.0936   -0.4654 C.3     1  UNL1        0.1693
     43 H          21.1144   77.4479    0.8842 H       1  UNL1        0.2105
@<TRIPOS>UNITY_ATOM_ATTR
2 1
charge -1
26 1
charge -1
@<TRIPOS>BOND
     1    25    28    1
     2    25    24    1
     3    25    26    1
     4    25    27    2
     5     1     4    1
     6     1    24    1
     7     1     2    1
     8     1     3    2
     9     6    11    1
    10     6    12    1
    11    29    36    1
    12    29    37    1
    13     7     9    1
    14     7    13    1
    15     8    10    1
    16     8    14    1
    17    28    37    1
    18     4     5    1
    19    30    33    1
    20    30    38    1
    21    31    34    1
    22    31    39    1
    23    32    35    1
    24    32    40    1
    25    41    42    1
    26    41    43    1
    27    15    19    2
    28    16    22    2
    29    17    12    1
    30    17    19   ar
    31    17    20   ar
    32    18    19   ar
    33    18    22   ar
    34    18    23    1
    35     9    10    1
    36     9    11    1
    37    10    12    1
    38    11     5    1
    39    33    34    1
    40    33    35    1
    41    34    36    1
    42    35    37    1
    43    36    42    1
    44    20    21   ar
    45    21    22   ar
@<TRIPOS>MOLECULE
*****
 43 45 0 0 0
SMALL
GASTEIGER

@<TRIPOS>ATOM
      1 P          20.2386   71.3005   -3.0527 P.3     1  UNL1        0.2189
      2 O          19.3780   69.9347   -2.9468 O.co2   1  UNL1       -0.4371
      3 O          19.7059   72.4494   -2.2478 O.2     1  UNL1       -0.5170
      4 O          20.3654   71.5573   -4.6451 O.3     1  UNL1       -0.3112
      5 C          20.1433   70.4692   -5.5252 C.3     1  UNL1        0.1811
      6 O          17.8013   70.2336   -6.0081 O.3     1  UNL1       -0.3308
      7 O          18.1269   72.6038   -7.8156 O.3     1  UNL1       -0.3794
      8 O          17.0015   73.7046   -5.5889 O.3     1  UNL1       -0.3779
      9 C          18.7546   72.3308   -6.5639 C.3     1  UNL1        0.1713
     10 C          17.7727   72.5314   -5.4284 C.3     1  UNL1        0.1895
     11 C          19.0237   70.8329   -6.4907 C.3     1  UNL1        0.1764
     12 C          16.9357   71.2660   -5.5084 C.3     1  UNL1        0.2383
     13 H          17.9455   73.5547   -7.8855 H       1  UNL1        0.2105
     14 H          17.5788   74.4818   -5.5302 H       1  UNL1        0.2106
     15 O          16.1135   68.6409   -4.8676 O.2     1  UNL1       -0.2464
     16 O          14.9870   69.8478   -0.5647 O.2     1  UNL1       -0.2670
     17 N          16.4238   70.8661   -4.2280 N.ar    1  UNL1       -0.2551
     18 N          15.5534   69.2440   -2.7256 N.ar    1  UNL1       -0.2743
     19 C          16.0379   69.5230   -4.0098 C.ar    1  UNL1        0.3323
     20 C          16.3090   71.8010   -3.2049 C.ar    1  UNL1        0.0869
     21 C          15.8438   71.5190   -1.9861 C.ar    1  UNL1        0.0795
     22 C          15.4191   70.1387   -1.6757 C.ar    1  UNL1        0.2626
     23 H          15.2782   68.3148   -2.5506 H       1  UNL1        0.1734
     24 O          21.7278   70.8246   -2.6417 O.3     1  UNL1       -0.2703
     25 P          23.0863   71.6695   -2.4104 P.3     1  UNL1        0.2208
     26 O          22.7721   73.0825   -3.1331 O.co2   1  UNL1       -0.4371
     27 O          24.3282   70.9847   -2.9028 O.2     1  UNL1       -0.5170
     28 O          23.0914   72.0107   -0.8329 O.3     1  UNL1       -0.2858
     29 O          24.3450   70.9674    0.8866 O.3     1  UNL1       -0.3258
     30 O          20.9337   71.8885    3.0232 O.3     1  UNL1       -0.3794
     31 O          23.3468   73.3722    3.4960 O.3     1  UNL1       -0.3794
     32 O          20.7211   70.9983    0.2770 O.3     1  UNL1       -0.3775
     33 C          21.9482   72.0939    2.0363 C.3     1  UNL1        0.1715
     34 C          23.3016   72.1612    2.7466 C.3     1  UNL1        0.1694
     35 C          21.9197   70.9344    1.0423 C.3     1  UNL1        0.1967
     36 C          24.4587   72.1124    1.7397 C.3     1  UNL1        0.1761
     37 C          23.1396   70.9515    0.1194 C.3     1  UNL1        0.2704
     38 H          20.9461   72.6215    3.6572 H       1  UNL1        0.2105
     39 H          22.6107   73.3907    4.1277 H       1  UNL1        0.2105
     40 H          19.9563   70.9865    0.8726 H       1  UNL1        0.2106
     41 O          26.3658   70.7404    2.1748 O.3     1  UNL1       -0.3794
     42 C          25.8163   72.0194    2.4326 C.3     1  UNL1        0.1693
     43 H          27.2303   70.6669    2.6095 H       1  UNL1        0.2105
@<TRIPOS>UNITY_ATOM_ATTR
2 1
charge -1
26 1
charge -1
@<TRIPOS>BOND
     1    25    28    1
     2    25    24    1
     3    25    26    1
     4    25    27    2
     5     1     4    1
     6     1    24    1
     7     1     2    1
     8     1     3    2
     9     6    11    1
    10     6    12    1
    11    29    36    1
    12    29    37    1
    13     7     9    1
    14     7    13    1
    15     8    10    1
    16     8    14    1
    17    28    37    1
    18     4     5    1
    19    30    33    1
    20    30    38    1
    21    31    34    1
    22    31    39    1
    23    32    35    1
    24    32    40    1
    25    41    42    1
    26    41    43    1
    27    15    19    2
    28    16    22    2
    29    17    12    1
    30    17    19   ar
    31    17    20   ar
    32    18    19   ar
    33    18    22   ar
    34    18    23    1
    35     9    10    1
    36     9    11    1
    37    10    12    1
    38    11     5    1
    39    33    34    1
    40    33    35    1
    41    34    36    1
    42    35    37    1
    43    36    42    1
    44    20    21   ar
    45    21    22   ar
@<TRIPOS>MOLECULE
*****
 43 45 0 0 0
SMALL
GASTEIGER

@<TRIPOS>ATOM
      1 P          20.5529   71.2480   -1.0262 P.3     1  UNL1        0.2189
      2 O          20.9203   70.4679    0.3427 O.co2   1  UNL1       -0.4371
      3 O          20.1781   72.6905   -0.8527 O.2     1  UNL1       -0.5170
      4 O          19.4320   70.3094   -1.7194 O.3     1  UNL1       -0.3112
      5 C          19.1329   70.5128   -3.0894 C.3     1  UNL1        0.1811
      6 O          17.4444   71.4980   -4.4865 O.3     1  UNL1       -0.3308
      7 O          15.4645   69.9004   -2.8996 O.3     1  UNL1       -0.3794
      8 O          15.7231   68.4291   -5.1810 O.3     1  UNL1       -0.3779
      9 C          16.7871   69.5517   -3.3051 C.3     1  UNL1        0.1713
     10 C          16.8162   69.2324   -4.7852 C.3     1  UNL1        0.1895
     11 C          17.6462   70.8080   -3.2338 C.3     1  UNL1        0.1764
     12 C          16.7791   70.6179   -5.4073 C.3     1  UNL1        0.2383
     13 H          14.8972   69.1138   -2.9366 H       1  UNL1        0.2105
     14 H          15.7920   67.5584   -4.7592 H       1  UNL1        0.2106
     15 O          15.5369   70.1543   -7.9013 O.2     1  UNL1       -0.2464
     16 O          19.4749   70.8374  -10.1962 O.2     1  UNL1       -0.2670
     17 N          17.4559   70.6686   -6.6725 N.ar    1  UNL1       -0.2551
     18 N          17.4987   70.4950   -9.0420 N.ar    1  UNL1       -0.2743
     19 C          16.7403   70.4191   -7.8667 C.ar    1  UNL1        0.3323
     20 C          18.8141   70.9633   -6.7205 C.ar    1  UNL1        0.0869
     21 C          19.5230   71.0305   -7.8493 C.ar    1  UNL1        0.0795
     22 C          18.8507   70.7830   -9.1411 C.ar    1  UNL1        0.2626
     23 H          17.0213   70.3245   -9.8863 H       1  UNL1        0.1734
     24 O          21.8569   70.9980   -1.9482 O.3     1  UNL1       -0.2703
     25 P          23.2379   71.8275   -2.0811 P.3     1  UNL1        0.2208
     26 O          24.2078   70.8079   -2.8794 O.co2   1  UNL1       -0.4371
     27 O          23.7922   72.3134   -0.7732 O.2     1  UNL1       -0.5170
     28 O          22.9114   72.9966   -3.1449 O.3     1  UNL1       -0.2858
     29 O          23.4685   73.2566   -5.4337 O.3     1  UNL1       -0.3258
     30 O          23.9627   77.1619   -4.1866 O.3     1  UNL1       -0.3794
     31 O          21.7015   76.4692   -5.8161 O.3     1  UNL1       -0.3794
     32 O          24.7736   74.9822   -2.4631 O.3     1  UNL1       -0.3775
     33 C          23.3594   75.8653   -4.2013 C.3     1  UNL1        0.1715
     34 C          22.8153   75.6054   -5.6074 C.3     1  UNL1        0.1694
     35 C          24.4109   74.8213   -3.8302 C.3     1  UNL1        0.1967
     36 C          22.3937   74.1395   -5.7761 C.3     1  UNL1        0.1761
     37 C          23.9077   73.3987   -4.0814 C.3     1  UNL1        0.2704
     38 H          23.3002   77.8295   -4.4209 H       1  UNL1        0.2105
     39 H          21.9811   77.3917   -5.7062 H       1  UNL1        0.2105
     40 H          25.0908   75.8866   -2.3171 H       1  UNL1        0.2106
     41 O          22.6616   74.7264   -8.0767 O.3     1  UNL1       -0.3794
     42 C          21.9961   73.8208   -7.2157 C.3     1  UNL1        0.1693
     43 H          22.4182   74.5353   -8.9965 H       1  UNL1        0.2105
@<TRIPOS>UNITY_ATOM_ATTR
2 1
charge -1
26 1
charge -1
@<TRIPOS>BOND
     1    25    28    1
     2    25    24    1
     3    25    26    1
     4    25    27    2
     5     1     4    1
     6     1    24    1
     7     1     2    1
     8     1     3    2
     9     6    11    1
    10     6    12    1
    11    29    36    1
    12    29    37    1
    13     7     9    1
    14     7    13    1
    15     8    10    1
    16     8    14    1
    17    28    37    1
    18     4     5    1
    19    30    33    1
    20    30    38    1
    21    31    34    1
    22    31    39    1
    23    32    35    1
    24    32    40    1
    25    41    42    1
    26    41    43    1
    27    15    19    2
    28    16    22    2
    29    17    12    1
    30    17    19   ar
    31    17    20   ar
    32    18    19   ar
    33    18    22   ar
    34    18    23    1
    35     9    10    1
    36     9    11    1
    37    10    12    1
    38    11     5    1
    39    33    34    1
    40    33    35    1
    41    34    36    1
    42    35    37    1
    43    36    42    1
    44    20    21   ar
    45    21    22   ar
@<TRIPOS>MOLECULE
*****
 43 45 0 0 0
SMALL
GASTEIGER

@<TRIPOS>ATOM
      1 P          22.0797   73.1461   -4.8339 P.3     1  UNL1        0.2189
      2 O          22.1373   74.7519   -4.6448 O.co2   1  UNL1       -0.4371
      3 O          23.0606   72.5889   -5.8232 O.2     1  UNL1       -0.5170
      4 O          20.5205   72.8475   -5.1460 O.3     1  UNL1       -0.3112
      5 C          19.5527   73.7902   -4.7186 C.3     1  UNL1        0.1811
      6 O          17.5921   72.6807   -5.5545 O.3     1  UNL1       -0.3308
      7 O          17.3632   71.4397   -2.8345 O.3     1  UNL1       -0.3794
      8 O          18.4664   69.4314   -4.3131 O.3     1  UNL1       -0.3779
      9 C          18.5336   71.7513   -3.5884 C.3     1  UNL1        0.1713
     10 C          18.7075   70.7623   -4.7222 C.3     1  UNL1        0.1895
     11 C          18.2763   73.0525   -4.3380 C.3     1  UNL1        0.1764
     12 C          17.6860   71.2578   -5.7318 C.3     1  UNL1        0.2383
     13 H          17.5036   70.6125   -2.3468 H       1  UNL1        0.2105
     14 H          19.1423   69.1628   -3.6715 H       1  UNL1        0.2106
     15 O          15.9151   70.4012   -7.7587 O.2     1  UNL1       -0.2464
     16 O          19.2925   70.2259  -10.8897 O.2     1  UNL1       -0.2670
     17 N          18.0756   70.9813   -7.0858 N.ar    1  UNL1       -0.2551
     18 N          17.5982   70.3148   -9.3161 N.ar    1  UNL1       -0.2743
     19 C          17.1086   70.5555   -8.0260 C.ar    1  UNL1        0.3323
     20 C          19.4036   71.1333   -7.4695 C.ar    1  UNL1        0.0869
     21 C          19.8546   70.8984   -8.7035 C.ar    1  UNL1        0.0795
     22 C          18.9088   70.4502   -9.7459 C.ar    1  UNL1        0.2626
     23 H          16.9426   70.0168   -9.9878 H       1  UNL1        0.1734
     24 O          22.2600   72.5957   -3.3248 O.3     1  UNL1       -0.2703
     25 P          22.4824   71.0972   -2.7608 P.3     1  UNL1        0.2208
     26 O          24.0655   70.8482   -2.9832 O.co2   1  UNL1       -0.4371
     27 O          21.5978   70.0634   -3.3953 O.2     1  UNL1       -0.5170
     28 O          22.3119   71.2331   -1.1616 O.3     1  UNL1       -0.2858
     29 O          21.9895   73.3559   -0.1586 O.3     1  UNL1       -0.3258
     30 O          23.4513   71.2975    3.1089 O.3     1  UNL1       -0.3794
     31 O          20.6691   72.0023    3.0058 O.3     1  UNL1       -0.3794
     32 O          24.5473   70.7949    0.4773 O.3     1  UNL1       -0.3775
     33 C          22.7155   71.4589    1.8932 C.3     1  UNL1        0.1715
     34 C          21.6487   72.5325    2.1172 C.3     1  UNL1        0.1694
     35 C          23.6749   71.8781    0.7810 C.3     1  UNL1        0.1967
     36 C          20.9975   72.9513    0.7922 C.3     1  UNL1        0.1761
     37 C          22.9237   72.3221   -0.4754 C.3     1  UNL1        0.2704
     38 H          22.8479   71.0308    3.8191 H       1  UNL1        0.2105
     39 H          21.0934   71.7413    3.8383 H       1  UNL1        0.2105
     40 H          25.0172   70.5233    1.2806 H       1  UNL1        0.2106
     41 O          19.4251   74.0196    2.2397 O.3     1  UNL1       -0.3794
     42 C          20.0440   74.1307    0.9713 C.3     1  UNL1        0.1693
     43 H          18.8156   74.7638    2.3677 H       1  UNL1        0.2105
@<TRIPOS>UNITY_ATOM_ATTR
2 1
charge -1
26 1
charge -1
@<TRIPOS>BOND
     1    25    28    1
     2    25    24    1
     3    25    26    1
     4    25    27    2
     5     1     4    1
     6     1    24    1
     7     1     2    1
     8     1     3    2
     9     6    11    1
    10     6    12    1
    11    29    36    1
    12    29    37    1
    13     7     9    1
    14     7    13    1
    15     8    10    1
    16     8    14    1
    17    28    37    1
    18     4     5    1
    19    30    33    1
    20    30    38    1
    21    31    34    1
    22    31    39    1
    23    32    35    1
    24    32    40    1
    25    41    42    1
    26    41    43    1
    27    15    19    2
    28    16    22    2
    29    17    12    1
    30    17    19   ar
    31    17    20   ar
    32    18    19   ar
    33    18    22   ar
    34    18    23    1
    35     9    10    1
    36     9    11    1
    37    10    12    1
    38    11     5    1
    39    33    34    1
    40    33    35    1
    41    34    36    1
    42    35    37    1
    43    36    42    1
    44    20    21   ar
    45    21    22   ar
@<TRIPOS>MOLECULE
*****
 43 45 0 0 0
SMALL
GASTEIGER

@<TRIPOS>ATOM
      1 P          22.1158   71.1772   -2.8129 P.3     1  UNL1        0.2189
      2 O          23.5863   70.5550   -3.0741 O.co2   1  UNL1       -0.4371
      3 O          21.5544   70.9238   -1.4446 O.2     1  UNL1       -0.5170
      4 O          21.2330   70.6197   -4.0489 O.3     1  UNL1       -0.3112
      5 C          20.2168   69.6697   -3.7796 C.3     1  UNL1        0.1811
      6 O          18.6654   71.1938   -4.8015 O.3     1  UNL1       -0.3308
      7 O          16.6428   70.1497   -2.8497 O.3     1  UNL1       -0.3794
      8 O          16.0022   68.8157   -5.1403 O.3     1  UNL1       -0.3779
      9 C          17.6953   69.4549   -3.5166 C.3     1  UNL1        0.1713
     10 C          17.3409   69.2360   -4.9727 C.3     1  UNL1        0.1895
     11 C          18.8888   70.3966   -3.6179 C.3     1  UNL1        0.1764
     12 C          17.6020   70.6081   -5.5703 C.3     1  UNL1        0.2383
     13 H          15.8696   69.5682   -2.7729 H       1  UNL1        0.2105
     14 H          15.8867   67.9381   -4.7437 H       1  UNL1        0.2106
     15 O          15.8201   70.3164   -7.7423 O.2     1  UNL1       -0.2464
     16 O          19.2617   70.3508  -10.8075 O.2     1  UNL1       -0.2670
     17 N          18.0052   70.5384   -6.9465 N.ar    1  UNL1       -0.2551
     18 N          17.5352   70.3339   -9.2668 N.ar    1  UNL1       -0.2743
     19 C          17.0310   70.3905   -7.9612 C.ar    1  UNL1        0.3323
     20 C          19.3533   70.6170   -7.2785 C.ar    1  UNL1        0.0869
     21 C          19.8178   70.5602   -8.5284 C.ar    1  UNL1        0.0795
     22 C          18.8658   70.4063   -9.6473 C.ar    1  UNL1        0.2626
     23 H          16.8749   70.2307   -9.9901 H       1  UNL1        0.1734
     24 O          22.3113   72.7389   -3.1812 O.3     1  UNL1       -0.2703
     25 P          23.5352   73.7535   -2.8885 P.3     1  UNL1        0.2208
     26 O          22.8230   75.2061   -2.8964 O.co2   1  UNL1       -0.4371
     27 O          24.6852   73.6225   -3.8447 O.2     1  UNL1       -0.5170
     28 O          23.9185   73.4958   -1.3420 O.3     1  UNL1       -0.2858
     29 O          22.5698   73.3112    0.5979 O.3     1  UNL1       -0.3258
     30 O          25.7505   75.3996    2.2020 O.3     1  UNL1       -0.3794
     31 O          25.3919   72.6294    2.8694 O.3     1  UNL1       -0.3794
     32 O          24.8283   76.0048   -0.4744 O.3     1  UNL1       -0.3775
     33 C          25.1171   74.4489    1.3415 C.3     1  UNL1        0.1715
     34 C          24.4010   73.4155    2.2132 C.3     1  UNL1        0.1694
     35 C          24.1200   75.1767    0.4417 C.3     1  UNL1        0.1967
     36 C          23.4816   72.5214    1.3704 C.3     1  UNL1        0.1761
     37 C          23.2218   74.1964   -0.3148 C.3     1  UNL1        0.2704
     38 H          26.3852   74.9440    2.7756 H       1  UNL1        0.2105
     39 H          25.9661   73.2059    3.3977 H       1  UNL1        0.2105
     40 H          25.3929   76.6210    0.0169 H       1  UNL1        0.2106
     41 O          22.0475   70.6106    1.4022 O.3     1  UNL1       -0.3794
     42 C          22.6393   71.5883    2.2376 C.3     1  UNL1        0.1693
     43 H          21.5086   70.0094    1.9406 H       1  UNL1        0.2105
@<TRIPOS>UNITY_ATOM_ATTR
2 1
charge -1
26 1
charge -1
@<TRIPOS>BOND
     1    25    28    1
     2    25    24    1
     3    25    26    1
     4    25    27    2
     5     1     4    1
     6     1    24    1
     7     1     2    1
     8     1     3    2
     9     6    11    1
    10     6    12    1
    11    29    36    1
    12    29    37    1
    13     7     9    1
    14     7    13    1
    15     8    10    1
    16     8    14    1
    17    28    37    1
    18     4     5    1
    19    30    33    1
    20    30    38    1
    21    31    34    1
    22    31    39    1
    23    32    35    1
    24    32    40    1
    25    41    42    1
    26    41    43    1
    27    15    19    2
    28    16    22    2
    29    17    12    1
    30    17    19   ar
    31    17    20   ar
    32    18    19   ar
    33    18    22   ar
    34    18    23    1
    35     9    10    1
    36     9    11    1
    37    10    12    1
    38    11     5    1
    39    33    34    1
    40    33    35    1
    41    34    36    1
    42    35    37    1
    43    36    42    1
    44    20    21   ar
    45    21    22   ar
@<TRIPOS>MOLECULE
*****
 43 45 0 0 0
SMALL
GASTEIGER

@<TRIPOS>ATOM
      1 P          20.8367   72.0861   -1.3268 P.3     1  UNL1        0.2189
      2 O          20.3480   70.5474   -1.2224 O.co2   1  UNL1       -0.4371
      3 O          19.7348   73.1042   -1.3004 O.2     1  UNL1       -0.5170
      4 O          21.7800   72.1057   -2.6412 O.3     1  UNL1       -0.3112
      5 C          21.3197   72.7896   -3.7937 C.3     1  UNL1        0.1811
      6 O          20.7686   70.6987   -4.8417 O.3     1  UNL1       -0.3308
      7 O          21.7513   71.9322   -7.3919 O.3     1  UNL1       -0.3794
      8 O          19.0433   72.1447   -7.6337 O.3     1  UNL1       -0.3779
      9 C          21.0448   72.5377   -6.3105 C.3     1  UNL1        0.1713
     10 C          19.5903   72.1164   -6.3311 C.3     1  UNL1        0.1895
     11 C          21.5402   71.9074   -5.0149 C.3     1  UNL1        0.1764
     12 C          19.6611   70.7115   -5.7571 C.3     1  UNL1        0.2383
     13 H          21.4521   72.3190   -8.2303 H       1  UNL1        0.2105
     14 H          19.0196   73.0596   -7.9548 H       1  UNL1        0.2106
     15 O          17.3469   69.6425   -6.9735 O.2     1  UNL1       -0.2464
     16 O          15.1358   69.3574   -2.9398 O.2     1  UNL1       -0.2670
     17 N          18.4663   70.3486   -5.0485 N.ar    1  UNL1       -0.2551
     18 N          16.2479   69.5012   -4.9640 N.ar    1  UNL1       -0.2743
     19 C          17.3596   69.8210   -5.7538 C.ar    1  UNL1        0.3323
     20 C          18.4003   70.5165   -3.6696 C.ar    1  UNL1        0.0869
     21 C          17.3322   70.2079   -2.9313 C.ar    1  UNL1        0.0795
     22 C          16.1335   69.6511   -3.5910 C.ar    1  UNL1        0.2626
     23 H          15.4649   69.1325   -5.4338 H       1  UNL1        0.1734
     24 O          21.8991   72.2131   -0.1152 O.3     1  UNL1       -0.2703
     25 P          21.8202   71.7193    1.4220 P.3     1  UNL1        0.2208
     26 O          21.9545   70.1114    1.3025 O.co2   1  UNL1       -0.4371
     27 O          20.5964   72.1856    2.1560 O.2     1  UNL1       -0.5170
     28 O          23.2157   72.1974    2.0768 O.3     1  UNL1       -0.2858
     29 O          24.5627   73.6546    0.7811 O.3     1  UNL1       -0.3258
     30 O          27.3940   72.3884    3.5071 O.3     1  UNL1       -0.3794
     31 O          26.3613   75.0630    3.6743 O.3     1  UNL1       -0.3794
     32 O          25.4270   70.5210    2.4955 O.3     1  UNL1       -0.3775
     33 C          26.0868   72.7660    3.0665 C.3     1  UNL1        0.1715
     34 C          26.1507   74.2065    2.5551 C.3     1  UNL1        0.1694
     35 C          25.6426   71.8194    1.9530 C.3     1  UNL1        0.1967
     36 C          24.8583   74.5922    1.8229 C.3     1  UNL1        0.1761
     37 C          24.3755   72.3205    1.2576 C.3     1  UNL1        0.2704
     38 H          27.6818   72.9852    4.2145 H       1  UNL1        0.2105
     39 H          27.1801   74.8085    4.1281 H       1  UNL1        0.2105
     40 H          26.2363   70.2149    2.9326 H       1  UNL1        0.2106
     41 O          25.0657   75.7932   -0.2322 O.3     1  UNL1       -0.3794
     42 C          24.9605   75.9683    1.1687 C.3     1  UNL1        0.1693
     43 H          25.1312   76.6609   -0.6619 H       1  UNL1        0.2105
@<TRIPOS>UNITY_ATOM_ATTR
2 1
charge -1
26 1
charge -1
@<TRIPOS>BOND
     1    25    28    1
     2    25    24    1
     3    25    26    1
     4    25    27    2
     5     1     4    1
     6     1    24    1
     7     1     2    1
     8     1     3    2
     9     6    11    1
    10     6    12    1
    11    29    36    1
    12    29    37    1
    13     7     9    1
    14     7    13    1
    15     8    10    1
    16     8    14    1
    17    28    37    1
    18     4     5    1
    19    30    33    1
    20    30    38    1
    21    31    34    1
    22    31    39    1
    23    32    35    1
    24    32    40    1
    25    41    42    1
    26    41    43    1
    27    15    19    2
    28    16    22    2
    29    17    12    1
    30    17    19   ar
    31    17    20   ar
    32    18    19   ar
    33    18    22   ar
    34    18    23    1
    35     9    10    1
    36     9    11    1
    37    10    12    1
    38    11     5    1
    39    33    34    1
    40    33    35    1
    41    34    36    1
    42    35    37    1
    43    36    42    1
    44    20    21   ar
    45    21    22   ar
@<TRIPOS>MOLECULE
*****
 43 45 0 0 0
SMALL
GASTEIGER

@<TRIPOS>ATOM
      1 P          22.7019   72.0712   -3.8567 P.3     1  UNL1        0.2189
      2 O          23.3616   72.9481   -5.0455 O.co2   1  UNL1       -0.4371
      3 O          23.6177   71.0601   -3.2319 O.2     1  UNL1       -0.5170
      4 O          21.3476   71.4800   -4.5157 O.3     1  UNL1       -0.3112
      5 C          20.6339   70.4790   -3.8111 C.3     1  UNL1        0.1811
      6 O          18.7590   71.5719   -4.8425 O.3     1  UNL1       -0.3308
      7 O          17.0843   70.3138   -2.6970 O.3     1  UNL1       -0.3794
      8 O          16.6229   68.6909   -4.8394 O.3     1  UNL1       -0.3779
      9 C          18.2240   69.7890   -3.3759 C.3     1  UNL1        0.1713
     10 C          17.8543   69.3821   -4.7870 C.3     1  UNL1        0.1895
     11 C          19.1947   70.9377   -3.6201 C.3     1  UNL1        0.1764
     12 C          17.8025   70.7235   -5.4984 C.3     1  UNL1        0.2383
     13 H          16.4501   69.5984   -2.5297 H       1  UNL1        0.2105
     14 H          16.7071   67.8444   -4.3734 H       1  UNL1        0.2106
     15 O          15.9575   70.1621   -7.5621 O.2     1  UNL1       -0.2464
     16 O          19.2373   70.3487  -10.7947 O.2     1  UNL1       -0.2670
     17 N          18.1469   70.6200   -6.8884 N.ar    1  UNL1       -0.2551
     18 N          17.5920   70.2557   -9.1700 N.ar    1  UNL1       -0.2743
     19 C          17.1451   70.3334   -7.8448 C.ar    1  UNL1        0.3323
     20 C          19.4654   70.8022   -7.2910 C.ar    1  UNL1        0.0869
     21 C          19.8756   70.7235   -8.5587 C.ar    1  UNL1        0.0795
     22 C          18.8915   70.4277   -9.6199 C.ar    1  UNL1        0.2626
     23 H          16.9117   70.0566   -9.8536 H       1  UNL1        0.1734
     24 O          22.1485   73.1978   -2.8382 O.3     1  UNL1       -0.2703
     25 P          22.9305   74.2512   -1.8937 P.3     1  UNL1        0.2208
     26 O          22.0606   75.6063   -2.0499 O.co2   1  UNL1       -0.4371
     27 O          24.3869   74.4089   -2.2223 O.2     1  UNL1       -0.5170
     28 O          22.6350   73.7482   -0.3889 O.3     1  UNL1       -0.2858
     29 O          23.4939   71.6681    0.3540 O.3     1  UNL1       -0.3258
     30 O          20.4225   72.1237    3.0760 O.3     1  UNL1       -0.3794
     31 O          23.1419   72.4537    3.9384 O.3     1  UNL1       -0.3794
     32 O          20.0449   72.9365    0.3235 O.3     1  UNL1       -0.3775
     33 C          21.4812   72.5628    2.2206 C.3     1  UNL1        0.1715
     34 C          22.7779   71.8932    2.6800 C.3     1  UNL1        0.1694
     35 C          21.1545   72.1709    0.7807 C.3     1  UNL1        0.1967
     36 C          23.9021   72.1024    1.6565 C.3     1  UNL1        0.1761
     37 C          22.3552   72.3721   -0.1456 C.3     1  UNL1        0.2704
     38 H          20.6234   72.3698    3.9918 H       1  UNL1        0.2105
     39 H          22.4234   72.3153    4.5754 H       1  UNL1        0.2105
     40 H          19.2913   72.8003    0.9180 H       1  UNL1        0.2106
     41 O          24.8110   69.9443    2.1312 O.3     1  UNL1       -0.3794
     42 C          25.1581   71.3121    2.0170 C.3     1  UNL1        0.1693
     43 H          25.6008   69.4290    2.3601 H       1  UNL1        0.2105
@<TRIPOS>UNITY_ATOM_ATTR
2 1
charge -1
26 1
charge -1
@<TRIPOS>BOND
     1    25    28    1
     2    25    24    1
     3    25    26    1
     4    25    27    2
     5     1     4    1
     6     1    24    1
     7     1     2    1
     8     1     3    2
     9     6    11    1
    10     6    12    1
    11    29    36    1
    12    29    37    1
    13     7     9    1
    14     7    13    1
    15     8    10    1
    16     8    14    1
    17    28    37    1
    18     4     5    1
    19    30    33    1
    20    30    38    1
    21    31    34    1
    22    31    39    1
    23    32    35    1
    24    32    40    1
    25    41    42    1
    26    41    43    1
    27    15    19    2
    28    16    22    2
    29    17    12    1
    30    17    19   ar
    31    17    20   ar
    32    18    19   ar
    33    18    22   ar
    34    18    23    1
    35     9    10    1
    36     9    11    1
    37    10    12    1
    38    11     5    1
    39    33    34    1
    40    33    35    1
    41    34    36    1
    42    35    37    1
    43    36    42    1
    44    20    21   ar
    45    21    22   ar
@<TRIPOS>MOLECULE
*****
 43 45 0 0 0
SMALL
GASTEIGER

@<TRIPOS>ATOM
      1 P          23.5458   72.4937   -3.5138 P.3     1  UNL1        0.2189
      2 O          23.8140   70.9504   -3.1090 O.co2   1  UNL1       -0.4371
      3 O          24.7050   73.1886   -4.1657 O.2     1  UNL1       -0.5170
      4 O          23.0030   73.1654   -2.1456 O.3     1  UNL1       -0.3112
      5 C          22.0100   74.1724   -2.2343 C.3     1  UNL1        0.1811
      6 O          21.2008   72.6052   -0.6024 O.3     1  UNL1       -0.3308
      7 O          19.1485   74.6770    0.0950 O.3     1  UNL1       -0.3794
      8 O          20.9888   74.9697    2.0859 O.3     1  UNL1       -0.3779
      9 C          20.5098   74.8510   -0.2948 C.3     1  UNL1        0.1713
     10 C          21.4350   74.4696    0.8419 C.3     1  UNL1        0.1895
     11 C          20.8375   73.7925   -1.3405 C.3     1  UNL1        0.1764
     12 C          21.4047   72.9520    0.7771 C.3     1  UNL1        0.2383
     13 H          18.9158   75.3423    0.7623 H       1  UNL1        0.2105
     14 H          21.0268   75.9389    2.0774 H       1  UNL1        0.2106
     15 O          21.7983   70.1793    1.1443 O.2     1  UNL1       -0.2464
     16 O          26.1535   70.7940    2.5213 O.2     1  UNL1       -0.2670
     17 N          22.6317   72.3599    1.2303 N.ar    1  UNL1       -0.2551
     18 N          23.9666   70.4876    1.8295 N.ar    1  UNL1       -0.2743
     19 C          22.7248   70.9568    1.3824 C.ar    1  UNL1        0.3323
     20 C          23.7262   73.1680    1.5184 C.ar    1  UNL1        0.0869
     21 C          24.9030   72.7050    1.9450 C.ar    1  UNL1        0.0795
     22 C          25.0837   71.2507    2.1303 C.ar    1  UNL1        0.2626
     23 H          24.0547   69.5134    1.9432 H       1  UNL1        0.1734
     24 O          22.2152   72.4039   -4.4272 O.3     1  UNL1       -0.2703
     25 P          21.8584   73.0780   -5.8524 P.3     1  UNL1        0.2208
     26 O          22.9382   72.4138   -6.8577 O.co2   1  UNL1       -0.4371
     27 O          21.8640   74.5792   -5.8416 O.2     1  UNL1       -0.5170
     28 O          20.4478   72.4174   -6.2751 O.3     1  UNL1       -0.2858
     29 O          19.4671   70.2783   -5.9933 O.3     1  UNL1       -0.3258
     30 O          18.4347   70.9638   -9.9322 O.3     1  UNL1       -0.3794
     31 O          16.4146   71.0878   -7.8947 O.3     1  UNL1       -0.3794
     32 O          21.0258   71.8031   -8.9516 O.3     1  UNL1       -0.3775
     33 C          18.6963   71.3219   -8.5726 C.3     1  UNL1        0.1715
     34 C          17.7189   70.5565   -7.6785 C.3     1  UNL1        0.1694
     35 C          20.1390   70.9560   -8.2287 C.3     1  UNL1        0.1967
     36 C          18.1079   70.6805   -6.1991 C.3     1  UNL1        0.1761
     37 C          20.4070   71.0662   -6.7267 C.3     1  UNL1        0.2704
     38 H          17.5204   71.1939  -10.1571 H       1  UNL1        0.2105
     39 H          16.1813   71.0038   -8.8327 H       1  UNL1        0.2105
     40 H          20.8462   71.7240   -9.9010 H       1  UNL1        0.2106
     41 O          16.1265   69.3530   -6.0550 O.3     1  UNL1       -0.3794
     42 C          17.2411   69.7977   -5.3039 C.3     1  UNL1        0.1693
     43 H          15.5659   68.7897   -5.4981 H       1  UNL1        0.2105
@<TRIPOS>UNITY_ATOM_ATTR
2 1
charge -1
26 1
charge -1
@<TRIPOS>BOND
     1    25    28    1
     2    25    24    1
     3    25    26    1
     4    25    27    2
     5     1     4    1
     6     1    24    1
     7     1     2    1
     8     1     3    2
     9     6    11    1
    10     6    12    1
    11    29    36    1
    12    29    37    1
    13     7     9    1
    14     7    13    1
    15     8    10    1
    16     8    14    1
    17    28    37    1
    18     4     5    1
    19    30    33    1
    20    30    38    1
    21    31    34    1
    22    31    39    1
    23    32    35    1
    24    32    40    1
    25    41    42    1
    26    41    43    1
    27    15    19    2
    28    16    22    2
    29    17    12    1
    30    17    19   ar
    31    17    20   ar
    32    18    19   ar
    33    18    22   ar
    34    18    23    1
    35     9    10    1
    36     9    11    1
    37    10    12    1
    38    11     5    1
    39    33    34    1
    40    33    35    1
    41    34    36    1
    42    35    37    1
    43    36    42    1
    44    20    21   ar
    45    21    22   ar
@<TRIPOS>MOLECULE
*****
 43 45 0 0 0
SMALL
GASTEIGER

@<TRIPOS>ATOM
      1 P          22.6528   71.1847   -3.3093 P.3     1  UNL1        0.2189
      2 O          24.2156   70.9400   -2.9699 O.co2   1  UNL1       -0.4371
      3 O          21.8020   69.9489   -3.3038 O.2     1  UNL1       -0.5170
      4 O          22.6823   72.0113   -4.7000 O.3     1  UNL1       -0.3112
      5 C          21.4507   72.4161   -5.2721 C.3     1  UNL1        0.1811
      6 O          20.4433   70.4361   -6.1879 O.3     1  UNL1       -0.3308
      7 O          20.6481   71.7916   -8.8546 O.3     1  UNL1       -0.3794
      8 O          18.0276   72.1641   -8.1982 O.3     1  UNL1       -0.3779
      9 C          20.3697   72.3564   -7.5745 C.3     1  UNL1        0.1713
     10 C          18.9580   72.0155   -7.1451 C.3     1  UNL1        0.1895
     11 C          21.2053   71.6113   -6.5411 C.3     1  UNL1        0.1764
     12 C          19.1056   70.5720   -6.6948 C.3     1  UNL1        0.2383
     13 H          20.1261   72.2516   -9.5313 H       1  UNL1        0.2105
     14 H          17.9694   73.0993   -8.4488 H       1  UNL1        0.2106
     15 O          16.4458   69.7371   -7.1490 O.2     1  UNL1       -0.2464
     16 O          15.6300   69.2647   -2.6376 O.2     1  UNL1       -0.2670
     17 N          18.1762   70.2242   -5.6571 N.ar    1  UNL1       -0.2551
     18 N          16.0418   69.5024   -4.9023 N.ar    1  UNL1       -0.2743
     19 C          16.8633   69.8183   -5.9919 C.ar    1  UNL1        0.3323
     20 C          18.5696   70.2870   -4.3248 C.ar    1  UNL1        0.0869
     21 C          17.7737   69.9837   -3.2973 C.ar    1  UNL1        0.0795
     22 C          16.3863   69.5504   -3.5607 C.ar    1  UNL1        0.2626
     23 H          15.1227   69.2174   -5.1113 H       1  UNL1        0.1734
     24 O          22.2176   72.3060   -2.2294 O.3     1  UNL1       -0.2703
     25 P          22.9330   73.6857   -1.7847 P.3     1  UNL1        0.2208
     26 O          21.6930   74.7132   -1.6292 O.co2   1  UNL1       -0.4371
     27 O          24.0090   74.1510   -2.7225 O.2     1  UNL1       -0.5170
     28 O          23.4326   73.4182   -0.2735 O.3     1  UNL1       -0.2858
     29 O          24.5615   71.7663    0.9967 O.3     1  UNL1       -0.3258
     30 O          21.1637   72.1683    3.3084 O.3     1  UNL1       -0.3794
     31 O          23.6599   73.2210    4.2616 O.3     1  UNL1       -0.3794
     32 O          20.9671   72.2724    0.4223 O.3     1  UNL1       -0.3775
     33 C          22.2174   72.6170    2.4519 C.3     1  UNL1        0.1715
     34 C          23.5517   72.3396    3.1473 C.3     1  UNL1        0.1694
     35 C          22.1363   71.8650    1.1247 C.3     1  UNL1        0.1967
     36 C          24.7305   72.5456    2.1866 C.3     1  UNL1        0.1761
     37 C          23.3800   72.0998    0.2655 C.3     1  UNL1        0.2704
     38 H          21.2092   72.6423    4.1527 H       1  UNL1        0.2105
     39 H          22.9094   73.0811    4.8602 H       1  UNL1        0.2105
     40 H          20.1869   72.1184    0.9766 H       1  UNL1        0.2106
     41 O          26.3724   70.8186    2.3607 O.3     1  UNL1       -0.3794
     42 C          26.0583   72.1233    2.8116 C.3     1  UNL1        0.1693
     43 H          27.2153   70.5367    2.7502 H       1  UNL1        0.2105
@<TRIPOS>UNITY_ATOM_ATTR
2 1
charge -1
26 1
charge -1
@<TRIPOS>BOND
     1    25    28    1
     2    25    24    1
     3    25    26    1
     4    25    27    2
     5     1     4    1
     6     1    24    1
     7     1     2    1
     8     1     3    2
     9     6    11    1
    10     6    12    1
    11    29    36    1
    12    29    37    1
    13     7     9    1
    14     7    13    1
    15     8    10    1
    16     8    14    1
    17    28    37    1
    18     4     5    1
    19    30    33    1
    20    30    38    1
    21    31    34    1
    22    31    39    1
    23    32    35    1
    24    32    40    1
    25    41    42    1
    26    41    43    1
    27    15    19    2
    28    16    22    2
    29    17    12    1
    30    17    19   ar
    31    17    20   ar
    32    18    19   ar
    33    18    22   ar
    34    18    23    1
    35     9    10    1
    36     9    11    1
    37    10    12    1
    38    11     5    1
    39    33    34    1
    40    33    35    1
    41    34    36    1
    42    35    37    1
    43    36    42    1
    44    20    21   ar
    45    21    22   ar
@<TRIPOS>MOLECULE
*****
 43 45 0 0 0
SMALL
GASTEIGER

@<TRIPOS>ATOM
      1 P          20.9604   71.8005   -2.8220 P.3     1  UNL1        0.2189
      2 O          22.1905   70.8446   -2.3855 O.co2   1  UNL1       -0.4371
      3 O          20.1065   72.2913   -1.6900 O.2     1  UNL1       -0.5170
      4 O          20.1924   70.9484   -3.9632 O.3     1  UNL1       -0.3112
      5 C          19.3121   69.9148   -3.5576 C.3     1  UNL1        0.1811
      6 O          17.7469   71.2206   -4.8298 O.3     1  UNL1       -0.3308
      7 O          15.5999   69.8155   -3.2784 O.3     1  UNL1       -0.3794
      8 O          15.5864   68.4796   -5.6557 O.3     1  UNL1       -0.3779
      9 C          16.8480   69.3116   -3.7512 C.3     1  UNL1        0.1713
     10 C          16.7931   69.0918   -5.2486 C.3     1  UNL1        0.1895
     11 C          17.8799   70.4261   -3.6309 C.3     1  UNL1        0.1764
     12 C          16.9389   70.5075   -5.7804 C.3     1  UNL1        0.2383
     13 H          14.9250   69.1212   -3.3451 H       1  UNL1        0.2105
     14 H          15.5406   67.5815   -5.2923 H       1  UNL1        0.2106
     15 O          15.5749   70.4712   -8.2534 O.2     1  UNL1       -0.2464
     16 O          19.5146   70.6621  -10.6374 O.2     1  UNL1       -0.2670
     17 N          17.5833   70.5471   -7.0628 N.ar    1  UNL1       -0.2551
     18 N          17.5377   70.5665   -9.4385 N.ar    1  UNL1       -0.2743
     19 C          16.8065   70.5234   -8.2445 C.ar    1  UNL1        0.3323
     20 C          18.9704   70.6092   -7.1397 C.ar    1  UNL1        0.0869
     21 C          19.6525   70.6483   -8.2862 C.ar    1  UNL1        0.0795
     22 C          18.9163   70.6273   -9.5666 C.ar    1  UNL1        0.2626
     23 H          17.0176   70.5506  -10.2746 H       1  UNL1        0.1734
     24 O          21.6901   72.9676   -3.6695 O.3     1  UNL1       -0.2703
     25 P          21.0842   74.2286   -4.4794 P.3     1  UNL1        0.2208
     26 O          20.8302   75.3273   -3.3193 O.co2   1  UNL1       -0.4371
     27 O          19.8711   73.9056   -5.3028 O.2     1  UNL1       -0.5170
     28 O          22.3310   74.8087   -5.3243 O.3     1  UNL1       -0.2858
     29 O          23.3610   76.9338   -5.5234 O.3     1  UNL1       -0.3258
     30 O          23.2720   75.8675   -9.5116 O.3     1  UNL1       -0.3794
     31 O          25.7724   75.8655   -8.0988 O.3     1  UNL1       -0.3794
     32 O          21.0449   75.1979   -7.7879 O.3     1  UNL1       -0.3775
     33 C          23.3912   75.6406   -8.1046 C.3     1  UNL1        0.1715
     34 C          24.5796   76.4532   -7.5868 C.3     1  UNL1        0.1694
     35 C          22.0995   76.0792   -7.4171 C.3     1  UNL1        0.1967
     36 C          24.6101   76.4739   -6.0526 C.3     1  UNL1        0.1761
     37 C          22.2527   76.1121   -5.8954 C.3     1  UNL1        0.2704
     38 H          24.0887   75.5906   -9.9542 H       1  UNL1        0.2105
     39 H          25.7402   75.8581   -9.0684 H       1  UNL1        0.2105
     40 H          20.9579   75.1862   -8.7534 H       1  UNL1        0.2106
     41 O          26.6651   76.6268   -4.8432 O.3     1  UNL1       -0.3794
     42 C          25.6929   77.4068   -5.5146 C.3     1  UNL1        0.1693
     43 H          27.3608   77.2072   -4.4958 H       1  UNL1        0.2105
@<TRIPOS>UNITY_ATOM_ATTR
2 1
charge -1
26 1
charge -1
@<TRIPOS>BOND
     1    25    28    1
     2    25    24    1
     3    25    26    1
     4    25    27    2
     5     1     4    1
     6     1    24    1
     7     1     2    1
     8     1     3    2
     9     6    11    1
    10     6    12    1
    11    29    36    1
    12    29    37    1
    13     7     9    1
    14     7    13    1
    15     8    10    1
    16     8    14    1
    17    28    37    1
    18     4     5    1
    19    30    33    1
    20    30    38    1
    21    31    34    1
    22    31    39    1
    23    32    35    1
    24    32    40    1
    25    41    42    1
    26    41    43    1
    27    15    19    2
    28    16    22    2
    29    17    12    1
    30    17    19   ar
    31    17    20   ar
    32    18    19   ar
    33    18    22   ar
    34    18    23    1
    35     9    10    1
    36     9    11    1
    37    10    12    1
    38    11     5    1
    39    33    34    1
    40    33    35    1
    41    34    36    1
    42    35    37    1
    43    36    42    1
    44    20    21   ar
    45    21    22   ar
@<TRIPOS>MOLECULE
*****
 43 45 0 0 0
SMALL
GASTEIGER

@<TRIPOS>ATOM
      1 P          21.5195   71.0202   -0.1126 P.3     1  UNL1        0.2189
      2 O          22.9173   71.0562   -0.9264 O.co2   1  UNL1       -0.4371
      3 O          21.5231   70.1578    1.1153 O.2     1  UNL1       -0.5170
      4 O          20.4240   70.6343   -1.2390 O.3     1  UNL1       -0.3112
      5 C          20.2710   71.4931   -2.3556 C.3     1  UNL1        0.1811
      6 O          20.8180   70.3497   -4.3971 O.3     1  UNL1       -0.3308
      7 O          23.2050   72.1579   -4.5508 O.3     1  UNL1       -0.3794
      8 O          21.4670   73.3175   -6.3033 O.3     1  UNL1       -0.3779
      9 C          21.8893   72.4389   -4.0760 C.3     1  UNL1        0.1713
     10 C          20.9262   72.5627   -5.2381 C.3     1  UNL1        0.1895
     11 C          21.3714   71.1950   -3.3648 C.3     1  UNL1        0.1764
     12 C          20.6937   71.1084   -5.6110 C.3     1  UNL1        0.2383
     13 H          23.5569   72.9380   -5.0085 H       1  UNL1        0.2105
     14 H          21.5965   74.2350   -6.0166 H       1  UNL1        0.2106
     15 O          18.6233   69.6936   -4.3112 O.2     1  UNL1       -0.2464
     16 O          15.7285   70.3218   -7.8420 O.2     1  UNL1       -0.2670
     17 N          19.3887   70.8876   -6.1675 N.ar    1  UNL1       -0.2551
     18 N          17.1835   70.0077   -6.0703 N.ar    1  UNL1       -0.2743
     19 C          18.4211   70.1632   -5.4329 C.ar    1  UNL1        0.3323
     20 C          19.0792   71.3870   -7.4278 C.ar    1  UNL1        0.0869
     21 C          17.8947   71.2290   -8.0221 C.ar    1  UNL1        0.0795
     22 C          16.8282   70.4842   -7.3222 C.ar    1  UNL1        0.2626
     23 H          16.4940   69.5061   -5.5776 H       1  UNL1        0.1734
     24 O          21.2200   72.5843    0.1647 O.3     1  UNL1       -0.2703
     25 P          20.9783   73.3904    1.5448 P.3     1  UNL1        0.2208
     26 O          20.4963   72.2352    2.5698 O.co2   1  UNL1       -0.4371
     27 O          20.0285   74.5467    1.4238 O.2     1  UNL1       -0.5170
     28 O          22.4585   73.7907    2.0486 O.3     1  UNL1       -0.2858
     29 O          24.0562   75.0764    0.8608 O.3     1  UNL1       -0.3258
     30 O          26.6214   72.6389    2.9888 O.3     1  UNL1       -0.3794
     31 O          26.3668   75.4060    3.7140 O.3     1  UNL1       -0.3794
     32 O          24.1561   71.5596    1.9226 O.3     1  UNL1       -0.3775
     33 C          25.4381   73.4127    2.7733 C.3     1  UNL1        0.1715
     34 C          25.8542   74.8597    2.5020 C.3     1  UNL1        0.1694
     35 C          24.6771   72.8391    1.5795 C.3     1  UNL1        0.1967
     36 C          24.6670   75.6928    2.0004 C.3     1  UNL1        0.1761
     37 C          23.5481   73.7683    1.1301 C.3     1  UNL1        0.2704
     38 H          27.1090   72.9975    3.7459 H       1  UNL1        0.2105
     39 H          27.1156   74.8706    4.0202 H       1  UNL1        0.2105
     40 H          24.8806   70.9807    2.2050 H       1  UNL1        0.2106
     41 O          26.4873   77.0886    1.3318 O.3     1  UNL1       -0.3794
     42 C          25.0925   77.0961    1.5741 C.3     1  UNL1        0.1693
     43 H          26.7723   77.9753    1.0592 H       1  UNL1        0.2105
@<TRIPOS>UNITY_ATOM_ATTR
2 1
charge -1
26 1
charge -1
@<TRIPOS>BOND
     1    25    28    1
     2    25    24    1
     3    25    26    1
     4    25    27    2
     5     1     4    1
     6     1    24    1
     7     1     2    1
     8     1     3    2
     9     6    11    1
    10     6    12    1
    11    29    36    1
    12    29    37    1
    13     7     9    1
    14     7    13    1
    15     8    10    1
    16     8    14    1
    17    28    37    1
    18     4     5    1
    19    30    33    1
    20    30    38    1
    21    31    34    1
    22    31    39    1
    23    32    35    1
    24    32    40    1
    25    41    42    1
    26    41    43    1
    27    15    19    2
    28    16    22    2
    29    17    12    1
    30    17    19   ar
    31    17    20   ar
    32    18    19   ar
    33    18    22   ar
    34    18    23    1
    35     9    10    1
    36     9    11    1
    37    10    12    1
    38    11     5    1
    39    33    34    1
    40    33    35    1
    41    34    36    1
    42    35    37    1
    43    36    42    1
    44    20    21   ar
    45    21    22   ar
@<TRIPOS>MOLECULE
*****
 43 45 0 0 0
SMALL
GASTEIGER

@<TRIPOS>ATOM
      1 P          23.5400   72.4044   -3.3797 P.3     1  UNL1        0.2189
      2 O          24.0686   70.8909   -3.1627 O.co2   1  UNL1       -0.4371
      3 O          24.5890   73.3863   -3.8121 O.2     1  UNL1       -0.5170
      4 O          22.7799   72.7528   -1.9945 O.3     1  UNL1       -0.3112
      5 C          23.5305   72.7521   -0.7927 C.3     1  UNL1        0.1811
      6 O          24.5589   71.0558    0.5633 O.3     1  UNL1       -0.3308
      7 O          21.7744   70.1872    1.2581 O.3     1  UNL1       -0.3794
      8 O          22.5141   71.6244    3.4544 O.3     1  UNL1       -0.3779
      9 C          22.2805   71.5027    1.0374 C.3     1  UNL1        0.1713
     10 C          23.1169   71.9492    2.2183 C.3     1  UNL1        0.1895
     11 C          23.3176   71.4257   -0.0760 C.3     1  UNL1        0.1764
     12 C          24.4165   71.1974    1.9862 C.3     1  UNL1        0.2383
     13 H          21.1098   70.2110    1.9650 H       1  UNL1        0.2105
     14 H          21.6913   72.1279    3.5553 H       1  UNL1        0.2106
     15 O          24.3915   73.9077    2.7810 O.2     1  UNL1       -0.2464
     16 O          28.8496   73.7976    3.9448 O.2     1  UNL1       -0.2670
     17 N          25.5565   71.9023    2.5010 N.ar    1  UNL1       -0.2551
     18 N          26.6113   73.8506    3.3600 N.ar    1  UNL1       -0.2743
     19 C          25.4381   73.2625    2.8703 C.ar    1  UNL1        0.3323
     20 C          26.7747   71.2454    2.6355 C.ar    1  UNL1        0.0869
     21 C          27.8845   71.8209    3.1030 C.ar    1  UNL1        0.0795
     22 C          27.8462   73.2400    3.5113 C.ar    1  UNL1        0.2626
     23 H          26.5528   74.7978    3.6232 H       1  UNL1        0.1734
     24 O          22.3217   72.2175   -4.4256 O.3     1  UNL1       -0.2703
     25 P          21.9183   73.0572   -5.7466 P.3     1  UNL1        0.2208
     26 O          22.9912   72.5542   -6.8480 O.co2   1  UNL1       -0.4371
     27 O          21.8888   74.5447   -5.5450 O.2     1  UNL1       -0.5170
     28 O          20.5147   72.4190   -6.2235 O.3     1  UNL1       -0.2858
     29 O          19.5395   70.2751   -5.9600 O.3     1  UNL1       -0.3258
     30 O          18.4760   71.0061   -9.8825 O.3     1  UNL1       -0.3794
     31 O          16.4713   71.1023   -7.8283 O.3     1  UNL1       -0.3794
     32 O          21.0731   71.8379   -8.9116 O.3     1  UNL1       -0.3775
     33 C          18.7474   71.3483   -8.5206 C.3     1  UNL1        0.1715
     34 C          17.7780   70.5706   -7.6284 C.3     1  UNL1        0.1694
     35 C          20.1932   70.9807   -8.1922 C.3     1  UNL1        0.1967
     36 C          18.1781   70.6775   -6.1507 C.3     1  UNL1        0.1761
     37 C          20.4725   71.0733   -6.6910 C.3     1  UNL1        0.2704
     38 H          17.5597   71.2374  -10.0976 H       1  UNL1        0.2105
     39 H          16.2310   71.0292   -8.7654 H       1  UNL1        0.2105
     40 H          20.8865   71.7699   -9.8605 H       1  UNL1        0.2106
     41 O          16.0827   70.4318   -5.0292 O.3     1  UNL1       -0.3794
     42 C          17.3195   69.7826   -5.2595 C.3     1  UNL1        0.1693
     43 H          15.5257   69.8736   -4.4636 H       1  UNL1        0.2105
@<TRIPOS>UNITY_ATOM_ATTR
2 1
charge -1
26 1
charge -1
@<TRIPOS>BOND
     1    25    28    1
     2    25    24    1
     3    25    26    1
     4    25    27    2
     5     1     4    1
     6     1    24    1
     7     1     2    1
     8     1     3    2
     9     6    11    1
    10     6    12    1
    11    29    36    1
    12    29    37    1
    13     7     9    1
    14     7    13    1
    15     8    10    1
    16     8    14    1
    17    28    37    1
    18     4     5    1
    19    30    33    1
    20    30    38    1
    21    31    34    1
    22    31    39    1
    23    32    35    1
    24    32    40    1
    25    41    42    1
    26    41    43    1
    27    15    19    2
    28    16    22    2
    29    17    12    1
    30    17    19   ar
    31    17    20   ar
    32    18    19   ar
    33    18    22   ar
    34    18    23    1
    35     9    10    1
    36     9    11    1
    37    10    12    1
    38    11     5    1
    39    33    34    1
    40    33    35    1
    41    34    36    1
    42    35    37    1
    43    36    42    1
    44    20    21   ar
    45    21    22   ar
@<TRIPOS>MOLECULE
*****
 43 45 0 0 0
SMALL
GASTEIGER

@<TRIPOS>ATOM
      1 P          21.2860   71.8973   -2.9900 P.3     1  UNL1        0.2189
      2 O          22.5495   71.0106   -2.5054 O.co2   1  UNL1       -0.4371
      3 O          20.3886   72.3775   -1.8876 O.2     1  UNL1       -0.5170
      4 O          20.5802   70.9816   -4.1220 O.3     1  UNL1       -0.3112
      5 C          19.6892   69.9610   -3.7072 C.3     1  UNL1        0.1811
      6 O          18.0878   71.2352   -4.9664 O.3     1  UNL1       -0.3308
      7 O          15.9958   69.9703   -3.2303 O.3     1  UNL1       -0.3794
      8 O          15.8259   68.5089   -5.5263 O.3     1  UNL1       -0.3779
      9 C          17.2054   69.4104   -3.7388 C.3     1  UNL1        0.1713
     10 C          17.0659   69.1116   -5.2169 C.3     1  UNL1        0.1895
     11 C          18.2668   70.5035   -3.7340 C.3     1  UNL1        0.1764
     12 C          17.2147   70.4924   -5.8329 C.3     1  UNL1        0.2383
     13 H          15.3030   69.2907   -3.2234 H       1  UNL1        0.2105
     14 H          15.7795   67.6331   -5.1120 H       1  UNL1        0.2106
     15 O          15.7297   70.6322   -8.2314 O.2     1  UNL1       -0.2464
     16 O          19.5301   70.3057  -10.8182 O.2     1  UNL1       -0.2670
     17 N          17.7906   70.4466   -7.1473 N.ar    1  UNL1       -0.2551
     18 N          17.6232   70.4697   -9.5175 N.ar    1  UNL1       -0.2743
     19 C          16.9563   70.5234   -8.2869 C.ar    1  UNL1        0.3323
     20 C          19.1680   70.3272   -7.2966 C.ar    1  UNL1        0.0869
     21 C          19.7883   70.2761   -8.4772 C.ar    1  UNL1        0.0795
     22 C          18.9893   70.3501   -9.7175 C.ar    1  UNL1        0.2626
     23 H          17.0623   70.5210  -10.3253 H       1  UNL1        0.1734
     24 O          21.9785   73.0745   -3.8547 O.3     1  UNL1       -0.2703
     25 P          22.1393   73.2644   -5.4519 P.3     1  UNL1        0.2208
     26 O          20.6105   73.2636   -5.9815 O.co2   1  UNL1       -0.4371
     27 O          23.0222   72.2421   -6.1073 O.2     1  UNL1       -0.5170
     28 O          22.6331   74.7901   -5.6343 O.3     1  UNL1       -0.2858
     29 O          21.8013   75.6631   -7.6745 O.3     1  UNL1       -0.3258
     30 O          24.2601   78.7918   -6.5718 O.3     1  UNL1       -0.3794
     31 O          21.4100   79.1000   -6.4003 O.3     1  UNL1       -0.3794
     32 O          25.0929   76.0617   -6.0896 O.3     1  UNL1       -0.3775
     33 C          23.3539   77.7073   -6.3530 C.3     1  UNL1        0.1715
     34 C          22.0454   78.0214   -7.0809 C.3     1  UNL1        0.1694
     35 C          23.9749   76.4209   -6.8943 C.3     1  UNL1        0.1967
     36 C          21.1234   76.7951   -7.1170 C.3     1  UNL1        0.1761
     37 C          22.9602   75.2768   -6.9333 C.3     1  UNL1        0.2704
     38 H          23.8721   79.6116   -6.2299 H       1  UNL1        0.2105
     39 H          22.0028   79.8678   -6.3840 H       1  UNL1        0.2105
     40 H          25.7280   76.7940   -6.0733 H       1  UNL1        0.2106
     41 O          20.2685   77.0379   -9.3349 O.3     1  UNL1       -0.3794
     42 C          19.8822   77.0379   -7.9729 C.3     1  UNL1        0.1693
     43 H          19.4885   77.1909   -9.8916 H       1  UNL1        0.2105
@<TRIPOS>UNITY_ATOM_ATTR
2 1
charge -1
26 1
charge -1
@<TRIPOS>BOND
     1    25    28    1
     2    25    24    1
     3    25    26    1
     4    25    27    2
     5     1     4    1
     6     1    24    1
     7     1     2    1
     8     1     3    2
     9     6    11    1
    10     6    12    1
    11    29    36    1
    12    29    37    1
    13     7     9    1
    14     7    13    1
    15     8    10    1
    16     8    14    1
    17    28    37    1
    18     4     5    1
    19    30    33    1
    20    30    38    1
    21    31    34    1
    22    31    39    1
    23    32    35    1
    24    32    40    1
    25    41    42    1
    26    41    43    1
    27    15    19    2
    28    16    22    2
    29    17    12    1
    30    17    19   ar
    31    17    20   ar
    32    18    19   ar
    33    18    22   ar
    34    18    23    1
    35     9    10    1
    36     9    11    1
    37    10    12    1
    38    11     5    1
    39    33    34    1
    40    33    35    1
    41    34    36    1
    42    35    37    1
    43    36    42    1
    44    20    21   ar
    45    21    22   ar
