@<TRIPOS>MOLECULE
*****
 43 45 0 0 0
SMALL
GASTEIGER

@<TRIPOS>ATOM
      1 P          22.9276   72.3491   -3.4350 P.3     1  UNL1        0.2189
      2 O          23.5443   70.8652   -3.2477 O.co2   1  UNL1       -0.4371
      3 O          23.7072   73.4476   -2.7739 O.2     1  UNL1       -0.5170
      4 O          21.3895   72.1936   -2.9576 O.3     1  UNL1       -0.3112
      5 C          20.6027   71.1666   -3.5355 C.3     1  UNL1        0.1811
      6 O          18.6811   72.0558   -4.6714 O.3     1  UNL1       -0.3308
      7 O          17.0483   70.8252   -2.4781 O.3     1  UNL1       -0.3794
      8 O          16.7490   69.0382   -4.5161 O.3     1  UNL1       -0.3779
      9 C          18.2367   70.3388   -3.0997 C.3     1  UNL1        0.1713
     10 C          17.9283   69.8161   -4.4872 C.3     1  UNL1        0.1895
     11 C          19.1314   71.5345   -3.4018 C.3     1  UNL1        0.1764
     12 C          17.8005   71.1015   -5.2870 C.3     1  UNL1        0.2383
     13 H          16.4612   70.0795   -2.2753 H       1  UNL1        0.2105
     14 H          16.8805   68.2318   -3.9934 H       1  UNL1        0.2106
     15 O          16.0220   70.3901   -7.3627 O.2     1  UNL1       -0.2464
     16 O          19.3798   70.4792  -10.5184 O.2     1  UNL1       -0.2670
     17 N          18.1830   70.9323   -6.6604 N.ar    1  UNL1       -0.2551
     18 N          17.6954   70.4352   -8.9323 N.ar    1  UNL1       -0.2743
     19 C          17.2126   70.5729   -7.6246 C.ar    1  UNL1        0.3323
     20 C          19.5074   71.1227   -7.0395 C.ar    1  UNL1        0.0869
     21 C          19.9518   70.9862   -8.2905 C.ar    1  UNL1        0.0795
     22 C          19.0022   70.6124   -9.3584 C.ar    1  UNL1        0.2626
     23 H          17.0374   70.1850   -9.6210 H       1  UNL1        0.1734
     24 O          22.7975   72.4886   -5.0402 O.3     1  UNL1       -0.2703
     25 P          22.3003   73.7200   -5.9619 P.3     1  UNL1        0.2208
     26 O          23.3571   74.8945   -5.6135 O.co2   1  UNL1       -0.4371
     27 O          20.8624   74.1002   -5.7576 O.2     1  UNL1       -0.5170
     28 O          22.6670   73.2758   -7.4696 O.3     1  UNL1       -0.2858
     29 O          20.9552   74.2311   -8.8014 O.3     1  UNL1       -0.3258
     30 O          22.6632   77.6942   -7.3384 O.3     1  UNL1       -0.3794
     31 O          20.0965   76.8561   -6.3599 O.3     1  UNL1       -0.3794
     32 O          24.3421   75.4488   -8.0587 O.3     1  UNL1       -0.3775
     33 C          22.2369   76.3300   -7.2888 C.3     1  UNL1        0.1715
     34 C          20.7233   76.2923   -7.5087 C.3     1  UNL1        0.1694
     35 C          22.9585   75.5415   -8.3801 C.3     1  UNL1        0.1967
     36 C          20.2319   74.8562   -7.7347 C.3     1  UNL1        0.1761
     37 C          22.3604   74.1447   -8.5569 C.3     1  UNL1        0.2704
     38 H          22.2091   78.2003   -6.6476 H       1  UNL1        0.2105
     39 H          20.4158   77.7627   -6.2281 H       1  UNL1        0.2105
     40 H          24.7090   76.3395   -7.9496 H       1  UNL1        0.2106
     41 O          18.3804   76.0765   -8.6245 O.3     1  UNL1       -0.3794
     42 C          18.7528   74.8105   -8.1119 C.3     1  UNL1        0.1693
     43 H          17.4414   76.0622   -8.8691 H       1  UNL1        0.2105
@<TRIPOS>UNITY_ATOM_ATTR
2 1
charge -1
26 1
charge -1
@<TRIPOS>BOND
     1    25    28    1
     2    25    24    1
     3    25    26    1
     4    25    27    2
     5     1     4    1
     6     1    24    1
     7     1     2    1
     8     1     3    2
     9     6    11    1
    10     6    12    1
    11    29    36    1
    12    29    37    1
    13     7     9    1
    14     7    13    1
    15     8    10    1
    16     8    14    1
    17    28    37    1
    18     4     5    1
    19    30    33    1
    20    30    38    1
    21    31    34    1
    22    31    39    1
    23    32    35    1
    24    32    40    1
    25    41    42    1
    26    41    43    1
    27    15    19    2
    28    16    22    2
    29    17    12    1
    30    17    19   ar
    31    17    20   ar
    32    18    19   ar
    33    18    22   ar
    34    18    23    1
    35     9    10    1
    36     9    11    1
    37    10    12    1
    38    11     5    1
    39    33    34    1
    40    33    35    1
    41    34    36    1
    42    35    37    1
    43    36    42    1
    44    20    21   ar
    45    21    22   ar
@<TRIPOS>MOLECULE
*****
 43 45 0 0 0
SMALL
GASTEIGER

@<TRIPOS>ATOM
      1 P          22.8653   71.8577   -2.5287 P.3     1  UNL1        0.2189
      2 O          23.6903   73.2399   -2.6906 O.co2   1  UNL1       -0.4371
      3 O          23.5068   70.6587   -3.1630 O.2     1  UNL1       -0.5170
      4 O          21.3826   72.2257   -3.0616 O.3     1  UNL1       -0.3112
      5 C          20.5816   71.1890   -3.6017 C.3     1  UNL1        0.1811
      6 O          18.6731   72.0921   -4.7488 O.3     1  UNL1       -0.3308
      7 O          17.0218   70.9052   -2.5453 O.3     1  UNL1       -0.3794
      8 O          16.7012   69.1020   -4.5657 O.3     1  UNL1       -0.3779
      9 C          18.2044   70.3969   -3.1605 C.3     1  UNL1        0.1713
     10 C          17.8906   69.8645   -4.5431 C.3     1  UNL1        0.1895
     11 C          19.1151   71.5776   -3.4735 C.3     1  UNL1        0.1764
     12 C          17.7807   71.1434   -5.3558 C.3     1  UNL1        0.2383
     13 H          16.4247   70.1693   -2.3358 H       1  UNL1        0.2105
     14 H          16.8214   68.2992   -4.0349 H       1  UNL1        0.2106
     15 O          16.0000   70.4095   -7.4218 O.2     1  UNL1       -0.2464
     16 O          19.3572   70.4494  -10.5790 O.2     1  UNL1       -0.2670
     17 N          18.1624   70.9555   -6.7271 N.ar    1  UNL1       -0.2551
     18 N          17.6730   70.4301   -8.9922 N.ar    1  UNL1       -0.2743
     19 C          17.1910   70.5860   -7.6863 C.ar    1  UNL1        0.3323
     20 C          19.4872   71.1377   -7.1088 C.ar    1  UNL1        0.0869
     21 C          19.9310   70.9839   -8.3581 C.ar    1  UNL1        0.0795
     22 C          18.9801   70.5986   -9.4209 C.ar    1  UNL1        0.2626
     23 H          17.0143   70.1725   -9.6774 H       1  UNL1        0.1734
     24 O          22.6585   71.7430   -0.9296 O.3     1  UNL1       -0.2703
     25 P          22.0967   70.5337   -0.0159 P.3     1  UNL1        0.2208
     26 O          23.4347   69.7141    0.3784 O.co2   1  UNL1       -0.4371
     27 O          21.0349   69.7041   -0.6781 O.2     1  UNL1       -0.5170
     28 O          21.6324   71.2415    1.3582 O.3     1  UNL1       -0.2858
     29 O          22.1707   73.5192    0.9855 O.3     1  UNL1       -0.3258
     30 O          20.3628   73.8650    4.6818 O.3     1  UNL1       -0.3794
     31 O          18.9948   74.8104    2.3402 O.3     1  UNL1       -0.3794
     32 O          22.0572   71.5885    4.1104 O.3     1  UNL1       -0.3775
     33 C          20.5584   73.3237    3.3725 C.3     1  UNL1        0.1715
     34 C          20.3736   74.4511    2.3549 C.3     1  UNL1        0.1694
     35 C          21.9672   72.7405    3.2789 C.3     1  UNL1        0.1967
     36 C          20.8269   74.0140    0.9554 C.3     1  UNL1        0.1761
     37 C          22.3364   72.3843    1.8377 C.3     1  UNL1        0.2704
     38 H          19.4700   74.2365    4.7480 H       1  UNL1        0.2105
     39 H          18.7212   75.0839    3.2299 H       1  UNL1        0.2105
     40 H          21.8214   71.8272    5.0199 H       1  UNL1        0.2106
     41 O          21.4210   74.7448   -1.2405 O.3     1  UNL1       -0.3794
     42 C          20.7994   75.1703   -0.0417 C.3     1  UNL1        0.1693
     43 H          21.4105   75.4705   -1.8846 H       1  UNL1        0.2105
@<TRIPOS>UNITY_ATOM_ATTR
2 1
charge -1
26 1
charge -1
@<TRIPOS>BOND
     1    25    28    1
     2    25    24    1
     3    25    26    1
     4    25    27    2
     5     1     4    1
     6     1    24    1
     7     1     2    1
     8     1     3    2
     9     6    11    1
    10     6    12    1
    11    29    36    1
    12    29    37    1
    13     7     9    1
    14     7    13    1
    15     8    10    1
    16     8    14    1
    17    28    37    1
    18     4     5    1
    19    30    33    1
    20    30    38    1
    21    31    34    1
    22    31    39    1
    23    32    35    1
    24    32    40    1
    25    41    42    1
    26    41    43    1
    27    15    19    2
    28    16    22    2
    29    17    12    1
    30    17    19   ar
    31    17    20   ar
    32    18    19   ar
    33    18    22   ar
    34    18    23    1
    35     9    10    1
    36     9    11    1
    37    10    12    1
    38    11     5    1
    39    33    34    1
    40    33    35    1
    41    34    36    1
    42    35    37    1
    43    36    42    1
    44    20    21   ar
    45    21    22   ar
@<TRIPOS>MOLECULE
*****
 43 45 0 0 0
SMALL
GASTEIGER

@<TRIPOS>ATOM
      1 P          22.7772   71.4612   -2.7958 P.3     1  UNL1        0.2189
      2 O          23.1286   72.9258   -3.3865 O.co2   1  UNL1       -0.4371
      3 O          23.6613   70.3518   -3.2847 O.2     1  UNL1       -0.5170
      4 O          21.1979   71.2877   -3.1016 O.3     1  UNL1       -0.3112
      5 C          20.5160   72.3433   -3.7563 C.3     1  UNL1        0.1811
      6 O          18.3475   72.3557   -4.7912 O.3     1  UNL1       -0.3308
      7 O          17.3796   70.9125   -2.3476 O.3     1  UNL1       -0.3794
      8 O          17.6359   68.8965   -4.1660 O.3     1  UNL1       -0.3779
      9 C          18.6297   70.8002   -3.0259 C.3     1  UNL1        0.1713
     10 C          18.4579   70.0353   -4.3217 C.3     1  UNL1        0.1895
     11 C          19.0195   72.1863   -3.5239 C.3     1  UNL1        0.1764
     12 C          17.8369   71.0853   -5.2273 C.3     1  UNL1        0.2383
     13 H          17.1101   70.0396   -2.0200 H       1  UNL1        0.2105
     14 H          18.0744   68.2585   -3.5819 H       1  UNL1        0.2106
     15 O          15.9979   70.3734   -7.2496 O.2     1  UNL1       -0.2464
     16 O          19.2786   70.3707  -10.4866 O.2     1  UNL1       -0.2670
     17 N          18.1832   70.8923   -6.6072 N.ar    1  UNL1       -0.2551
     18 N          17.6329   70.3728   -8.8597 N.ar    1  UNL1       -0.2743
     19 C          17.1844   70.5349   -7.5427 C.ar    1  UNL1        0.3323
     20 C          19.5005   71.0579   -7.0208 C.ar    1  UNL1        0.0869
     21 C          19.9122   70.8983   -8.2803 C.ar    1  UNL1        0.0795
     22 C          18.9314   70.5249   -9.3198 C.ar    1  UNL1        0.2626
     23 H          16.9547   70.1235   -9.5288 H       1  UNL1        0.1734
     24 O          22.8140   71.6958   -1.1969 O.3     1  UNL1       -0.2703
     25 P          22.4258   70.7162    0.0290 P.3     1  UNL1        0.2208
     26 O          23.6840   69.7021    0.1063 O.co2   1  UNL1       -0.4371
     27 O          21.0939   70.0401   -0.1217 O.2     1  UNL1       -0.5170
     28 O          22.5630   71.6374    1.3472 O.3     1  UNL1       -0.2858
     29 O          21.5988   72.4820    3.3405 O.3     1  UNL1       -0.3258
     30 O          21.0574   75.7694    0.9012 O.3     1  UNL1       -0.3794
     31 O          23.0428   75.8539    2.9746 O.3     1  UNL1       -0.3794
     32 O          20.7138   73.1030   -0.1719 O.3     1  UNL1       -0.3775
     33 C          21.7381   74.6144    1.3991 C.3     1  UNL1        0.1715
     34 C          22.0456   74.8405    2.8806 C.3     1  UNL1        0.1694
     35 C          20.8430   73.3901    1.2164 C.3     1  UNL1        0.1967
     36 C          22.5329   73.5477    3.5488 C.3     1  UNL1        0.1761
     37 C          21.3931   72.1722    1.9608 C.3     1  UNL1        0.2704
     38 H          21.6205   76.5503    1.0137 H       1  UNL1        0.2105
     39 H          22.7228   76.6646    2.5485 H       1  UNL1        0.2105
     40 H          20.3644   73.8816   -0.6318 H       1  UNL1        0.2106
     41 O          22.0296   72.6376    5.6999 O.3     1  UNL1       -0.3794
     42 C          22.6948   73.7102    5.0586 C.3     1  UNL1        0.1693
     43 H          22.1245   72.7277    6.6615 H       1  UNL1        0.2105
@<TRIPOS>UNITY_ATOM_ATTR
2 1
charge -1
26 1
charge -1
@<TRIPOS>BOND
     1    25    28    1
     2    25    24    1
     3    25    26    1
     4    25    27    2
     5     1     4    1
     6     1    24    1
     7     1     2    1
     8     1     3    2
     9     6    11    1
    10     6    12    1
    11    29    36    1
    12    29    37    1
    13     7     9    1
    14     7    13    1
    15     8    10    1
    16     8    14    1
    17    28    37    1
    18     4     5    1
    19    30    33    1
    20    30    38    1
    21    31    34    1
    22    31    39    1
    23    32    35    1
    24    32    40    1
    25    41    42    1
    26    41    43    1
    27    15    19    2
    28    16    22    2
    29    17    12    1
    30    17    19   ar
    31    17    20   ar
    32    18    19   ar
    33    18    22   ar
    34    18    23    1
    35     9    10    1
    36     9    11    1
    37    10    12    1
    38    11     5    1
    39    33    34    1
    40    33    35    1
    41    34    36    1
    42    35    37    1
    43    36    42    1
    44    20    21   ar
    45    21    22   ar
@<TRIPOS>MOLECULE
*****
 43 45 0 0 0
SMALL
GASTEIGER

@<TRIPOS>ATOM
      1 P          22.9272   72.1708   -3.0605 P.3     1  UNL1        0.2189
      2 O          23.5762   70.7070   -3.2918 O.co2   1  UNL1       -0.4371
      3 O          22.8709   72.6203   -1.6301 O.2     1  UNL1       -0.5170
      4 O          21.5052   72.0908   -3.8283 O.3     1  UNL1       -0.3112
      5 C          20.6860   70.9541   -3.6175 C.3     1  UNL1        0.1811
      6 O          18.8019   71.9670   -4.7121 O.3     1  UNL1       -0.3308
      7 O          17.1355   70.8132   -2.5025 O.3     1  UNL1       -0.3794
      8 O          16.6968   69.0678   -4.5513 O.3     1  UNL1       -0.3779
      9 C          18.2825   70.2636   -3.1488 C.3     1  UNL1        0.1713
     10 C          17.9206   69.7742   -4.5355 C.3     1  UNL1        0.1895
     11 C          19.2415   71.4072   -3.4553 C.3     1  UNL1        0.1764
     12 C          17.8562   71.0729   -5.3212 C.3     1  UNL1        0.2383
     13 H          16.5086   70.1015   -2.2965 H       1  UNL1        0.2105
     14 H          16.7888   68.2498   -4.0384 H       1  UNL1        0.2106
     15 O          16.0070   70.4708   -7.3695 O.2     1  UNL1       -0.2464
     16 O          19.3087   70.4123  -10.5845 O.2     1  UNL1       -0.2670
     17 N          18.2051   70.8953   -6.7025 N.ar    1  UNL1       -0.2551
     18 N          17.6524   70.4423   -8.9687 N.ar    1  UNL1       -0.2743
     19 C          17.2006   70.5942   -7.6516 C.ar    1  UNL1        0.3323
     20 C          19.5307   71.0203   -7.1040 C.ar    1  UNL1        0.0869
     21 C          19.9453   70.8712   -8.3638 C.ar    1  UNL1        0.0795
     22 C          18.9589   70.5555   -9.4170 C.ar    1  UNL1        0.2626
     23 H          16.9704   70.2318   -9.6471 H       1  UNL1        0.1734
     24 O          23.8102   73.1170   -4.0289 O.3     1  UNL1       -0.2703
     25 P          23.9188   74.7267   -4.1289 P.3     1  UNL1        0.2208
     26 O          25.5089   74.9996   -4.0087 O.co2   1  UNL1       -0.4371
     27 O          23.0861   75.4635   -3.1201 O.2     1  UNL1       -0.5170
     28 O          23.5621   75.0655   -5.6661 O.3     1  UNL1       -0.2858
     29 O          21.6815   76.1134   -6.6568 O.3     1  UNL1       -0.3258
     30 O          22.3666   73.1804   -9.4815 O.3     1  UNL1       -0.3794
     31 O          22.9958   75.9146  -10.0951 O.3     1  UNL1       -0.3794
     32 O          22.7130   72.5862   -6.6697 O.3     1  UNL1       -0.3775
     33 C          22.7310   74.1533   -8.4987 C.3     1  UNL1        0.1715
     34 C          22.2235   75.5193   -8.9648 C.3     1  UNL1        0.1694
     35 C          22.0989   73.7727   -7.1612 C.3     1  UNL1        0.1967
     36 C          22.3391   76.5642   -7.8468 C.3     1  UNL1        0.1761
     37 C          22.2265   74.8999   -6.1350 C.3     1  UNL1        0.2704
     38 H          22.7652   73.4160  -10.3331 H       1  UNL1        0.2105
     39 H          22.9146   75.2461  -10.7935 H       1  UNL1        0.2105
     40 H          22.6252   71.8801   -7.3282 H       1  UNL1        0.2106
     41 O          20.9321   77.6940   -9.4130 O.3     1  UNL1       -0.3794
     42 C          21.6945   77.8926   -8.2367 C.3     1  UNL1        0.1693
     43 H          20.5156   78.5311   -9.6728 H       1  UNL1        0.2105
@<TRIPOS>UNITY_ATOM_ATTR
2 1
charge -1
26 1
charge -1
@<TRIPOS>BOND
     1    25    28    1
     2    25    24    1
     3    25    26    1
     4    25    27    2
     5     1     4    1
     6     1    24    1
     7     1     2    1
     8     1     3    2
     9     6    11    1
    10     6    12    1
    11    29    36    1
    12    29    37    1
    13     7     9    1
    14     7    13    1
    15     8    10    1
    16     8    14    1
    17    28    37    1
    18     4     5    1
    19    30    33    1
    20    30    38    1
    21    31    34    1
    22    31    39    1
    23    32    35    1
    24    32    40    1
    25    41    42    1
    26    41    43    1
    27    15    19    2
    28    16    22    2
    29    17    12    1
    30    17    19   ar
    31    17    20   ar
    32    18    19   ar
    33    18    22   ar
    34    18    23    1
    35     9    10    1
    36     9    11    1
    37    10    12    1
    38    11     5    1
    39    33    34    1
    40    33    35    1
    41    34    36    1
    42    35    37    1
    43    36    42    1
    44    20    21   ar
    45    21    22   ar
@<TRIPOS>MOLECULE
*****
 43 45 0 0 0
SMALL
GASTEIGER

@<TRIPOS>ATOM
      1 P          22.9874   74.3111   -9.1665 P.3     1  UNL1        0.2189
      2 O          21.9657   75.5631   -9.0888 O.co2   1  UNL1       -0.4371
      3 O          23.1847   73.7383  -10.5392 O.2     1  UNL1       -0.5170
      4 O          22.4273   73.2828   -8.0499 O.3     1  UNL1       -0.3112
      5 C          21.0444   73.3066   -7.7420 C.3     1  UNL1        0.1811
      6 O          20.0445   71.1456   -8.0644 O.3     1  UNL1       -0.3308
      7 O          18.5910   72.3714  -10.3830 O.3     1  UNL1       -0.3794
      8 O          16.6888   72.3578   -8.4290 O.3     1  UNL1       -0.3779
      9 C          18.9403   72.9527   -9.1278 C.3     1  UNL1        0.1713
     10 C          18.0437   72.4155   -8.0319 C.3     1  UNL1        0.1895
     11 C          20.3029   72.4062   -8.7205 C.3     1  UNL1        0.1764
     12 C          18.6392   71.0400   -7.7836 C.3     1  UNL1        0.2383
     13 H          17.7243   72.7057  -10.6640 H       1  UNL1        0.2105
     14 H          16.3559   73.2571   -8.5747 H       1  UNL1        0.2106
     15 O          16.2547   69.9289   -6.7553 O.2     1  UNL1       -0.2464
     16 O          18.0902   69.4089   -2.5598 O.2     1  UNL1       -0.2670
     17 N          18.4663   70.6053   -6.4262 N.ar    1  UNL1       -0.2551
     18 N          17.1706   69.6707   -4.6672 N.ar    1  UNL1       -0.2743
     19 C          17.2282   70.0622   -6.0108 C.ar    1  UNL1        0.3323
     20 C          19.5175   70.7190   -5.5229 C.ar    1  UNL1        0.0869
     21 C          19.4460   70.3423   -4.2445 C.ar    1  UNL1        0.0795
     22 C          18.1875   69.7648   -3.7302 C.ar    1  UNL1        0.2626
     23 H          16.3177   69.2899   -4.3552 H       1  UNL1        0.1734
     24 O          24.3303   74.8948   -8.4817 O.3     1  UNL1       -0.2703
     25 P          25.4303   75.9455   -9.0286 P.3     1  UNL1        0.2208
     26 O          25.4814   77.0684   -7.8650 O.co2   1  UNL1       -0.4371
     27 O          25.1373   76.4860  -10.3983 O.2     1  UNL1       -0.5170
     28 O          26.8377   75.1653   -8.9043 O.3     1  UNL1       -0.2858
     29 O          28.7359   74.7578   -7.5451 O.3     1  UNL1       -0.3258
     30 O          30.5456   76.8884  -10.5844 O.3     1  UNL1       -0.3794
     31 O          30.9940   74.0595  -10.3739 O.3     1  UNL1       -0.3794
     32 O          27.9086   77.6462   -9.6614 O.3     1  UNL1       -0.3775
     33 C          29.6050   75.9734  -10.0156 C.3     1  UNL1        0.1715
     34 C          30.3838   74.8380   -9.3484 C.3     1  UNL1        0.1694
     35 C          28.7474   76.7123   -8.9900 C.3     1  UNL1        0.1967
     36 C          29.4605   73.9623   -8.4905 C.3     1  UNL1        0.1761
     37 C          27.9039   75.7453   -8.1573 C.3     1  UNL1        0.2704
     38 H          31.0930   76.4256  -11.2368 H       1  UNL1        0.2105
     39 H          31.5739   74.6243  -10.9086 H       1  UNL1        0.2105
     40 H          28.4545   78.2529  -10.1847 H       1  UNL1        0.2106
     41 O          31.6226   73.1987   -7.8189 O.3     1  UNL1       -0.3794
     42 C          30.2404   72.9202   -7.6918 C.3     1  UNL1        0.1693
     43 H          32.1314   72.5436   -7.3153 H       1  UNL1        0.2105
@<TRIPOS>UNITY_ATOM_ATTR
2 1
charge -1
26 1
charge -1
@<TRIPOS>BOND
     1    25    28    1
     2    25    24    1
     3    25    26    1
     4    25    27    2
     5     1     4    1
     6     1    24    1
     7     1     2    1
     8     1     3    2
     9     6    11    1
    10     6    12    1
    11    29    36    1
    12    29    37    1
    13     7     9    1
    14     7    13    1
    15     8    10    1
    16     8    14    1
    17    28    37    1
    18     4     5    1
    19    30    33    1
    20    30    38    1
    21    31    34    1
    22    31    39    1
    23    32    35    1
    24    32    40    1
    25    41    42    1
    26    41    43    1
    27    15    19    2
    28    16    22    2
    29    17    12    1
    30    17    19   ar
    31    17    20   ar
    32    18    19   ar
    33    18    22   ar
    34    18    23    1
    35     9    10    1
    36     9    11    1
    37    10    12    1
    38    11     5    1
    39    33    34    1
    40    33    35    1
    41    34    36    1
    42    35    37    1
    43    36    42    1
    44    20    21   ar
    45    21    22   ar
@<TRIPOS>MOLECULE
*****
 43 45 0 0 0
SMALL
GASTEIGER

@<TRIPOS>ATOM
      1 P          22.7054   72.8661   -4.0812 P.3     1  UNL1        0.2189
      2 O          22.8526   72.8691   -5.6923 O.co2   1  UNL1       -0.4371
      3 O          23.4418   71.7631   -3.3795 O.2     1  UNL1       -0.5170
      4 O          21.1066   72.9098   -3.8372 O.3     1  UNL1       -0.3112
      5 C          20.4325   71.6960   -3.5536 C.3     1  UNL1        0.1811
      6 O          18.4776   72.3798   -4.7720 O.3     1  UNL1       -0.3308
      7 O          16.8894   71.1726   -2.5335 O.3     1  UNL1       -0.3794
      8 O          16.7537   69.2500   -4.4627 O.3     1  UNL1       -0.3779
      9 C          18.1205   70.7335   -3.1053 C.3     1  UNL1        0.1713
     10 C          17.8762   70.1083   -4.4629 C.3     1  UNL1        0.1895
     11 C          18.9371   71.9682   -3.4660 C.3     1  UNL1        0.1764
     12 C          17.6768   71.3314   -5.3417 C.3     1  UNL1        0.2383
     13 H          16.3508   70.4014   -2.2947 H       1  UNL1        0.2105
     14 H          16.9297   68.4875   -3.8896 H       1  UNL1        0.2106
     15 O          16.0085   70.3189   -7.3837 O.2     1  UNL1       -0.2464
     16 O          19.3983   70.5104  -10.5004 O.2     1  UNL1       -0.2670
     17 N          18.0973   71.1071   -6.6961 N.ar    1  UNL1       -0.2551
     18 N          17.6977   70.4153   -8.9340 N.ar    1  UNL1       -0.2743
     19 C          17.1815   70.5945   -7.6442 C.ar    1  UNL1        0.3323
     20 C          19.4048   71.3949   -7.0725 C.ar    1  UNL1        0.0869
     21 C          19.8817   71.2170   -8.3062 C.ar    1  UNL1        0.0795
     22 C          18.9897   70.6852   -9.3566 C.ar    1  UNL1        0.2626
     23 H          17.0779   70.0589   -9.6112 H       1  UNL1        0.1734
     24 O          23.1765   74.3569   -3.6705 O.3     1  UNL1       -0.2703
     25 P          23.0801   75.1515   -2.2661 P.3     1  UNL1        0.2208
     26 O          21.6202   75.8455   -2.3318 O.co2   1  UNL1       -0.4371
     27 O          24.2105   76.1089   -2.0219 O.2     1  UNL1       -0.5170
     28 O          22.9314   73.9939   -1.1512 O.3     1  UNL1       -0.2858
     29 O          21.3197   72.3405   -0.6170 O.3     1  UNL1       -0.3258
     30 O          22.0268   73.8214    3.1722 O.3     1  UNL1       -0.3794
     31 O          23.0289   71.2276    2.4537 O.3     1  UNL1       -0.3794
     32 O          21.9458   75.6245    0.9091 O.3     1  UNL1       -0.3775
     33 C          22.3696   73.4424    1.8365 C.3     1  UNL1        0.1715
     34 C          22.0804   71.9490    1.6725 C.3     1  UNL1        0.1694
     35 C          21.5347   74.2627    0.8550 C.3     1  UNL1        0.1967
     36 C          22.1689   71.5260    0.2000 C.3     1  UNL1        0.1761
     37 C          21.6558   73.7287   -0.5734 C.3     1  UNL1        0.2704
     38 H          22.5538   73.3045    3.8004 H       1  UNL1        0.2105
     39 H          22.9630   71.5043    3.3812 H       1  UNL1        0.2105
     40 H          21.8641   75.9509    1.8184 H       1  UNL1        0.2106
     41 O          22.0277   69.7039   -1.3392 O.3     1  UNL1       -0.3794
     42 C          21.7307   70.0777   -0.0064 C.3     1  UNL1        0.1693
     43 H          21.7545   68.7842   -1.4850 H       1  UNL1        0.2105
@<TRIPOS>UNITY_ATOM_ATTR
2 1
charge -1
26 1
charge -1
@<TRIPOS>BOND
     1    25    28    1
     2    25    24    1
     3    25    26    1
     4    25    27    2
     5     1     4    1
     6     1    24    1
     7     1     2    1
     8     1     3    2
     9     6    11    1
    10     6    12    1
    11    29    36    1
    12    29    37    1
    13     7     9    1
    14     7    13    1
    15     8    10    1
    16     8    14    1
    17    28    37    1
    18     4     5    1
    19    30    33    1
    20    30    38    1
    21    31    34    1
    22    31    39    1
    23    32    35    1
    24    32    40    1
    25    41    42    1
    26    41    43    1
    27    15    19    2
    28    16    22    2
    29    17    12    1
    30    17    19   ar
    31    17    20   ar
    32    18    19   ar
    33    18    22   ar
    34    18    23    1
    35     9    10    1
    36     9    11    1
    37    10    12    1
    38    11     5    1
    39    33    34    1
    40    33    35    1
    41    34    36    1
    42    35    37    1
    43    36    42    1
    44    20    21   ar
    45    21    22   ar
@<TRIPOS>MOLECULE
*****
 43 45 0 0 0
SMALL
GASTEIGER

@<TRIPOS>ATOM
      1 P          21.9893   73.8240   -6.0179 P.3     1  UNL1        0.2189
      2 O          22.2819   75.3728   -6.3824 O.co2   1  UNL1       -0.4371
      3 O          22.8237   72.8278   -6.7682 O.2     1  UNL1       -0.5170
      4 O          20.3882   73.6780   -6.1995 O.3     1  UNL1       -0.3112
      5 C          19.7748   74.2997   -7.3154 C.3     1  UNL1        0.1811
      6 O          19.6708   71.9443   -7.7791 O.3     1  UNL1       -0.3308
      7 O          18.0582   72.6817  -10.1971 O.3     1  UNL1       -0.3794
      8 O          16.1453   71.8664   -8.4328 O.3     1  UNL1       -0.3779
      9 C          18.0672   73.2797   -8.9019 C.3     1  UNL1        0.1713
     10 C          17.3472   72.3924   -7.9080 C.3     1  UNL1        0.1895
     11 C          19.4981   73.2465   -8.3796 C.3     1  UNL1        0.1764
     12 C          18.3857   71.3177   -7.6350 C.3     1  UNL1        0.2383
     13 H          17.1547   72.6917  -10.5514 H       1  UNL1        0.2105
     14 H          15.5172   72.5888   -8.5894 H       1  UNL1        0.2106
     15 O          16.2572   69.6867   -6.7477 O.2     1  UNL1       -0.2464
     16 O          18.0738   69.2946   -2.5302 O.2     1  UNL1       -0.2670
     17 N          18.2773   70.7752   -6.3101 N.ar    1  UNL1       -0.2551
     18 N          17.1636   69.4927   -4.6485 N.ar    1  UNL1       -0.2743
     19 C          17.1676   69.9686   -5.9658 C.ar    1  UNL1        0.3323
     20 C          19.2645   71.0441   -5.3683 C.ar    1  UNL1        0.0869
     21 C          19.2451   70.5837   -4.1158 C.ar    1  UNL1        0.0795
     22 C          18.1205   69.7333   -3.6753 C.ar    1  UNL1        0.2626
     23 H          16.4000   68.9289   -4.3859 H       1  UNL1        0.1734
     24 O          22.1778   73.7864   -4.4129 O.3     1  UNL1       -0.2703
     25 P          23.3076   73.0862   -3.4929 P.3     1  UNL1        0.2208
     26 O          24.6554   73.8916   -3.8831 O.co2   1  UNL1       -0.4371
     27 O          23.4043   71.5977   -3.6634 O.2     1  UNL1       -0.5170
     28 O          22.9662   73.5666   -1.9904 O.3     1  UNL1       -0.2858
     29 O          21.3167   72.0260   -1.2676 O.3     1  UNL1       -0.3258
     30 O          21.7020   74.2504    2.1898 O.3     1  UNL1       -0.3794
     31 O          22.7628   71.5833    2.0941 O.3     1  UNL1       -0.3794
     32 O          21.8098   75.5602   -0.3894 O.3     1  UNL1       -0.3775
     33 C          22.1560   73.6169    0.9908 C.3     1  UNL1        0.1715
     34 C          21.8828   72.1161    1.1083 C.3     1  UNL1        0.1694
     35 C          21.4058   74.2083   -0.2012 C.3     1  UNL1        0.1967
     36 C          22.0949   71.4074   -0.2363 C.3     1  UNL1        0.1761
     37 C          21.6468   73.4003   -1.4776 C.3     1  UNL1        0.2704
     38 H          22.1748   73.8798    2.9505 H       1  UNL1        0.2105
     39 H          22.6191   72.0396    2.9381 H       1  UNL1        0.2105
     40 H          21.6519   76.0612    0.4255 H       1  UNL1        0.2106
     41 O          22.7256   69.1954    0.4102 O.3     1  UNL1       -0.3794
     42 C          21.6767   69.9397   -0.1815 C.3     1  UNL1        0.1693
     43 H          22.4733   68.2593    0.4520 H       1  UNL1        0.2105
@<TRIPOS>UNITY_ATOM_ATTR
2 1
charge -1
26 1
charge -1
@<TRIPOS>BOND
     1    25    28    1
     2    25    24    1
     3    25    26    1
     4    25    27    2
     5     1     4    1
     6     1    24    1
     7     1     2    1
     8     1     3    2
     9     6    11    1
    10     6    12    1
    11    29    36    1
    12    29    37    1
    13     7     9    1
    14     7    13    1
    15     8    10    1
    16     8    14    1
    17    28    37    1
    18     4     5    1
    19    30    33    1
    20    30    38    1
    21    31    34    1
    22    31    39    1
    23    32    35    1
    24    32    40    1
    25    41    42    1
    26    41    43    1
    27    15    19    2
    28    16    22    2
    29    17    12    1
    30    17    19   ar
    31    17    20   ar
    32    18    19   ar
    33    18    22   ar
    34    18    23    1
    35     9    10    1
    36     9    11    1
    37    10    12    1
    38    11     5    1
    39    33    34    1
    40    33    35    1
    41    34    36    1
    42    35    37    1
    43    36    42    1
    44    20    21   ar
    45    21    22   ar
@<TRIPOS>MOLECULE
*****
 43 45 0 0 0
SMALL
GASTEIGER

@<TRIPOS>ATOM
      1 P          22.2503   73.3478   -5.2649 P.3     1  UNL1        0.2189
      2 O          22.3978   74.9002   -5.6959 O.co2   1  UNL1       -0.4371
      3 O          23.4995   72.7198   -4.7203 O.2     1  UNL1       -0.5170
      4 O          21.6215   72.6387   -6.5763 O.3     1  UNL1       -0.3112
      5 C          20.7762   73.4030   -7.4185 C.3     1  UNL1        0.1811
      6 O          19.9805   71.1735   -7.8306 O.3     1  UNL1       -0.3308
      7 O          18.4203   72.3516  -10.1041 O.3     1  UNL1       -0.3794
      8 O          16.5272   72.0842   -8.1596 O.3     1  UNL1       -0.3779
      9 C          18.7141   72.9120   -8.8255 C.3     1  UNL1        0.1713
     10 C          17.8709   72.2508   -7.7552 C.3     1  UNL1        0.1895
     11 C          20.1214   72.4778   -8.4350 C.3     1  UNL1        0.1764
     12 C          18.5909   70.9274   -7.5596 C.3     1  UNL1        0.2383
     13 H          17.5264   72.6154  -10.3749 H       1  UNL1        0.2105
     14 H          16.1126   72.9540   -8.2706 H       1  UNL1        0.2106
     15 O          16.2589   69.7048   -6.5373 O.2     1  UNL1       -0.2464
     16 O          18.1974   69.0374   -2.4097 O.2     1  UNL1       -0.2670
     17 N          18.4587   70.4246   -6.2213 N.ar    1  UNL1       -0.2551
     18 N          17.2261   69.3733   -4.4830 N.ar    1  UNL1       -0.2743
     19 C          17.2444   69.8291   -5.8073 C.ar    1  UNL1        0.3323
     20 C          19.5258   70.5240   -5.3351 C.ar    1  UNL1        0.0869
     21 C          19.4918   70.0856   -4.0750 C.ar    1  UNL1        0.0795
     22 C          18.2601   69.4506   -3.5634 C.ar    1  UNL1        0.2626
     23 H          16.3904   68.9552   -4.1723 H       1  UNL1        0.1734
     24 O          21.0056   73.3736   -4.2338 O.3     1  UNL1       -0.2703
     25 P          20.8284   74.1022   -2.8018 P.3     1  UNL1        0.2208
     26 O          19.2491   74.4502   -2.7555 O.co2   1  UNL1       -0.4371
     27 O          21.7295   75.2855   -2.5977 O.2     1  UNL1       -0.5170
     28 O          21.0178   72.9223   -1.7169 O.3     1  UNL1       -0.2858
     29 O          22.8461   73.2959   -0.2559 O.3     1  UNL1       -0.3258
     30 O          22.0325   69.3615    0.6978 O.3     1  UNL1       -0.3794
     31 O          21.3681   71.4397    2.5653 O.3     1  UNL1       -0.3794
     32 O          21.8234   70.2546   -2.0477 O.3     1  UNL1       -0.3775
     33 C          21.7136   70.7024    0.3163 C.3     1  UNL1        0.1715
     34 C          22.1949   71.6431    1.4228 C.3     1  UNL1        0.1694
     35 C          22.4104   71.0248   -1.0043 C.3     1  UNL1        0.1967
     36 C          22.1308   73.1083    0.9709 C.3     1  UNL1        0.1761
     37 C          22.3297   72.5159   -1.3362 C.3     1  UNL1        0.2704
     38 H          21.5928   69.1502    1.5354 H       1  UNL1        0.2105
     39 H          21.4171   70.5106    2.8401 H       1  UNL1        0.2105
     40 H          21.8811   69.3126   -1.8259 H       1  UNL1        0.2106
     41 O          21.8016   74.2951    3.0183 O.3     1  UNL1       -0.3794
     42 C          22.7528   74.0514    1.9985 C.3     1  UNL1        0.1693
     43 H          22.1837   74.8937    3.6797 H       1  UNL1        0.2105
@<TRIPOS>UNITY_ATOM_ATTR
2 1
charge -1
26 1
charge -1
@<TRIPOS>BOND
     1    25    28    1
     2    25    24    1
     3    25    26    1
     4    25    27    2
     5     1     4    1
     6     1    24    1
     7     1     2    1
     8     1     3    2
     9     6    11    1
    10     6    12    1
    11    29    36    1
    12    29    37    1
    13     7     9    1
    14     7    13    1
    15     8    10    1
    16     8    14    1
    17    28    37    1
    18     4     5    1
    19    30    33    1
    20    30    38    1
    21    31    34    1
    22    31    39    1
    23    32    35    1
    24    32    40    1
    25    41    42    1
    26    41    43    1
    27    15    19    2
    28    16    22    2
    29    17    12    1
    30    17    19   ar
    31    17    20   ar
    32    18    19   ar
    33    18    22   ar
    34    18    23    1
    35     9    10    1
    36     9    11    1
    37    10    12    1
    38    11     5    1
    39    33    34    1
    40    33    35    1
    41    34    36    1
    42    35    37    1
    43    36    42    1
    44    20    21   ar
    45    21    22   ar
@<TRIPOS>MOLECULE
*****
 43 45 0 0 0
SMALL
GASTEIGER

@<TRIPOS>ATOM
      1 P          22.2917   70.9181   -2.6829 P.3     1  UNL1        0.2189
      2 O          21.6792   69.9558   -1.5356 O.co2   1  UNL1       -0.4371
      3 O          23.6026   70.4659   -3.2560 O.2     1  UNL1       -0.5170
      4 O          22.2919   72.3850   -2.0002 O.3     1  UNL1       -0.3112
      5 C          22.3896   72.4741   -0.5894 C.3     1  UNL1        0.1811
      6 O          21.1125   72.7682    1.4246 O.3     1  UNL1       -0.3308
      7 O          19.0956   74.1844   -0.2835 O.3     1  UNL1       -0.3794
      8 O          20.4240   76.2492    0.9034 O.3     1  UNL1       -0.3779
      9 C          20.5191   74.1859   -0.3792 C.3     1  UNL1        0.1713
     10 C          21.1194   75.0322    0.7239 C.3     1  UNL1        0.1895
     11 C          21.0152   72.7918   -0.0164 C.3     1  UNL1        0.1764
     12 C          21.0045   74.1105    1.9261 C.3     1  UNL1        0.2383
     13 H          18.7555   75.0644   -0.5111 H       1  UNL1        0.2105
     14 H          20.5273   76.8005    0.1121 H       1  UNL1        0.2106
     15 O          20.6548   73.9395    4.7237 O.2     1  UNL1       -0.2464
     16 O          25.0707   74.9886    5.5239 O.2     1  UNL1       -0.2670
     17 N          22.0459   74.3337    2.8889 N.ar    1  UNL1       -0.2551
     18 N          22.8539   74.4619    5.1199 N.ar    1  UNL1       -0.2743
     19 C          21.7655   74.2241    4.2709 C.ar    1  UNL1        0.3323
     20 C          23.3286   74.6570    2.4599 C.ar    1  UNL1        0.0869
     21 C          24.3553   74.8819    3.2824 C.ar    1  UNL1        0.0795
     22 C          24.1469   74.7874    4.7417 C.ar    1  UNL1        0.2626
     23 H          22.6821   74.3915    6.0870 H       1  UNL1        0.1734
     24 O          21.0867   71.0168   -3.7559 O.3     1  UNL1       -0.2703
     25 P          19.7039   70.1887   -3.8784 P.3     1  UNL1        0.2208
     26 O          18.6827   71.0322   -2.9493 O.co2   1  UNL1       -0.4371
     27 O          19.8209   68.7378   -3.5108 O.2     1  UNL1       -0.5170
     28 O          19.1990   70.4578   -5.3876 O.3     1  UNL1       -0.2858
     29 O          19.6580   72.4270   -6.6237 O.3     1  UNL1       -0.3258
     30 O          16.0925   71.3463   -8.4043 O.3     1  UNL1       -0.3794
     31 O          18.5533   71.0277   -9.8503 O.3     1  UNL1       -0.3794
     32 O          16.4488   70.9911   -5.5536 O.3     1  UNL1       -0.3775
     33 C          17.3589   71.1182   -7.7800 C.3     1  UNL1        0.1715
     34 C          18.4422   71.7718   -8.6402 C.3     1  UNL1        0.1694
     35 C          17.3425   71.7291   -6.3801 C.3     1  UNL1        0.1967
     36 C          19.7894   71.8020   -7.9059 C.3     1  UNL1        0.1761
     37 C          18.7402   71.7551   -5.7588 C.3     1  UNL1        0.2704
     38 H          16.0961   70.9604   -9.2934 H       1  UNL1        0.2105
     39 H          17.6959   71.0160  -10.3040 H       1  UNL1        0.2105
     40 H          15.5676   70.9823   -5.9576 H       1  UNL1        0.2106
     41 O          22.0953   72.4137   -8.0390 O.3     1  UNL1       -0.3794
     42 C          20.8450   72.5889   -8.6796 C.3     1  UNL1        0.1693
     43 H          22.7769   72.9088   -8.5207 H       1  UNL1        0.2105
@<TRIPOS>UNITY_ATOM_ATTR
2 1
charge -1
26 1
charge -1
@<TRIPOS>BOND
     1    25    28    1
     2    25    24    1
     3    25    26    1
     4    25    27    2
     5     1     4    1
     6     1    24    1
     7     1     2    1
     8     1     3    2
     9     6    11    1
    10     6    12    1
    11    29    36    1
    12    29    37    1
    13     7     9    1
    14     7    13    1
    15     8    10    1
    16     8    14    1
    17    28    37    1
    18     4     5    1
    19    30    33    1
    20    30    38    1
    21    31    34    1
    22    31    39    1
    23    32    35    1
    24    32    40    1
    25    41    42    1
    26    41    43    1
    27    15    19    2
    28    16    22    2
    29    17    12    1
    30    17    19   ar
    31    17    20   ar
    32    18    19   ar
    33    18    22   ar
    34    18    23    1
    35     9    10    1
    36     9    11    1
    37    10    12    1
    38    11     5    1
    39    33    34    1
    40    33    35    1
    41    34    36    1
    42    35    37    1
    43    36    42    1
    44    20    21   ar
    45    21    22   ar
@<TRIPOS>MOLECULE
*****
 43 45 0 0 0
SMALL
GASTEIGER

@<TRIPOS>ATOM
      1 P          22.5916   75.1735   -8.0116 P.3     1  UNL1        0.2189
      2 O          21.5606   75.8600   -9.0525 O.co2   1  UNL1       -0.4371
      3 O          24.0221   75.1434   -8.4633 O.2     1  UNL1       -0.5170
      4 O          21.9239   73.7338   -7.6962 O.3     1  UNL1       -0.3112
      5 C          20.5217   73.6663   -7.5041 C.3     1  UNL1        0.1811
      6 O          19.8536   71.4067   -7.9747 O.3     1  UNL1       -0.3308
      7 O          18.2369   72.5516  -10.2255 O.3     1  UNL1       -0.3794
      8 O          16.3557   72.1303   -8.2967 O.3     1  UNL1       -0.3779
      9 C          18.4948   73.0956   -8.9321 C.3     1  UNL1        0.1713
     10 C          17.6866   72.3618   -7.8823 C.3     1  UNL1        0.1895
     11 C          19.9229   72.7314   -8.5461 C.3     1  UNL1        0.1764
     12 C          18.4792   71.0764   -7.7161 C.3     1  UNL1        0.2383
     13 H          17.3304   72.7715  -10.4937 H       1  UNL1        0.2105
     14 H          15.8932   72.9780   -8.3882 H       1  UNL1        0.2106
     15 O          16.1907   69.7599   -6.7124 O.2     1  UNL1       -0.2464
     16 O          18.1777   69.0368   -2.6173 O.2     1  UNL1       -0.2670
     17 N          18.3713   70.5338   -6.3912 N.ar    1  UNL1       -0.2551
     18 N          17.1820   69.4008   -4.6742 N.ar    1  UNL1       -0.2743
     19 C          17.1776   69.8927   -5.9857 C.ar    1  UNL1        0.3323
     20 C          19.4415   70.6399   -5.5097 C.ar    1  UNL1        0.0869
     21 C          19.4293   70.1666   -4.2618 C.ar    1  UNL1        0.0795
     22 C          18.2201   69.4828   -3.7597 C.ar    1  UNL1        0.2626
     23 H          16.3609   68.9505   -4.3696 H       1  UNL1        0.1734
     24 O          22.3343   76.0002   -6.6466 O.3     1  UNL1       -0.2703
     25 P          23.2000   76.0968   -5.2849 P.3     1  UNL1        0.2208
     26 O          22.9499   77.6178   -4.7934 O.co2   1  UNL1       -0.4371
     27 O          24.6463   75.7284   -5.4477 O.2     1  UNL1       -0.5170
     28 O          22.3937   75.1874   -4.2229 O.3     1  UNL1       -0.2858
     29 O          22.2971   75.1645   -1.8550 O.3     1  UNL1       -0.3258
     30 O          22.3854   71.0953   -2.5512 O.3     1  UNL1       -0.3794
     31 O          19.9465   72.3307   -1.6717 O.3     1  UNL1       -0.3794
     32 O          23.9823   72.8744   -4.1834 O.3     1  UNL1       -0.3775
     33 C          22.0397   72.4563   -2.8222 C.3     1  UNL1        0.1715
     34 C          21.2126   72.9839   -1.6482 C.3     1  UNL1        0.1694
     35 C          23.3199   73.2730   -2.9881 C.3     1  UNL1        0.1967
     36 C          21.0309   74.5051   -1.7379 C.3     1  UNL1        0.1761
     37 C          23.0318   74.7751   -3.0171 C.3     1  UNL1        0.2704
     38 H          21.5769   70.5712   -2.4454 H       1  UNL1        0.2105
     39 H          20.0754   71.3708   -1.6149 H       1  UNL1        0.2105
     40 H          24.1593   71.9218   -4.1526 H       1  UNL1        0.2106
     41 O          20.4851   74.1421    0.5598 O.3     1  UNL1       -0.3794
     42 C          20.3451   75.0733   -0.4974 C.3     1  UNL1        0.1693
     43 H          20.0536   74.4906    1.3561 H       1  UNL1        0.2105
@<TRIPOS>UNITY_ATOM_ATTR
2 1
charge -1
26 1
charge -1
@<TRIPOS>BOND
     1    25    28    1
     2    25    24    1
     3    25    26    1
     4    25    27    2
     5     1     4    1
     6     1    24    1
     7     1     2    1
     8     1     3    2
     9     6    11    1
    10     6    12    1
    11    29    36    1
    12    29    37    1
    13     7     9    1
    14     7    13    1
    15     8    10    1
    16     8    14    1
    17    28    37    1
    18     4     5    1
    19    30    33    1
    20    30    38    1
    21    31    34    1
    22    31    39    1
    23    32    35    1
    24    32    40    1
    25    41    42    1
    26    41    43    1
    27    15    19    2
    28    16    22    2
    29    17    12    1
    30    17    19   ar
    31    17    20   ar
    32    18    19   ar
    33    18    22   ar
    34    18    23    1
    35     9    10    1
    36     9    11    1
    37    10    12    1
    38    11     5    1
    39    33    34    1
    40    33    35    1
    41    34    36    1
    42    35    37    1
    43    36    42    1
    44    20    21   ar
    45    21    22   ar
@<TRIPOS>MOLECULE
*****
 43 45 0 0 0
SMALL
GASTEIGER

@<TRIPOS>ATOM
      1 P          21.5657   72.8126   -5.0118 P.3     1  UNL1        0.2189
      2 O          21.1224   74.2732   -4.4757 O.co2   1  UNL1       -0.4371
      3 O          23.0314   72.6590   -5.2940 O.2     1  UNL1       -0.5170
      4 O          20.5770   72.5417   -6.2636 O.3     1  UNL1       -0.3112
      5 C          21.1308   72.5067   -7.5673 C.3     1  UNL1        0.1811
      6 O          19.4167   70.8239   -7.6271 O.3     1  UNL1       -0.3308
      7 O          18.8669   71.7495  -10.4257 O.3     1  UNL1       -0.3794
      8 O          16.8774   72.9522   -9.0002 O.3     1  UNL1       -0.3779
      9 C          19.2517   72.5115   -9.2826 C.3     1  UNL1        0.1713
     10 C          18.0843   72.6541   -8.3284 C.3     1  UNL1        0.1895
     11 C          20.2285   71.6735   -8.4671 C.3     1  UNL1        0.1764
     12 C          18.0583   71.2918   -7.6565 C.3     1  UNL1        0.2383
     13 H          18.2432   72.2644  -10.9623 H       1  UNL1        0.2105
     14 H          16.9436   73.8283   -9.4109 H       1  UNL1        0.2106
     15 O          15.8344   72.8361   -6.8518 O.2     1  UNL1       -0.2464
     16 O          16.2266   71.4528   -2.4730 O.2     1  UNL1       -0.2670
     17 N          17.5573   71.3535   -6.3124 N.ar    1  UNL1       -0.2551
     18 N          16.0314   72.1459   -4.6722 N.ar    1  UNL1       -0.2743
     19 C          16.4349   72.1606   -6.0135 C.ar    1  UNL1        0.3323
     20 C          18.1770   70.6188   -5.3074 C.ar    1  UNL1        0.0869
     21 C          17.7807   70.6167   -4.0330 C.ar    1  UNL1        0.0795
     22 C          16.6154   71.4335   -3.6368 C.ar    1  UNL1        0.2626
     23 H          15.2518   72.7011   -4.4404 H       1  UNL1        0.1734
     24 O          20.9919   71.8182   -3.8738 O.3     1  UNL1       -0.2703
     25 P          21.7532   70.8315   -2.8442 P.3     1  UNL1        0.2208
     26 O          23.3125   71.0234   -3.2307 O.co2   1  UNL1       -0.4371
     27 O          21.2749   69.4091   -2.8876 O.2     1  UNL1       -0.5170
     28 O          21.5992   71.5454   -1.4049 O.3     1  UNL1       -0.2858
     29 O          23.3025   72.8594   -0.4105 O.3     1  UNL1       -0.3258
     30 O          21.3464   71.6181    3.0077 O.3     1  UNL1       -0.3794
     31 O          21.0941   74.3443    2.1403 O.3     1  UNL1       -0.3794
     32 O          21.6692   69.7920    0.7850 O.3     1  UNL1       -0.3775
     33 C          21.4488   72.0319    1.6425 C.3     1  UNL1        0.1715
     34 C          22.0559   73.4359    1.6112 C.3     1  UNL1        0.1694
     35 C          22.3369   71.0451    0.8871 C.3     1  UNL1        0.1967
     36 C          22.4433   73.8402    0.1823 C.3     1  UNL1        0.1761
     37 C          22.7034   71.5655   -0.5040 C.3     1  UNL1        0.2704
     38 H          20.7833   72.2403    3.4928 H       1  UNL1        0.2105
     39 H          20.8578   74.0775    3.0426 H       1  UNL1        0.2105
     40 H          21.4429   69.4731    1.6721 H       1  UNL1        0.2106
     41 O          24.5421   74.9159   -0.2003 O.3     1  UNL1       -0.3794
     42 C          23.1935   75.1698    0.1476 C.3     1  UNL1        0.1693
     43 H          25.0318   75.7533   -0.2265 H       1  UNL1        0.2105
@<TRIPOS>UNITY_ATOM_ATTR
2 1
charge -1
26 1
charge -1
@<TRIPOS>BOND
     1    25    28    1
     2    25    24    1
     3    25    26    1
     4    25    27    2
     5     1     4    1
     6     1    24    1
     7     1     2    1
     8     1     3    2
     9     6    11    1
    10     6    12    1
    11    29    36    1
    12    29    37    1
    13     7     9    1
    14     7    13    1
    15     8    10    1
    16     8    14    1
    17    28    37    1
    18     4     5    1
    19    30    33    1
    20    30    38    1
    21    31    34    1
    22    31    39    1
    23    32    35    1
    24    32    40    1
    25    41    42    1
    26    41    43    1
    27    15    19    2
    28    16    22    2
    29    17    12    1
    30    17    19   ar
    31    17    20   ar
    32    18    19   ar
    33    18    22   ar
    34    18    23    1
    35     9    10    1
    36     9    11    1
    37    10    12    1
    38    11     5    1
    39    33    34    1
    40    33    35    1
    41    34    36    1
    42    35    37    1
    43    36    42    1
    44    20    21   ar
    45    21    22   ar
@<TRIPOS>MOLECULE
*****
 43 45 0 0 0
SMALL
GASTEIGER

@<TRIPOS>ATOM
      1 P          18.7968   73.5231   -2.6320 P.3     1  UNL1        0.2189
      2 O          20.1160   73.9824   -3.4481 O.co2   1  UNL1       -0.4371
      3 O          17.9629   74.6470   -2.0911 O.2     1  UNL1       -0.5170
      4 O          19.3632   72.4773   -1.5350 O.3     1  UNL1       -0.3112
      5 C          20.1696   72.9738   -0.4809 C.3     1  UNL1        0.1811
      6 O          22.4447   73.2389    0.2453 O.3     1  UNL1       -0.3308
      7 O          23.0311   70.7333   -1.2939 O.3     1  UNL1       -0.3794
      8 O          22.8877   69.8324    1.2761 O.3     1  UNL1       -0.3779
      9 C          21.8678   71.0803   -0.5444 C.3     1  UNL1        0.1713
     10 C          22.1532   70.9920    0.9403 C.3     1  UNL1        0.1895
     11 C          21.6164   72.5713   -0.7318 C.3     1  UNL1        0.1764
     12 C          22.9348   72.2711    1.1876 C.3     1  UNL1        0.2383
     13 H          23.2116   69.7854   -1.1899 H       1  UNL1        0.2105
     14 H          22.3480   69.0457    1.1011 H       1  UNL1        0.2106
     15 O          20.6527   71.7785    2.7774 O.2     1  UNL1       -0.2464
     16 O          22.3250   74.2717    6.2744 O.2     1  UNL1       -0.2670
     17 N          22.7477   72.7788    2.5175 N.ar    1  UNL1       -0.2551
     18 N          21.4873   73.0202    4.5174 N.ar    1  UNL1       -0.2743
     19 C          21.5646   72.4737    3.2300 C.ar    1  UNL1        0.3323
     20 C          23.7310   73.5696    3.1021 C.ar    1  UNL1        0.0869
     21 C          23.6414   74.0841    4.3303 C.ar    1  UNL1        0.0795
     22 C          22.4373   73.8129    5.1418 C.ar    1  UNL1        0.2626
     23 H          20.6719   72.8212    5.0324 H       1  UNL1        0.1734
     24 O          18.0324   72.5653   -3.6862 O.3     1  UNL1       -0.2703
     25 P          18.4019   71.0943   -4.2455 P.3     1  UNL1        0.2208
     26 O          17.1717   70.1804   -3.7270 O.co2   1  UNL1       -0.4371
     27 O          19.7578   70.6009   -3.8305 O.2     1  UNL1       -0.5170
     28 O          18.1879   71.1985   -5.8418 O.3     1  UNL1       -0.2858
     29 O          19.2480   73.2618   -6.3273 O.3     1  UNL1       -0.3258
     30 O          18.4083   72.0295  -10.1778 O.3     1  UNL1       -0.3794
     31 O          21.1184   71.9700   -9.2293 O.3     1  UNL1       -0.3794
     32 O          16.4995   71.5415   -8.0570 O.3     1  UNL1       -0.3775
     33 C          18.7673   71.8582   -8.8041 C.3     1  UNL1        0.1715
     34 C          20.0597   72.6352   -8.5458 C.3     1  UNL1        0.1694
     35 C          17.6369   72.3870   -7.9231 C.3     1  UNL1        0.1967
     36 C          20.3639   72.7208   -7.0440 C.3     1  UNL1        0.1761
     37 C          18.0599   72.4783   -6.4559 C.3     1  UNL1        0.2704
     38 H          19.1216   71.6953  -10.7426 H       1  UNL1        0.2105
     39 H          20.9137   71.9222  -10.1764 H       1  UNL1        0.2105
     40 H          16.2415   71.4922   -8.9902 H       1  UNL1        0.2106
     41 O          22.7455   72.8660   -6.9176 O.3     1  UNL1       -0.3794
     42 C          21.5608   73.6236   -6.7535 C.3     1  UNL1        0.1693
     43 H          23.5156   73.4279   -6.7362 H       1  UNL1        0.2105
@<TRIPOS>UNITY_ATOM_ATTR
2 1
charge -1
26 1
charge -1
@<TRIPOS>BOND
     1    25    28    1
     2    25    24    1
     3    25    26    1
     4    25    27    2
     5     1     4    1
     6     1    24    1
     7     1     2    1
     8     1     3    2
     9     6    11    1
    10     6    12    1
    11    29    36    1
    12    29    37    1
    13     7     9    1
    14     7    13    1
    15     8    10    1
    16     8    14    1
    17    28    37    1
    18     4     5    1
    19    30    33    1
    20    30    38    1
    21    31    34    1
    22    31    39    1
    23    32    35    1
    24    32    40    1
    25    41    42    1
    26    41    43    1
    27    15    19    2
    28    16    22    2
    29    17    12    1
    30    17    19   ar
    31    17    20   ar
    32    18    19   ar
    33    18    22   ar
    34    18    23    1
    35     9    10    1
    36     9    11    1
    37    10    12    1
    38    11     5    1
    39    33    34    1
    40    33    35    1
    41    34    36    1
    42    35    37    1
    43    36    42    1
    44    20    21   ar
    45    21    22   ar
@<TRIPOS>MOLECULE
*****
 43 45 0 0 0
SMALL
GASTEIGER

@<TRIPOS>ATOM
      1 P          22.7429   74.7253   -8.6508 P.3     1  UNL1        0.2189
      2 O          21.6896   75.9532   -8.6381 O.co2   1  UNL1       -0.4371
      3 O          23.2207   74.3141  -10.0124 O.2     1  UNL1       -0.5170
      4 O          22.0060   73.5725   -7.7870 O.3     1  UNL1       -0.3112
      5 C          20.5986   73.6366   -7.6357 C.3     1  UNL1        0.1811
      6 O          19.8397   71.3983   -8.0690 O.3     1  UNL1       -0.3308
      7 O          18.2268   72.5780  -10.3045 O.3     1  UNL1       -0.3794
      8 O          16.3656   72.2473   -8.3390 O.3     1  UNL1       -0.3779
      9 C          18.5273   73.1260   -9.0220 C.3     1  UNL1        0.1713
     10 C          17.7113   72.4339   -7.9502 C.3     1  UNL1        0.1895
     11 C          19.9477   72.7134   -8.6565 C.3     1  UNL1        0.1764
     12 C          18.4588   71.1219   -7.7831 C.3     1  UNL1        0.2383
     13 H          17.3245   72.8285  -10.5596 H       1  UNL1        0.2105
     14 H          15.9332   73.1105   -8.4321 H       1  UNL1        0.2106
     15 O          16.1925   69.7732   -6.7718 O.2     1  UNL1       -0.2464
     16 O          18.1695   69.1563   -2.6545 O.2     1  UNL1       -0.2670
     17 N          18.3543   70.5980   -6.4504 N.ar    1  UNL1       -0.2551
     18 N          17.1788   69.4670   -4.7226 N.ar    1  UNL1       -0.2743
     19 C          17.1720   69.9381   -6.0417 C.ar    1  UNL1        0.3323
     20 C          19.4168   70.7404   -5.5646 C.ar    1  UNL1        0.0869
     21 C          19.4070   70.2865   -4.3095 C.ar    1  UNL1        0.0795
     22 C          18.2094   69.5852   -3.8036 C.ar    1  UNL1        0.2626
     23 H          16.3655   69.0043   -4.4157 H       1  UNL1        0.1734
     24 O          23.9089   75.2363   -7.6546 O.3     1  UNL1       -0.2703
     25 P          24.7241   76.6312   -7.6018 P.3     1  UNL1        0.2208
     26 O          24.0006   77.4385   -6.4008 O.co2   1  UNL1       -0.4371
     27 O          24.7648   77.3700   -8.9081 O.2     1  UNL1       -0.5170
     28 O          26.1733   76.2353   -7.0117 O.3     1  UNL1       -0.2858
     29 O          28.3659   77.0910   -6.7345 O.3     1  UNL1       -0.3258
     30 O          29.2517   73.7019   -8.9209 O.3     1  UNL1       -0.3794
     31 O          29.9055   73.7973   -6.1260 O.3     1  UNL1       -0.3794
     32 O          26.8782   75.2395   -9.5389 O.3     1  UNL1       -0.3775
     33 C          28.5340   74.4830   -7.9617 C.3     1  UNL1        0.1715
     34 C          29.5178   74.9405   -6.8830 C.3     1  UNL1        0.1694
     35 C          27.9092   75.6865   -8.6649 C.3     1  UNL1        0.1967
     36 C          28.8848   75.9977   -5.9683 C.3     1  UNL1        0.1761
     37 C          27.3527   76.6999   -7.6632 C.3     1  UNL1        0.2704
     38 H          29.6505   72.9358   -8.4809 H       1  UNL1        0.2105
     39 H          30.3033   73.1374   -6.7154 H       1  UNL1        0.2105
     40 H          27.2433   74.5988  -10.1683 H       1  UNL1        0.2106
     41 O          30.0018   75.7087   -3.8760 O.3     1  UNL1       -0.3794
     42 C          29.8961   76.5826   -4.9848 C.3     1  UNL1        0.1693
     43 H          30.6424   76.0680   -3.2418 H       1  UNL1        0.2105
@<TRIPOS>UNITY_ATOM_ATTR
2 1
charge -1
26 1
charge -1
@<TRIPOS>BOND
     1    25    28    1
     2    25    24    1
     3    25    26    1
     4    25    27    2
     5     1     4    1
     6     1    24    1
     7     1     2    1
     8     1     3    2
     9     6    11    1
    10     6    12    1
    11    29    36    1
    12    29    37    1
    13     7     9    1
    14     7    13    1
    15     8    10    1
    16     8    14    1
    17    28    37    1
    18     4     5    1
    19    30    33    1
    20    30    38    1
    21    31    34    1
    22    31    39    1
    23    32    35    1
    24    32    40    1
    25    41    42    1
    26    41    43    1
    27    15    19    2
    28    16    22    2
    29    17    12    1
    30    17    19   ar
    31    17    20   ar
    32    18    19   ar
    33    18    22   ar
    34    18    23    1
    35     9    10    1
    36     9    11    1
    37    10    12    1
    38    11     5    1
    39    33    34    1
    40    33    35    1
    41    34    36    1
    42    35    37    1
    43    36    42    1
    44    20    21   ar
    45    21    22   ar
@<TRIPOS>MOLECULE
*****
 43 45 0 0 0
SMALL
GASTEIGER

@<TRIPOS>ATOM
      1 P          22.6887   73.9333   -4.3142 P.3     1  UNL1        0.2189
      2 O          23.8931   72.8538   -4.3558 O.co2   1  UNL1       -0.4371
      3 O          23.0612   75.2775   -3.7611 O.2     1  UNL1       -0.5170
      4 O          21.4995   73.1588   -3.5373 O.3     1  UNL1       -0.3112
      5 C          21.3979   73.3118   -2.1323 C.3     1  UNL1        0.1811
      6 O          22.7270   73.0879   -0.1430 O.3     1  UNL1       -0.3308
      7 O          23.4623   70.3669   -1.1658 O.3     1  UNL1       -0.3794
      8 O          21.5544   69.8050    0.6998 O.3     1  UNL1       -0.3779
      9 C          22.2224   71.0649   -1.2693 C.3     1  UNL1        0.1713
     10 C          21.5070   71.0668    0.0655 C.3     1  UNL1        0.1895
     11 C          22.5315   72.5437   -1.4666 C.3     1  UNL1        0.1764
     12 C          22.2702   72.1348    0.8305 C.3     1  UNL1        0.2383
     13 H          23.2906   69.4201   -1.0396 H       1  UNL1        0.2105
     14 H          21.0548   69.1602    0.1751 H       1  UNL1        0.2106
     15 O          22.2406   71.5473    3.5931 O.2     1  UNL1       -0.2464
     16 O          19.0763   74.7906    4.4354 O.2     1  UNL1       -0.2670
     17 N          21.4484   72.8104    1.7947 N.ar    1  UNL1       -0.2551
     18 N          20.6652   73.1628    4.0103 N.ar    1  UNL1       -0.2743
     19 C          21.5082   72.4383    3.1579 C.ar    1  UNL1        0.3323
     20 C          20.5956   73.8298    1.3855 C.ar    1  UNL1        0.0869
     21 C          19.7971   74.5100    2.2107 C.ar    1  UNL1        0.0795
     22 C          19.7990   74.1834    3.6513 C.ar    1  UNL1        0.2626
     23 H          20.6896   72.9207    4.9645 H       1  UNL1        0.1734
     24 O          22.1683   73.9563   -5.8445 O.3     1  UNL1       -0.2703
     25 P          20.9951   74.8125   -6.5540 P.3     1  UNL1        0.2208
     26 O          21.7671   75.5780   -7.7521 O.co2   1  UNL1       -0.4371
     27 O          20.2452   75.7193   -5.6216 O.2     1  UNL1       -0.5170
     28 O          20.0785   73.7116   -7.2975 O.3     1  UNL1       -0.2858
     29 O          19.6862   71.5640   -6.3754 O.3     1  UNL1       -0.3258
     30 O          19.0618   70.6938  -10.3633 O.3     1  UNL1       -0.3794
     31 O          16.8221   70.8071   -8.5692 O.3     1  UNL1       -0.3794
     32 O          21.1661   72.5284   -9.5980 O.3     1  UNL1       -0.3775
     33 C          19.0256   71.5040   -9.1853 C.3     1  UNL1        0.1715
     34 C          18.1787   70.7841   -8.1340 C.3     1  UNL1        0.1694
     35 C          20.4514   71.7106   -8.6777 C.3     1  UNL1        0.1967
     36 C          18.3108   71.4566   -6.7609 C.3     1  UNL1        0.1761
     37 C          20.4689   72.3410   -7.2839 C.3     1  UNL1        0.2704
     38 H          18.1596   70.5591  -10.6911 H       1  UNL1        0.2105
     39 H          16.7525   70.3799   -9.4375 H       1  UNL1        0.2105
     40 H          21.1480   72.1184  -10.4763 H       1  UNL1        0.2106
     41 O          16.3062   70.3227   -6.1248 O.3     1  UNL1       -0.3794
     42 C          17.6010   70.6642   -5.6653 C.3     1  UNL1        0.1693
     43 H          15.8427   69.8177   -5.4379 H       1  UNL1        0.2105
@<TRIPOS>UNITY_ATOM_ATTR
2 1
charge -1
26 1
charge -1
@<TRIPOS>BOND
     1    25    28    1
     2    25    24    1
     3    25    26    1
     4    25    27    2
     5     1     4    1
     6     1    24    1
     7     1     2    1
     8     1     3    2
     9     6    11    1
    10     6    12    1
    11    29    36    1
    12    29    37    1
    13     7     9    1
    14     7    13    1
    15     8    10    1
    16     8    14    1
    17    28    37    1
    18     4     5    1
    19    30    33    1
    20    30    38    1
    21    31    34    1
    22    31    39    1
    23    32    35    1
    24    32    40    1
    25    41    42    1
    26    41    43    1
    27    15    19    2
    28    16    22    2
    29    17    12    1
    30    17    19   ar
    31    17    20   ar
    32    18    19   ar
    33    18    22   ar
    34    18    23    1
    35     9    10    1
    36     9    11    1
    37    10    12    1
    38    11     5    1
    39    33    34    1
    40    33    35    1
    41    34    36    1
    42    35    37    1
    43    36    42    1
    44    20    21   ar
    45    21    22   ar
@<TRIPOS>MOLECULE
*****
 43 45 0 0 0
SMALL
GASTEIGER

@<TRIPOS>ATOM
      1 P          22.7292   71.7578   -2.5156 P.3     1  UNL1        0.2189
      2 O          23.4306   73.1989   -2.2953 O.co2   1  UNL1       -0.4371
      3 O          23.5367   70.7749   -3.3114 O.2     1  UNL1       -0.5170
      4 O          21.2730   72.1228   -3.1192 O.3     1  UNL1       -0.3112
      5 C          20.5706   71.1255   -3.8402 C.3     1  UNL1        0.1811
      6 O          18.3843   71.5834   -2.9545 O.3     1  UNL1       -0.3308
      7 O          18.1803   68.6364   -2.4404 O.3     1  UNL1       -0.3794
      8 O          16.7238   68.9434   -4.7254 O.3     1  UNL1       -0.3779
      9 C          18.8040   69.3219   -3.5250 C.3     1  UNL1        0.1713
     10 C          17.7570   69.8730   -4.4704 C.3     1  UNL1        0.1895
     11 C          19.4365   70.5940   -2.9744 C.3     1  UNL1        0.1764
     12 C          17.2678   71.0992   -3.7185 C.3     1  UNL1        0.2383
     13 H          17.7694   67.8202   -2.7675 H       1  UNL1        0.2105
     14 H          17.0850   68.1818   -5.2052 H       1  UNL1        0.2106
     15 O          16.3119   70.6669   -6.3410 O.2     1  UNL1       -0.2464
     16 O          15.5776   75.1671   -7.0117 O.2     1  UNL1       -0.2670
     17 N          16.8199   72.1398   -4.6005 N.ar    1  UNL1       -0.2551
     18 N          15.9469   72.9080   -6.6727 N.ar    1  UNL1       -0.2743
     19 C          16.3596   71.8163   -5.8982 C.ar    1  UNL1        0.3323
     20 C          16.8395   73.4640   -4.1761 C.ar    1  UNL1        0.0869
     21 C          16.4436   74.4936   -4.9275 C.ar    1  UNL1        0.0795
     22 C          15.9486   74.2417   -6.2962 C.ar    1  UNL1        0.2626
     23 H          15.6226   72.7067   -7.5806 H       1  UNL1        0.1734
     24 O          22.3893   71.2847   -1.0078 O.3     1  UNL1       -0.2703
     25 P          21.6327   72.0485    0.1994 P.3     1  UNL1        0.2208
     26 O          21.4374   70.8871    1.3087 O.co2   1  UNL1       -0.4371
     27 O          20.3617   72.7357   -0.2081 O.2     1  UNL1       -0.5170
     28 O          22.7511   73.0281    0.8274 O.3     1  UNL1       -0.2858
     29 O          21.9366   74.1523    2.7482 O.3     1  UNL1       -0.3258
     30 O          25.4822   76.2059    2.2356 O.3     1  UNL1       -0.3794
     31 O          25.2229   74.3445    4.4073 O.3     1  UNL1       -0.3794
     32 O          23.9266   75.4120   -0.0729 O.3     1  UNL1       -0.3775
     33 C          24.6222   75.0636    2.2066 C.3     1  UNL1        0.1715
     34 C          24.1215   74.8040    3.6288 C.3     1  UNL1        0.1694
     35 C          23.4509   75.3443    1.2671 C.3     1  UNL1        0.1967
     36 C          22.9911   73.7660    3.6373 C.3     1  UNL1        0.1761
     37 C          22.3606   74.2783    1.3894 C.3     1  UNL1        0.2704
     38 H          26.2283   76.0340    2.8300 H       1  UNL1        0.2105
     39 H          25.9298   75.0088    4.3932 H       1  UNL1        0.2105
     40 H          24.6160   76.0905   -0.1373 H       1  UNL1        0.2106
     41 O          21.1906   72.8347    4.9021 O.3     1  UNL1       -0.3794
     42 C          22.3703   73.6079    5.0236 C.3     1  UNL1        0.1693
     43 H          20.7848   72.7256    5.7768 H       1  UNL1        0.2105
@<TRIPOS>UNITY_ATOM_ATTR
2 1
charge -1
26 1
charge -1
@<TRIPOS>BOND
     1    25    28    1
     2    25    24    1
     3    25    26    1
     4    25    27    2
     5     1     4    1
     6     1    24    1
     7     1     2    1
     8     1     3    2
     9     6    11    1
    10     6    12    1
    11    29    36    1
    12    29    37    1
    13     7     9    1
    14     7    13    1
    15     8    10    1
    16     8    14    1
    17    28    37    1
    18     4     5    1
    19    30    33    1
    20    30    38    1
    21    31    34    1
    22    31    39    1
    23    32    35    1
    24    32    40    1
    25    41    42    1
    26    41    43    1
    27    15    19    2
    28    16    22    2
    29    17    12    1
    30    17    19   ar
    31    17    20   ar
    32    18    19   ar
    33    18    22   ar
    34    18    23    1
    35     9    10    1
    36     9    11    1
    37    10    12    1
    38    11     5    1
    39    33    34    1
    40    33    35    1
    41    34    36    1
    42    35    37    1
    43    36    42    1
    44    20    21   ar
    45    21    22   ar
@<TRIPOS>MOLECULE
*****
 43 45 0 0 0
SMALL
GASTEIGER

@<TRIPOS>ATOM
      1 P          22.3652   71.1553   -2.4083 P.3     1  UNL1        0.2189
      2 O          23.7533   70.7262   -3.1199 O.co2   1  UNL1       -0.4371
      3 O          21.6678   70.0547   -1.6642 O.2     1  UNL1       -0.5170
      4 O          21.5156   71.8464   -3.5992 O.3     1  UNL1       -0.3112
      5 C          20.6291   71.0388   -4.3540 C.3     1  UNL1        0.1811
      6 O          18.3904   71.8562   -4.0474 O.3     1  UNL1       -0.3308
      7 O          17.8233   69.2449   -2.6873 O.3     1  UNL1       -0.3794
      8 O          16.7630   68.8642   -5.1707 O.3     1  UNL1       -0.3779
      9 C          18.6667   69.5151   -3.8057 C.3     1  UNL1        0.1713
     10 C          17.8325   69.7786   -5.0419 C.3     1  UNL1        0.1895
     11 C          19.3314   70.8668   -3.5764 C.3     1  UNL1        0.1764
     12 C          17.3589   71.2025   -4.8047 C.3     1  UNL1        0.2383
     13 H          17.3880   68.3862   -2.8108 H       1  UNL1        0.2105
     14 H          17.1155   67.9730   -5.3201 H       1  UNL1        0.2106
     15 O          15.8758   70.2237   -7.0003 O.2     1  UNL1       -0.2464
     16 O          16.6349   74.0507   -9.4538 O.2     1  UNL1       -0.2670
     17 N          17.1526   71.9223   -6.0298 N.ar    1  UNL1       -0.2551
     18 N          16.2549   72.1301   -8.2201 N.ar    1  UNL1       -0.2743
     19 C          16.3927   71.3407   -7.0713 C.ar    1  UNL1        0.3323
     20 C          17.7005   73.1905   -6.1891 C.ar    1  UNL1        0.0869
     21 C          17.5609   73.9299   -7.2914 C.ar    1  UNL1        0.0795
     22 C          16.7814   73.3954   -8.4266 C.ar    1  UNL1        0.2626
     23 H          15.7298   71.7453   -8.9590 H       1  UNL1        0.1734
     24 O          22.8000   72.4153   -1.4937 O.3     1  UNL1       -0.2703
     25 P          21.9164   73.5730   -0.7923 P.3     1  UNL1        0.2208
     26 O          20.4311   73.3126   -1.3785 O.co2   1  UNL1       -0.4371
     27 O          22.4354   74.9639   -1.0161 O.2     1  UNL1       -0.5170
     28 O          21.8254   73.1345    0.7583 O.3     1  UNL1       -0.2858
     29 O          22.8406   74.8749    2.0060 O.3     1  UNL1       -0.3258
     30 O          21.9200   72.2970    5.0976 O.3     1  UNL1       -0.3794
     31 O          20.4141   74.7212    4.7768 O.3     1  UNL1       -0.3794
     32 O          22.8421   71.2425    2.5643 O.3     1  UNL1       -0.3775
     33 C          21.7184   72.9484    3.8405 C.3     1  UNL1        0.1715
     34 C          21.6337   74.4556    4.0895 C.3     1  UNL1        0.1694
     35 C          22.8891   72.6213    2.9153 C.3     1  UNL1        0.1967
     36 C          21.6854   75.2387    2.7708 C.3     1  UNL1        0.1761
     37 C          22.8737   73.4898    1.6561 C.3     1  UNL1        0.2704
     38 H          21.1799   72.5002    5.6895 H       1  UNL1        0.2105
     39 H          20.3938   74.2203    5.6073 H       1  UNL1        0.2105
     40 H          22.8528   70.7034    3.3700 H       1  UNL1        0.2106
     41 O          23.0667   77.0674    3.4469 O.3     1  UNL1       -0.3794
     42 C          21.7612   76.7461    3.0034 C.3     1  UNL1        0.1693
     43 H          23.1297   78.0238    3.5987 H       1  UNL1        0.2105
@<TRIPOS>UNITY_ATOM_ATTR
2 1
charge -1
26 1
charge -1
@<TRIPOS>BOND
     1    25    28    1
     2    25    24    1
     3    25    26    1
     4    25    27    2
     5     1     4    1
     6     1    24    1
     7     1     2    1
     8     1     3    2
     9     6    11    1
    10     6    12    1
    11    29    36    1
    12    29    37    1
    13     7     9    1
    14     7    13    1
    15     8    10    1
    16     8    14    1
    17    28    37    1
    18     4     5    1
    19    30    33    1
    20    30    38    1
    21    31    34    1
    22    31    39    1
    23    32    35    1
    24    32    40    1
    25    41    42    1
    26    41    43    1
    27    15    19    2
    28    16    22    2
    29    17    12    1
    30    17    19   ar
    31    17    20   ar
    32    18    19   ar
    33    18    22   ar
    34    18    23    1
    35     9    10    1
    36     9    11    1
    37    10    12    1
    38    11     5    1
    39    33    34    1
    40    33    35    1
    41    34    36    1
    42    35    37    1
    43    36    42    1
    44    20    21   ar
    45    21    22   ar
@<TRIPOS>MOLECULE
*****
 43 45 0 0 0
SMALL
GASTEIGER

@<TRIPOS>ATOM
      1 P          22.5290   75.0112   -3.9366 P.3     1  UNL1        0.2189
      2 O          23.9620   74.2650   -4.0200 O.co2   1  UNL1       -0.4371
      3 O          22.4542   76.3226   -4.6619 O.2     1  UNL1       -0.5170
      4 O          22.2112   75.0660   -2.3511 O.3     1  UNL1       -0.3112
      5 C          21.5408   73.9678   -1.7576 C.3     1  UNL1        0.1811
      6 O          22.8209   73.2700    0.1525 O.3     1  UNL1       -0.3308
      7 O          23.2484   70.6885   -1.3116 O.3     1  UNL1       -0.3794
      8 O          21.2750   70.0483    0.4582 O.3     1  UNL1       -0.3779
      9 C          22.0971   71.5305   -1.2849 C.3     1  UNL1        0.1713
     10 C          21.3767   71.3943    0.0403 C.3     1  UNL1        0.1895
     11 C          22.5744   72.9767   -1.2402 C.3     1  UNL1        0.1764
     12 C          22.2510   72.2280    0.9614 C.3     1  UNL1        0.2383
     13 H          22.9687   69.7596   -1.3407 H       1  UNL1        0.2105
     14 H          20.7090   69.5596   -0.1595 H       1  UNL1        0.2106
     15 O          22.4000   71.4082    3.6603 O.2     1  UNL1       -0.2464
     16 O          19.3409   74.5900    4.9866 O.2     1  UNL1       -0.2670
     17 N          21.5047   72.8250    2.0329 N.ar    1  UNL1       -0.2551
     18 N          20.8768   72.9932    4.3185 N.ar    1  UNL1       -0.2743
     19 C          21.6513   72.3380    3.3527 C.ar    1  UNL1        0.3323
     20 C          20.6392   73.8813    1.7702 C.ar    1  UNL1        0.0869
     21 C          19.9067   74.4945    2.7022 C.ar    1  UNL1        0.0795
     22 C          20.0015   74.0466    4.1066 C.ar    1  UNL1        0.2626
     23 H          20.9623   72.6708    5.2450 H       1  UNL1        0.1734
     24 O          21.5011   73.8855   -4.4745 O.3     1  UNL1       -0.2703
     25 P          21.7423   72.5849   -5.4035 P.3     1  UNL1        0.2208
     26 O          22.3571   71.5008   -4.3719 O.co2   1  UNL1       -0.4371
     27 O          22.5945   72.8417   -6.6126 O.2     1  UNL1       -0.5170
     28 O          20.2601   72.0382   -5.7339 O.3     1  UNL1       -0.2858
     29 O          18.1181   73.0513   -5.6875 O.3     1  UNL1       -0.3258
     30 O          17.1458   69.3779   -4.0714 O.3     1  UNL1       -0.3794
     31 O          16.3193   70.0132   -6.7474 O.3     1  UNL1       -0.3794
     32 O          19.6546   70.6432   -3.3754 O.3     1  UNL1       -0.3775
     33 C          17.8515   70.2780   -4.9300 C.3     1  UNL1        0.1715
     34 C          16.8332   70.9772   -5.8326 C.3     1  UNL1        0.1694
     35 C          18.6021   71.2977   -4.0755 C.3     1  UNL1        0.1967
     36 C          17.4764   72.1452   -6.5925 C.3     1  UNL1        0.1761
     37 C          19.1603   72.4427   -4.9225 C.3     1  UNL1        0.2704
     38 H          16.6675   68.7274   -4.6077 H       1  UNL1        0.2105
     39 H          15.9164   69.2809   -6.2549 H       1  UNL1        0.2105
     40 H          19.2883   69.9208   -2.8427 H       1  UNL1        0.2106
     41 O          16.0274   72.1876   -8.4918 O.3     1  UNL1       -0.3794
     42 C          16.4456   72.9538   -7.3772 C.3     1  UNL1        0.1693
     43 H          15.3709   72.6896   -9.0005 H       1  UNL1        0.2105
@<TRIPOS>UNITY_ATOM_ATTR
2 1
charge -1
26 1
charge -1
@<TRIPOS>BOND
     1    25    28    1
     2    25    24    1
     3    25    26    1
     4    25    27    2
     5     1     4    1
     6     1    24    1
     7     1     2    1
     8     1     3    2
     9     6    11    1
    10     6    12    1
    11    29    36    1
    12    29    37    1
    13     7     9    1
    14     7    13    1
    15     8    10    1
    16     8    14    1
    17    28    37    1
    18     4     5    1
    19    30    33    1
    20    30    38    1
    21    31    34    1
    22    31    39    1
    23    32    35    1
    24    32    40    1
    25    41    42    1
    26    41    43    1
    27    15    19    2
    28    16    22    2
    29    17    12    1
    30    17    19   ar
    31    17    20   ar
    32    18    19   ar
    33    18    22   ar
    34    18    23    1
    35     9    10    1
    36     9    11    1
    37    10    12    1
    38    11     5    1
    39    33    34    1
    40    33    35    1
    41    34    36    1
    42    35    37    1
    43    36    42    1
    44    20    21   ar
    45    21    22   ar
@<TRIPOS>MOLECULE
*****
 43 45 0 0 0
SMALL
GASTEIGER

@<TRIPOS>ATOM
      1 P          22.4882   72.9724   -4.6894 P.3     1  UNL1        0.2189
      2 O          21.5247   74.2429   -4.4160 O.co2   1  UNL1       -0.4371
      3 O          23.8648   73.0830   -4.1026 O.2     1  UNL1       -0.5170
      4 O          22.4222   72.7729   -6.2937 O.3     1  UNL1       -0.3112
      5 C          21.1895   73.0031   -6.9535 C.3     1  UNL1        0.1811
      6 O          19.1204   71.7863   -6.8439 O.3     1  UNL1       -0.3308
      7 O          20.3751   69.8487   -8.7576 O.3     1  UNL1       -0.3794
      8 O          18.7802   71.3448  -10.3868 O.3     1  UNL1       -0.3779
      9 C          20.5166   71.2665   -8.6868 C.3     1  UNL1        0.1713
     10 C          19.2659   71.9462   -9.2040 C.3     1  UNL1        0.1895
     11 C          20.5108   71.6659   -7.2165 C.3     1  UNL1        0.1764
     12 C          18.3124   71.7854   -8.0322 C.3     1  UNL1        0.2383
     13 H          20.3764   69.5698   -9.6872 H       1  UNL1        0.2105
     14 H          19.4218   71.4742  -11.1026 H       1  UNL1        0.2106
     15 O          15.8873   71.6581   -6.5898 O.2     1  UNL1       -0.2464
     16 O          14.7370   75.9575   -7.7872 O.2     1  UNL1       -0.2670
     17 N          17.3605   72.8571   -7.9497 N.ar    1  UNL1       -0.2551
     18 N          15.3166   73.7990   -7.1871 N.ar    1  UNL1       -0.2743
     19 C          16.1730   72.6907   -7.1997 C.ar    1  UNL1        0.3323
     20 C          17.6090   74.0569   -8.6075 C.ar    1  UNL1        0.0869
     21 C          16.7815   75.1038   -8.5866 C.ar    1  UNL1        0.0795
     22 C          15.5187   75.0123   -7.8258 C.ar    1  UNL1        0.2626
     23 H          14.4829   73.7060   -6.6713 H       1  UNL1        0.1734
     24 O          21.6175   71.7294   -4.1326 O.3     1  UNL1       -0.2703
     25 P          21.9126   70.6747   -2.9438 P.3     1  UNL1        0.2208
     26 O          23.5090   70.4339   -3.0491 O.co2   1  UNL1       -0.4371
     27 O          21.0910   69.4202   -3.0161 O.2     1  UNL1       -0.5170
     28 O          21.7173   71.5247   -1.5857 O.3     1  UNL1       -0.2858
     29 O          23.3737   72.8140   -0.4854 O.3     1  UNL1       -0.3258
     30 O          21.1296   71.6867    2.7925 O.3     1  UNL1       -0.3794
     31 O          21.0166   74.4015    1.8626 O.3     1  UNL1       -0.3794
     32 O          21.5732   69.8115    0.6322 O.3     1  UNL1       -0.3775
     33 C          21.3470   72.0720    1.4325 C.3     1  UNL1        0.1715
     34 C          21.9917   73.4595    1.4244 C.3     1  UNL1        0.1694
     35 C          22.2640   71.0492    0.7643 C.3     1  UNL1        0.1967
     36 C          22.4978   73.8270    0.0230 C.3     1  UNL1        0.1761
     37 C          22.7495   71.5340   -0.6029 C.3     1  UNL1        0.2704
     38 H          20.5477   72.3317    3.2223 H       1  UNL1        0.2105
     39 H          20.7049   74.1577    2.7484 H       1  UNL1        0.2105
     40 H          21.2713   69.5152    1.5045 H       1  UNL1        0.2106
     41 O          24.4356   74.9699   -0.7816 O.3     1  UNL1       -0.3794
     42 C          23.2834   75.1366    0.0238 C.3     1  UNL1        0.1693
     43 H          24.9453   75.7957   -0.7907 H       1  UNL1        0.2105
@<TRIPOS>UNITY_ATOM_ATTR
2 1
charge -1
26 1
charge -1
@<TRIPOS>BOND
     1    25    28    1
     2    25    24    1
     3    25    26    1
     4    25    27    2
     5     1     4    1
     6     1    24    1
     7     1     2    1
     8     1     3    2
     9     6    11    1
    10     6    12    1
    11    29    36    1
    12    29    37    1
    13     7     9    1
    14     7    13    1
    15     8    10    1
    16     8    14    1
    17    28    37    1
    18     4     5    1
    19    30    33    1
    20    30    38    1
    21    31    34    1
    22    31    39    1
    23    32    35    1
    24    32    40    1
    25    41    42    1
    26    41    43    1
    27    15    19    2
    28    16    22    2
    29    17    12    1
    30    17    19   ar
    31    17    20   ar
    32    18    19   ar
    33    18    22   ar
    34    18    23    1
    35     9    10    1
    36     9    11    1
    37    10    12    1
    38    11     5    1
    39    33    34    1
    40    33    35    1
    41    34    36    1
    42    35    37    1
    43    36    42    1
    44    20    21   ar
    45    21    22   ar
@<TRIPOS>MOLECULE
*****
 43 45 0 0 0
SMALL
GASTEIGER

@<TRIPOS>ATOM
      1 P          22.1766   73.4950   -4.9004 P.3     1  UNL1        0.2189
      2 O          23.1654   74.6207   -4.2902 O.co2   1  UNL1       -0.4371
      3 O          22.7991   72.5928   -5.9250 O.2     1  UNL1       -0.5170
      4 O          20.8877   74.3379   -5.3967 O.3     1  UNL1       -0.3112
      5 C          20.1309   73.8376   -6.4851 C.3     1  UNL1        0.1811
      6 O          17.7925   73.3017   -6.3480 O.3     1  UNL1       -0.3308
      7 O          18.6629   70.5161   -5.6596 O.3     1  UNL1       -0.3794
      8 O          18.0018   70.2978   -8.2963 O.3     1  UNL1       -0.3779
      9 C          19.2557   71.4498   -6.5608 C.3     1  UNL1        0.1713
     10 C          18.4277   71.5597   -7.8240 C.3     1  UNL1        0.1895
     11 C          19.1057   72.8419   -5.9600 C.3     1  UNL1        0.1764
     12 C          17.2718   72.4339   -7.3681 C.3     1  UNL1        0.2383
     13 H          18.7467   69.6196   -6.0217 H       1  UNL1        0.2105
     14 H          18.7730   69.7794   -8.5743 H       1  UNL1        0.2106
     15 O          18.7055   73.1638   -9.6897 O.2     1  UNL1       -0.2464
     16 O          15.1203   75.5099  -11.3879 O.2     1  UNL1       -0.2670
     17 N          16.7374   73.2346   -8.4333 N.ar    1  UNL1       -0.2551
     18 N          16.9191   74.3312  -10.5334 N.ar    1  UNL1       -0.2743
     19 C          17.5410   73.5451   -9.5550 C.ar    1  UNL1        0.3323
     20 C          15.4300   73.7027   -8.3594 C.ar    1  UNL1        0.0869
     21 C          14.8522   74.4524   -9.3004 C.ar    1  UNL1        0.0795
     22 C          15.6233   74.8217  -10.5051 C.ar    1  UNL1        0.2626
     23 H          17.4599   74.5605  -11.3239 H       1  UNL1        0.1734
     24 O          21.6296   72.7380   -3.5810 O.3     1  UNL1       -0.2703
     25 P          21.7895   71.2050   -3.0937 P.3     1  UNL1        0.2208
     26 O          23.3748   70.9269   -3.2580 O.co2   1  UNL1       -0.4371
     27 O          20.9110   70.2319   -3.8253 O.2     1  UNL1       -0.5170
     28 O          21.5477   71.2561   -1.4987 O.3     1  UNL1       -0.2858
     29 O          23.1926   72.7180   -0.6192 O.3     1  UNL1       -0.3258
     30 O          21.3479   71.6047    2.9034 O.3     1  UNL1       -0.3794
     31 O          20.9425   74.2517    1.8655 O.3     1  UNL1       -0.3794
     32 O          21.7373   69.6558    0.7987 O.3     1  UNL1       -0.3775
     33 C          21.4110   71.9329    1.5128 C.3     1  UNL1        0.1715
     34 C          21.9436   73.3611    1.3808 C.3     1  UNL1        0.1694
     35 C          22.3398   70.9455    0.8086 C.3     1  UNL1        0.1967
     36 C          22.2910   73.6902   -0.0773 C.3     1  UNL1        0.1761
     37 C          22.6607   71.3917   -0.6190 C.3     1  UNL1        0.2704
     38 H          20.7594   72.2276    3.3563 H       1  UNL1        0.2105
     39 H          20.7320   74.0328    2.7869 H       1  UNL1        0.2105
     40 H          21.5393   69.3846    1.7081 H       1  UNL1        0.2106
     41 O          24.1323   74.8982   -1.0041 O.3     1  UNL1       -0.3794
     42 C          22.9702   75.0515   -0.2101 C.3     1  UNL1        0.1693
     43 H          24.5749   75.7568   -1.0975 H       1  UNL1        0.2105
@<TRIPOS>UNITY_ATOM_ATTR
2 1
charge -1
26 1
charge -1
@<TRIPOS>BOND
     1    25    28    1
     2    25    24    1
     3    25    26    1
     4    25    27    2
     5     1     4    1
     6     1    24    1
     7     1     2    1
     8     1     3    2
     9     6    11    1
    10     6    12    1
    11    29    36    1
    12    29    37    1
    13     7     9    1
    14     7    13    1
    15     8    10    1
    16     8    14    1
    17    28    37    1
    18     4     5    1
    19    30    33    1
    20    30    38    1
    21    31    34    1
    22    31    39    1
    23    32    35    1
    24    32    40    1
    25    41    42    1
    26    41    43    1
    27    15    19    2
    28    16    22    2
    29    17    12    1
    30    17    19   ar
    31    17    20   ar
    32    18    19   ar
    33    18    22   ar
    34    18    23    1
    35     9    10    1
    36     9    11    1
    37    10    12    1
    38    11     5    1
    39    33    34    1
    40    33    35    1
    41    34    36    1
    42    35    37    1
    43    36    42    1
    44    20    21   ar
    45    21    22   ar
@<TRIPOS>MOLECULE
*****
 43 45 0 0 0
SMALL
GASTEIGER

@<TRIPOS>ATOM
      1 P          20.8694   70.7958   -2.6033 P.3     1  UNL1        0.2189
      2 O          21.0353   72.3660   -2.9560 O.co2   1  UNL1       -0.4371
      3 O          21.9663   69.9111   -3.1188 O.2     1  UNL1       -0.5170
      4 O          19.3777   70.4377   -3.1174 O.3     1  UNL1       -0.3112
      5 C          19.1905   70.1308   -4.4880 C.3     1  UNL1        0.1811
      6 O          18.5719   72.2529   -5.4303 O.3     1  UNL1       -0.3308
      7 O          16.0743   70.8921   -6.3798 O.3     1  UNL1       -0.3794
      8 O          17.6108   70.9532   -8.6319 O.3     1  UNL1       -0.3779
      9 C          17.4005   70.3760   -6.2795 C.3     1  UNL1        0.1713
     10 C          18.2702   70.9429   -7.3822 C.3     1  UNL1        0.1895
     11 C          18.0420   70.9697   -5.0315 C.3     1  UNL1        0.1764
     12 C          18.5640   72.3407   -6.8646 C.3     1  UNL1        0.2383
     13 H          15.6442   70.5268   -7.1694 H       1  UNL1        0.2105
     14 H          17.4462   70.0412   -8.9183 H       1  UNL1        0.2106
     15 O          18.9776   73.7479   -9.2784 O.2     1  UNL1       -0.2464
     16 O          23.4938   74.1792   -8.4665 O.2     1  UNL1       -0.2670
     17 N          19.8376   72.8327   -7.3087 N.ar    1  UNL1       -0.2551
     18 N          21.2260   73.9617   -8.8721 N.ar    1  UNL1       -0.2743
     19 C          19.9374   73.5263   -8.5373 C.ar    1  UNL1        0.3323
     20 C          20.9704   72.6263   -6.5289 C.ar    1  UNL1        0.0869
     21 C          22.1922   73.0467   -6.8630 C.ar    1  UNL1        0.0795
     22 C          22.3830   73.7797   -8.1312 C.ar    1  UNL1        0.2626
     23 H          21.3198   74.4469   -9.7239 H       1  UNL1        0.1734
     24 O          20.7082   70.7996   -0.9949 O.3     1  UNL1       -0.2703
     25 P          21.7990   70.6031    0.1818 P.3     1  UNL1        0.2208
     26 O          23.0898   71.4068   -0.3709 O.co2   1  UNL1       -0.4371
     27 O          22.0679   69.1698    0.5385 O.2     1  UNL1       -0.5170
     28 O          21.2496   71.5045    1.4028 O.3     1  UNL1       -0.2858
     29 O          21.5968   73.7971    0.9128 O.3     1  UNL1       -0.3258
     30 O          20.2440   74.1502    4.7982 O.3     1  UNL1       -0.3794
     31 O          18.5405   74.9427    2.6261 O.3     1  UNL1       -0.3794
     32 O          21.9907   71.9594    4.0709 O.3     1  UNL1       -0.3775
     33 C          20.3084   73.5814    3.4876 C.3     1  UNL1        0.1715
     34 C          19.9298   74.6646    2.4756 C.3     1  UNL1        0.1694
     35 C          21.7277   73.0783    3.2310 C.3     1  UNL1        0.1967
     36 C          20.2318   74.2120    1.0407 C.3     1  UNL1        0.1761
     37 C          21.9362   72.7002    1.7634 C.3     1  UNL1        0.2704
     38 H          19.3452   74.4712    4.9677 H       1  UNL1        0.2105
     39 H          18.3632   75.2270    3.5366 H       1  UNL1        0.2105
     40 H          21.8555   72.2117    4.9971 H       1  UNL1        0.2106
     41 O          20.8584   76.4161    0.3640 O.3     1  UNL1       -0.3794
     42 C          20.0098   75.3337    0.0285 C.3     1  UNL1        0.1693
     43 H          20.7282   77.1375   -0.2720 H       1  UNL1        0.2105
@<TRIPOS>UNITY_ATOM_ATTR
2 1
charge -1
26 1
charge -1
@<TRIPOS>BOND
     1    25    28    1
     2    25    24    1
     3    25    26    1
     4    25    27    2
     5     1     4    1
     6     1    24    1
     7     1     2    1
     8     1     3    2
     9     6    11    1
    10     6    12    1
    11    29    36    1
    12    29    37    1
    13     7     9    1
    14     7    13    1
    15     8    10    1
    16     8    14    1
    17    28    37    1
    18     4     5    1
    19    30    33    1
    20    30    38    1
    21    31    34    1
    22    31    39    1
    23    32    35    1
    24    32    40    1
    25    41    42    1
    26    41    43    1
    27    15    19    2
    28    16    22    2
    29    17    12    1
    30    17    19   ar
    31    17    20   ar
    32    18    19   ar
    33    18    22   ar
    34    18    23    1
    35     9    10    1
    36     9    11    1
    37    10    12    1
    38    11     5    1
    39    33    34    1
    40    33    35    1
    41    34    36    1
    42    35    37    1
    43    36    42    1
    44    20    21   ar
    45    21    22   ar
