@<TRIPOS>MOLECULE
*****
 43 45 0 0 0
SMALL
GASTEIGER

@<TRIPOS>ATOM
      1 P          22.7727   71.8739   -2.3027 P.3     1  UNL1        0.2189
      2 O          23.0593   73.4656   -2.2601 O.co2   1  UNL1       -0.4371
      3 O          23.4508   71.1375   -3.4204 O.2     1  UNL1       -0.5170
      4 O          21.1585   71.7689   -2.2695 O.3     1  UNL1       -0.3112
      5 C          20.4875   71.3003   -3.4263 C.3     1  UNL1        0.1811
      6 O          18.5969   72.1878   -4.6144 O.3     1  UNL1       -0.3308
      7 O          16.9075   70.9784   -2.4525 O.3     1  UNL1       -0.3794
      8 O          16.6510   69.1779   -4.4845 O.3     1  UNL1       -0.3779
      9 C          18.1088   70.4836   -3.0418 C.3     1  UNL1        0.1713
     10 C          17.8320   69.9520   -4.4326 C.3     1  UNL1        0.1895
     11 C          19.0147   71.6741   -3.3307 C.3     1  UNL1        0.1764
     12 C          17.7281   71.2321   -5.2442 C.3     1  UNL1        0.2383
     13 H          16.3130   70.2361   -2.2587 H       1  UNL1        0.2105
     14 H          16.7671   68.3748   -3.9531 H       1  UNL1        0.2106
     15 O          16.0281   70.3718   -7.3294 O.2     1  UNL1       -0.2464
     16 O          19.4293   70.5745  -10.4330 O.2     1  UNL1       -0.2670
     17 N          18.1430   71.0518   -6.6069 N.ar    1  UNL1       -0.2551
     18 N          17.7230   70.4736   -8.8731 N.ar    1  UNL1       -0.2743
     19 C          17.2109   70.6152   -7.5770 C.ar    1  UNL1        0.3323
     20 C          19.4609   71.3075   -6.9696 C.ar    1  UNL1        0.0869
     21 C          19.9336   71.1663   -8.2097 C.ar    1  UNL1        0.0795
     22 C          19.0249   70.7140   -9.2828 C.ar    1  UNL1        0.2626
     23 H          17.0920   70.1701   -9.5655 H       1  UNL1        0.1734
     24 O          23.1989   71.3881   -0.8210 O.3     1  UNL1       -0.2703
     25 P          22.3224   70.7603    0.3834 P.3     1  UNL1        0.2208
     26 O          23.3082   69.6449    1.0173 O.co2   1  UNL1       -0.4371
     27 O          20.9823   70.2330   -0.0408 O.2     1  UNL1       -0.5170
     28 O          22.2601   71.9285    1.4953 O.3     1  UNL1       -0.2858
     29 O          20.4496   73.3392    2.0856 O.3     1  UNL1       -0.3258
     30 O          23.5613   76.0003    2.6208 O.3     1  UNL1       -0.3794
     31 O          22.2055   74.9246    4.9126 O.3     1  UNL1       -0.3794
     32 O          23.6256   74.1285    0.4136 O.3     1  UNL1       -0.3775
     33 C          22.9236   74.7204    2.6403 C.3     1  UNL1        0.1715
     34 C          21.7184   74.7994    3.5795 C.3     1  UNL1        0.1694
     35 C          22.4786   74.3628    1.2234 C.3     1  UNL1        0.1967
     36 C          20.8320   73.5534    3.4493 C.3     1  UNL1        0.1761
     37 C          21.5620   73.1381    1.2115 C.3     1  UNL1        0.2704
     38 H          23.8468   76.2331    3.5174 H       1  UNL1        0.2105
     39 H          22.7641   75.7149    4.9812 H       1  UNL1        0.2105
     40 H          24.1976   74.9111    0.4292 H       1  UNL1        0.2106
     41 O          19.8284   73.3649    5.6094 O.3     1  UNL1       -0.3794
     42 C          19.5436   73.6809    4.2591 C.3     1  UNL1        0.1693
     43 H          19.0176   73.4421    6.1369 H       1  UNL1        0.2105
@<TRIPOS>UNITY_ATOM_ATTR
2 1
charge -1
26 1
charge -1
@<TRIPOS>BOND
     1    25    28    1
     2    25    24    1
     3    25    26    1
     4    25    27    2
     5     1     4    1
     6     1    24    1
     7     1     2    1
     8     1     3    2
     9     6    11    1
    10     6    12    1
    11    29    36    1
    12    29    37    1
    13     7     9    1
    14     7    13    1
    15     8    10    1
    16     8    14    1
    17    28    37    1
    18     4     5    1
    19    30    33    1
    20    30    38    1
    21    31    34    1
    22    31    39    1
    23    32    35    1
    24    32    40    1
    25    41    42    1
    26    41    43    1
    27    15    19    2
    28    16    22    2
    29    17    12    1
    30    17    19   ar
    31    17    20   ar
    32    18    19   ar
    33    18    22   ar
    34    18    23    1
    35     9    10    1
    36     9    11    1
    37    10    12    1
    38    11     5    1
    39    33    34    1
    40    33    35    1
    41    34    36    1
    42    35    37    1
    43    36    42    1
    44    20    21   ar
    45    21    22   ar
@<TRIPOS>MOLECULE
*****
 43 45 0 0 0
SMALL
GASTEIGER

@<TRIPOS>ATOM
      1 P          21.5975   70.3632   -1.0557 P.3     1  UNL1        0.2189
      2 O          23.1227   70.7544   -1.4272 O.co2   1  UNL1       -0.4371
      3 O          21.4288   69.6357    0.2457 O.2     1  UNL1       -0.5170
      4 O          21.0649   69.5845   -2.3702 O.3     1  UNL1       -0.3112
      5 C          20.7454   70.3440   -3.5229 C.3     1  UNL1        0.1811
      6 O          19.0254   71.6664   -4.5558 O.3     1  UNL1       -0.3308
      7 O          17.1955   70.6089   -2.4288 O.3     1  UNL1       -0.3794
      8 O          16.5514   69.0700   -4.5860 O.3     1  UNL1       -0.3779
      9 C          18.2663   69.9527   -3.1057 C.3     1  UNL1        0.1713
     10 C          17.8581   69.6041   -4.5218 C.3     1  UNL1        0.1895
     11 C          19.3724   70.9749   -3.3360 C.3     1  UNL1        0.1764
     12 C          17.9759   70.9466   -5.2232 C.3     1  UNL1        0.2383
     13 H          16.4772   69.9758   -2.2703 H       1  UNL1        0.2105
     14 H          16.5279   68.2164   -4.1260 H       1  UNL1        0.2106
     15 O          16.1016   70.4724   -7.2823 O.2     1  UNL1       -0.2464
     16 O          19.3859   70.4430  -10.5155 O.2     1  UNL1       -0.2670
     17 N          18.3136   70.8111   -6.6121 N.ar    1  UNL1       -0.2551
     18 N          17.7384   70.4583   -8.8905 N.ar    1  UNL1       -0.2743
     19 C          17.2969   70.5733   -7.5662 C.ar    1  UNL1        0.3323
     20 C          19.6403   70.9145   -7.0160 C.ar    1  UNL1        0.0869
     21 C          20.0450   70.8011   -8.2827 C.ar    1  UNL1        0.0795
     22 C          19.0455   70.5522   -9.3416 C.ar    1  UNL1        0.2626
     23 H          17.0477   70.2921   -9.5725 H       1  UNL1        0.1734
     24 O          20.8281   71.7825   -1.1375 O.3     1  UNL1       -0.2703
     25 P          21.2854   73.2656   -0.6856 P.3     1  UNL1        0.2208
     26 O          19.9871   74.1718   -1.0183 O.co2   1  UNL1       -0.4371
     27 O          22.5547   73.7415   -1.3309 O.2     1  UNL1       -0.5170
     28 O          21.3370   73.2036    0.9264 O.3     1  UNL1       -0.2858
     29 O          22.9778   74.6249    1.8774 O.3     1  UNL1       -0.3258
     30 O          22.0435   72.3733    5.2103 O.3     1  UNL1       -0.3794
     31 O          21.1661   75.1033    5.0519 O.3     1  UNL1       -0.3794
     32 O          22.1683   71.1151    2.6063 O.3     1  UNL1       -0.3775
     33 C          21.7768   73.0537    3.9809 C.3     1  UNL1        0.1715
     34 C          22.1247   74.5321    4.1658 C.3     1  UNL1        0.1694
     35 C          22.6281   72.4356    2.8734 C.3     1  UNL1        0.1967
     36 C          22.1199   75.2745    2.8228 C.3     1  UNL1        0.1761
     37 C          22.5925   73.2778    1.5969 C.3     1  UNL1        0.2704
     38 H          21.5058   72.7607    5.9176 H       1  UNL1        0.2105
     39 H          21.1789   74.6252    5.8959 H       1  UNL1        0.2105
     40 H          22.1960   70.5920    3.4220 H       1  UNL1        0.2106
     41 O          22.4566   77.3653    1.7164 O.3     1  UNL1       -0.3794
     42 C          22.6168   76.7118    2.9620 C.3     1  UNL1        0.1693
     43 H          22.7685   78.2813    1.7901 H       1  UNL1        0.2105
@<TRIPOS>UNITY_ATOM_ATTR
2 1
charge -1
26 1
charge -1
@<TRIPOS>BOND
     1    25    28    1
     2    25    24    1
     3    25    26    1
     4    25    27    2
     5     1     4    1
     6     1    24    1
     7     1     2    1
     8     1     3    2
     9     6    11    1
    10     6    12    1
    11    29    36    1
    12    29    37    1
    13     7     9    1
    14     7    13    1
    15     8    10    1
    16     8    14    1
    17    28    37    1
    18     4     5    1
    19    30    33    1
    20    30    38    1
    21    31    34    1
    22    31    39    1
    23    32    35    1
    24    32    40    1
    25    41    42    1
    26    41    43    1
    27    15    19    2
    28    16    22    2
    29    17    12    1
    30    17    19   ar
    31    17    20   ar
    32    18    19   ar
    33    18    22   ar
    34    18    23    1
    35     9    10    1
    36     9    11    1
    37    10    12    1
    38    11     5    1
    39    33    34    1
    40    33    35    1
    41    34    36    1
    42    35    37    1
    43    36    42    1
    44    20    21   ar
    45    21    22   ar
@<TRIPOS>MOLECULE
*****
 43 45 0 0 0
SMALL
GASTEIGER

@<TRIPOS>ATOM
      1 P          22.7882   71.7797   -2.2103 P.3     1  UNL1        0.2189
      2 O          23.4123   73.2671   -2.3353 O.co2   1  UNL1       -0.4371
      3 O          23.3752   70.7653   -3.1472 O.2     1  UNL1       -0.5170
      4 O          21.1928   72.0157   -2.3401 O.3     1  UNL1       -0.3112
      5 C          20.5254   71.5101   -3.4833 C.3     1  UNL1        0.1811
      6 O          18.5822   72.2849   -4.6654 O.3     1  UNL1       -0.3308
      7 O          16.9774   71.0865   -2.4339 O.3     1  UNL1       -0.3794
      8 O          16.7556   69.2098   -4.4000 O.3     1  UNL1       -0.3779
      9 C          18.1866   70.6177   -3.0284 C.3     1  UNL1        0.1713
     10 C          17.9068   70.0293   -4.3955 C.3     1  UNL1        0.1895
     11 C          19.0411   71.8311   -3.3732 C.3     1  UNL1        0.1764
     12 C          17.7400   71.2763   -5.2471 C.3     1  UNL1        0.2383
     13 H          16.4153   70.3293   -2.2047 H       1  UNL1        0.2105
     14 H          16.9114   68.4301   -3.8445 H       1  UNL1        0.2106
     15 O          16.0219   70.3427   -7.2854 O.2     1  UNL1       -0.2464
     16 O          19.3773   70.5049  -10.4407 O.2     1  UNL1       -0.2670
     17 N          18.1382   71.0658   -6.6104 N.ar    1  UNL1       -0.2551
     18 N          17.6940   70.4244   -8.8549 N.ar    1  UNL1       -0.2743
     19 C          17.1982   70.5934   -7.5558 C.ar    1  UNL1        0.3323
     20 C          19.4478   71.3274   -6.9981 C.ar    1  UNL1        0.0869
     21 C          19.9051   71.1598   -8.2407 C.ar    1  UNL1        0.0795
     22 C          18.9871   70.6694   -9.2889 C.ar    1  UNL1        0.2626
     23 H          17.0572   70.0958   -9.5304 H       1  UNL1        0.1734
     24 O          22.9783   71.4364   -0.6421 O.3     1  UNL1       -0.2703
     25 P          22.1165   70.4959    0.3507 P.3     1  UNL1        0.2208
     26 O          23.2499   69.7498    1.2317 O.co2   1  UNL1       -0.4371
     27 O          21.1669   69.5682   -0.3505 O.2     1  UNL1       -0.5170
     28 O          21.4124   71.5229    1.3776 O.3     1  UNL1       -0.2858
     29 O          21.9476   73.7646    0.8252 O.3     1  UNL1       -0.3258
     30 O          20.0492   74.4097    4.4351 O.3     1  UNL1       -0.3794
     31 O          18.7332   75.1429    1.9900 O.3     1  UNL1       -0.3794
     32 O          21.7689   72.1054    4.0995 O.3     1  UNL1       -0.3775
     33 C          20.2792   73.7606    3.1816 C.3     1  UNL1        0.1715
     34 C          20.1130   74.7962    2.0677 C.3     1  UNL1        0.1694
     35 C          21.6929   73.1819    3.1711 C.3     1  UNL1        0.1967
     36 C          20.6022   74.2452    0.7216 C.3     1  UNL1        0.1761
     37 C          22.0986   72.7073    1.7746 C.3     1  UNL1        0.2704
     38 H          19.1532   74.7789    4.4485 H       1  UNL1        0.2105
     39 H          18.4367   75.4890    2.8465 H       1  UNL1        0.2105
     40 H          21.5100   72.4187    4.9796 H       1  UNL1        0.2106
     41 O          19.4528   75.1110   -1.1858 O.3     1  UNL1       -0.3794
     42 C          20.5927   75.3124   -0.3707 C.3     1  UNL1        0.1693
     43 H          19.4334   75.7833   -1.8853 H       1  UNL1        0.2105
@<TRIPOS>UNITY_ATOM_ATTR
2 1
charge -1
26 1
charge -1
@<TRIPOS>BOND
     1    25    28    1
     2    25    24    1
     3    25    26    1
     4    25    27    2
     5     1     4    1
     6     1    24    1
     7     1     2    1
     8     1     3    2
     9     6    11    1
    10     6    12    1
    11    29    36    1
    12    29    37    1
    13     7     9    1
    14     7    13    1
    15     8    10    1
    16     8    14    1
    17    28    37    1
    18     4     5    1
    19    30    33    1
    20    30    38    1
    21    31    34    1
    22    31    39    1
    23    32    35    1
    24    32    40    1
    25    41    42    1
    26    41    43    1
    27    15    19    2
    28    16    22    2
    29    17    12    1
    30    17    19   ar
    31    17    20   ar
    32    18    19   ar
    33    18    22   ar
    34    18    23    1
    35     9    10    1
    36     9    11    1
    37    10    12    1
    38    11     5    1
    39    33    34    1
    40    33    35    1
    41    34    36    1
    42    35    37    1
    43    36    42    1
    44    20    21   ar
    45    21    22   ar
@<TRIPOS>MOLECULE
*****
 43 45 0 0 0
SMALL
GASTEIGER

@<TRIPOS>ATOM
      1 P          21.8647   73.8120   -5.7704 P.3     1  UNL1        0.2189
      2 O          21.7134   75.3260   -6.3205 O.co2   1  UNL1       -0.4371
      3 O          22.7523   72.9247   -6.5928 O.2     1  UNL1       -0.5170
      4 O          20.3373   73.3086   -5.5936 O.3     1  UNL1       -0.3112
      5 C          19.5730   73.8313   -4.5210 C.3     1  UNL1        0.1811
      6 O          17.9224   72.1617   -5.0329 O.3     1  UNL1       -0.3308
      7 O          18.6629   70.8961   -2.4174 O.3     1  UNL1       -0.3794
      8 O          19.9980   69.3508   -4.2246 O.3     1  UNL1       -0.3779
      9 C          19.4946   71.5676   -3.3622 C.3     1  UNL1        0.1713
     10 C          19.7244   70.6918   -4.5762 C.3     1  UNL1        0.1895
     11 C          18.6966   72.7243   -3.9510 C.3     1  UNL1        0.1764
     12 C          18.4124   70.8434   -5.3271 C.3     1  UNL1        0.2383
     13 H          19.1510   70.1533   -2.0276 H       1  UNL1        0.2105
     14 H          20.8424   69.3068   -3.7494 H       1  UNL1        0.2106
     15 O          16.2957   70.3960   -7.1429 O.2     1  UNL1       -0.2464
     16 O          19.1584   70.3581  -10.7546 O.2     1  UNL1       -0.2670
     17 N          18.5761   70.7130   -6.7475 N.ar    1  UNL1       -0.2551
     18 N          17.7228   70.3777   -8.9398 N.ar    1  UNL1       -0.2743
     19 C          17.4480   70.4888   -7.5707 C.ar    1  UNL1        0.3323
     20 C          19.8441   70.8078   -7.3106 C.ar    1  UNL1        0.0869
     21 C          20.0894   70.6982   -8.6179 C.ar    1  UNL1        0.0795
     22 C          18.9655   70.4634   -9.5473 C.ar    1  UNL1        0.2626
     23 H          16.9523   70.2210   -9.5326 H       1  UNL1        0.1734
     24 O          22.3554   74.0268   -4.2452 O.3     1  UNL1       -0.2703
     25 P          23.4276   73.2129   -3.3504 P.3     1  UNL1        0.2208
     26 O          24.8307   73.9377   -3.7021 O.co2   1  UNL1       -0.4371
     27 O          23.4220   71.7295   -3.5814 O.2     1  UNL1       -0.5170
     28 O          23.1104   73.6543   -1.8307 O.3     1  UNL1       -0.2858
     29 O          21.3994   72.1621   -1.1508 O.3     1  UNL1       -0.3258
     30 O          21.8826   74.2611    2.3722 O.3     1  UNL1       -0.3794
     31 O          22.8314   71.5565    2.1916 O.3     1  UNL1       -0.3794
     32 O          22.0406   75.6441   -0.1659 O.3     1  UNL1       -0.3775
     33 C          22.3079   73.6464    1.1529 C.3     1  UNL1        0.1715
     34 C          21.9726   72.1554    1.2251 C.3     1  UNL1        0.1694
     35 C          21.5810   74.3049   -0.0182 C.3     1  UNL1        0.1967
     36 C          22.1529   71.4803   -0.1412 C.3     1  UNL1        0.1761
     37 C          21.7861   73.5273   -1.3195 C.3     1  UNL1        0.2704
     38 H          22.3408   73.8479    3.1197 H       1  UNL1        0.2105
     39 H          22.7081   71.9922    3.0496 H       1  UNL1        0.2105
     40 H          21.9050   76.1258    0.6644 H       1  UNL1        0.2106
     41 O          22.7267   69.2130    0.3475 O.3     1  UNL1       -0.3794
     42 C          21.6741   70.0302   -0.1303 C.3     1  UNL1        0.1693
     43 H          22.4362   68.2872    0.3603 H       1  UNL1        0.2105
@<TRIPOS>UNITY_ATOM_ATTR
2 1
charge -1
26 1
charge -1
@<TRIPOS>BOND
     1    25    28    1
     2    25    24    1
     3    25    26    1
     4    25    27    2
     5     1     4    1
     6     1    24    1
     7     1     2    1
     8     1     3    2
     9     6    11    1
    10     6    12    1
    11    29    36    1
    12    29    37    1
    13     7     9    1
    14     7    13    1
    15     8    10    1
    16     8    14    1
    17    28    37    1
    18     4     5    1
    19    30    33    1
    20    30    38    1
    21    31    34    1
    22    31    39    1
    23    32    35    1
    24    32    40    1
    25    41    42    1
    26    41    43    1
    27    15    19    2
    28    16    22    2
    29    17    12    1
    30    17    19   ar
    31    17    20   ar
    32    18    19   ar
    33    18    22   ar
    34    18    23    1
    35     9    10    1
    36     9    11    1
    37    10    12    1
    38    11     5    1
    39    33    34    1
    40    33    35    1
    41    34    36    1
    42    35    37    1
    43    36    42    1
    44    20    21   ar
    45    21    22   ar
@<TRIPOS>MOLECULE
*****
 43 45 0 0 0
SMALL
GASTEIGER

@<TRIPOS>ATOM
      1 P          19.8395   74.8901   -3.7032 P.3     1  UNL1        0.2189
      2 O          18.6730   75.5041   -4.6411 O.co2   1  UNL1       -0.4371
      3 O          20.1153   75.6631   -2.4470 O.2     1  UNL1       -0.5170
      4 O          21.0942   74.7135   -4.7093 O.3     1  UNL1       -0.3112
      5 C          21.7069   73.4397   -4.8089 C.3     1  UNL1        0.1811
      6 O          21.6629   72.0937   -6.7989 O.3     1  UNL1       -0.3308
      7 O          22.8917   74.4471   -8.1927 O.3     1  UNL1       -0.3794
      8 O          20.2684   74.6324   -8.9139 O.3     1  UNL1       -0.3779
      9 C          21.9235   74.4235   -7.1452 C.3     1  UNL1        0.1713
     10 C          20.5733   74.0020   -7.6866 C.3     1  UNL1        0.1895
     11 C          22.2676   73.2678   -6.2140 C.3     1  UNL1        0.1764
     12 C          20.7458   72.4993   -7.8282 C.3     1  UNL1        0.2383
     13 H          22.6929   75.1774   -8.8002 H       1  UNL1        0.2105
     14 H          20.1684   75.5866   -8.7714 H       1  UNL1        0.2106
     15 O          18.9396   71.9172   -9.9202 O.2     1  UNL1       -0.2464
     16 O          16.0359   69.7650   -7.0606 O.2     1  UNL1       -0.2670
     17 N          19.5103   71.7878   -7.6587 N.ar    1  UNL1       -0.2551
     18 N          17.4953   70.8459   -8.4946 N.ar    1  UNL1       -0.2743
     19 C          18.6744   71.5484   -8.7742 C.ar    1  UNL1        0.3323
     20 C          19.1387   71.3353   -6.3973 C.ar    1  UNL1        0.0869
     21 C          18.0103   70.6679   -6.1473 C.ar    1  UNL1        0.0795
     22 C          17.0813   70.3765   -7.2581 C.ar    1  UNL1        0.2626
     23 H          16.8972   70.6679   -9.2564 H       1  UNL1        0.1734
     24 O          19.3495   73.3685   -3.4629 O.3     1  UNL1       -0.2703
     25 P          18.5612   72.6900   -2.2255 P.3     1  UNL1        0.2208
     26 O          17.4348   71.7857   -2.9542 O.co2   1  UNL1       -0.4371
     27 O          18.0172   73.6727   -1.2293 O.2     1  UNL1       -0.5170
     28 O          19.6055   71.6236   -1.6113 O.3     1  UNL1       -0.2858
     29 O          21.4307   72.9540   -0.8934 O.3     1  UNL1       -0.3258
     30 O          22.7984   69.2501    0.3152 O.3     1  UNL1       -0.3794
     31 O          21.9011   71.1411    2.2816 O.3     1  UNL1       -0.3794
     32 O          21.3651   69.5144   -2.1858 O.3     1  UNL1       -0.3775
     33 C          21.8145   70.2564    0.0611 C.3     1  UNL1        0.1715
     34 C          22.1461   71.4789    0.9192 C.3     1  UNL1        0.1694
     35 C          21.8416   70.6177   -1.4228 C.3     1  UNL1        0.1967
     36 C          21.2986   72.6905    0.5083 C.3     1  UNL1        0.1761
     37 C          21.0062   71.8652   -1.7157 C.3     1  UNL1        0.2704
     38 H          22.7860   69.0158    1.2557 H       1  UNL1        0.2105
     39 H          22.4419   70.3744    2.5282 H       1  UNL1        0.2105
     40 H          21.9023   68.7311   -1.9917 H       1  UNL1        0.2106
     41 O          22.4722   74.7658    0.3521 O.3     1  UNL1       -0.3794
     42 C          21.7225   73.9605    1.2429 C.3     1  UNL1        0.1693
     43 H          22.7485   75.5779    0.8059 H       1  UNL1        0.2105
@<TRIPOS>UNITY_ATOM_ATTR
2 1
charge -1
26 1
charge -1
@<TRIPOS>BOND
     1    25    28    1
     2    25    24    1
     3    25    26    1
     4    25    27    2
     5     1     4    1
     6     1    24    1
     7     1     2    1
     8     1     3    2
     9     6    11    1
    10     6    12    1
    11    29    36    1
    12    29    37    1
    13     7     9    1
    14     7    13    1
    15     8    10    1
    16     8    14    1
    17    28    37    1
    18     4     5    1
    19    30    33    1
    20    30    38    1
    21    31    34    1
    22    31    39    1
    23    32    35    1
    24    32    40    1
    25    41    42    1
    26    41    43    1
    27    15    19    2
    28    16    22    2
    29    17    12    1
    30    17    19   ar
    31    17    20   ar
    32    18    19   ar
    33    18    22   ar
    34    18    23    1
    35     9    10    1
    36     9    11    1
    37    10    12    1
    38    11     5    1
    39    33    34    1
    40    33    35    1
    41    34    36    1
    42    35    37    1
    43    36    42    1
    44    20    21   ar
    45    21    22   ar
@<TRIPOS>MOLECULE
*****
 43 45 0 0 0
SMALL
GASTEIGER

@<TRIPOS>ATOM
      1 P          22.3240   73.3606   -5.3519 P.3     1  UNL1        0.2189
      2 O          22.7256   74.8046   -5.9609 O.co2   1  UNL1       -0.4371
      3 O          23.4500   72.6114   -4.7021 O.2     1  UNL1       -0.5170
      4 O          21.5984   72.6067   -6.5860 O.3     1  UNL1       -0.3112
      5 C          20.9053   73.3891   -7.5428 C.3     1  UNL1        0.1811
      6 O          20.0245   71.1840   -7.9111 O.3     1  UNL1       -0.3308
      7 O          18.5673   72.3603  -10.2528 O.3     1  UNL1       -0.3794
      8 O          16.6214   72.2290   -8.3467 O.3     1  UNL1       -0.3779
      9 C          18.8560   72.9446   -8.9837 C.3     1  UNL1        0.1713
     10 C          17.9616   72.3507   -7.9156 C.3     1  UNL1        0.1895
     11 C          20.2344   72.4632   -8.5482 C.3     1  UNL1        0.1764
     12 C          18.6200   71.0044   -7.6661 C.3     1  UNL1        0.2383
     13 H          17.6917   72.6535  -10.5518 H       1  UNL1        0.2105
     14 H          16.2469   73.1119   -8.4917 H       1  UNL1        0.2106
     15 O          16.2685   69.7686   -6.7065 O.2     1  UNL1       -0.2464
     16 O          18.0284   69.2897   -2.4739 O.2     1  UNL1       -0.2670
     17 N          18.4366   70.5465   -6.3178 N.ar    1  UNL1       -0.2551
     18 N          17.1468   69.5310   -4.5998 N.ar    1  UNL1       -0.2743
     19 C          17.2168   69.9399   -5.9377 C.ar    1  UNL1        0.3323
     20 C          19.4597   70.7003   -5.3885 C.ar    1  UNL1        0.0869
     21 C          19.3766   70.3061   -4.1161 C.ar    1  UNL1        0.0795
     22 C          18.1357   69.6631   -3.6379 C.ar    1  UNL1        0.2626
     23 H          16.3062   69.1062   -4.3122 H       1  UNL1        0.1734
     24 O          21.0922   73.7118   -4.3659 O.3     1  UNL1       -0.2703
     25 P          21.0726   74.2405   -2.8384 P.3     1  UNL1        0.2208
     26 O          19.5451   74.7337   -2.6360 O.co2   1  UNL1       -0.4371
     27 O          22.1063   75.2865   -2.5360 O.2     1  UNL1       -0.5170
     28 O          21.1915   72.9037   -1.9419 O.3     1  UNL1       -0.2858
     29 O          22.8863   73.3442   -0.3449 O.3     1  UNL1       -0.3258
     30 O          21.9475   69.4722    0.7402 O.3     1  UNL1       -0.3794
     31 O          21.1423   71.6524    2.4273 O.3     1  UNL1       -0.3794
     32 O          21.9939   70.2171   -2.0567 O.3     1  UNL1       -0.3775
     33 C          21.6787   70.7925    0.2608 C.3     1  UNL1        0.1715
     34 C          22.0698   71.7886    1.3543 C.3     1  UNL1        0.1694
     35 C          22.4940   71.0388   -1.0073 C.3     1  UNL1        0.1967
     36 C          22.0625   73.2276    0.8211 C.3     1  UNL1        0.1761
     37 C          22.4597   72.5103   -1.4240 C.3     1  UNL1        0.2704
     38 H          21.4326   69.3093    1.5450 H       1  UNL1        0.2105
     39 H          21.1563   70.7392    2.7544 H       1  UNL1        0.2105
     40 H          22.0211   69.2881   -1.7808 H       1  UNL1        0.2106
     41 O          21.6103   74.4232    2.8398 O.3     1  UNL1       -0.3794
     42 C          22.6007   74.2210    1.8486 C.3     1  UNL1        0.1693
     43 H          21.9391   75.0530    3.5008 H       1  UNL1        0.2105
@<TRIPOS>UNITY_ATOM_ATTR
2 1
charge -1
26 1
charge -1
@<TRIPOS>BOND
     1    25    28    1
     2    25    24    1
     3    25    26    1
     4    25    27    2
     5     1     4    1
     6     1    24    1
     7     1     2    1
     8     1     3    2
     9     6    11    1
    10     6    12    1
    11    29    36    1
    12    29    37    1
    13     7     9    1
    14     7    13    1
    15     8    10    1
    16     8    14    1
    17    28    37    1
    18     4     5    1
    19    30    33    1
    20    30    38    1
    21    31    34    1
    22    31    39    1
    23    32    35    1
    24    32    40    1
    25    41    42    1
    26    41    43    1
    27    15    19    2
    28    16    22    2
    29    17    12    1
    30    17    19   ar
    31    17    20   ar
    32    18    19   ar
    33    18    22   ar
    34    18    23    1
    35     9    10    1
    36     9    11    1
    37    10    12    1
    38    11     5    1
    39    33    34    1
    40    33    35    1
    41    34    36    1
    42    35    37    1
    43    36    42    1
    44    20    21   ar
    45    21    22   ar
@<TRIPOS>MOLECULE
*****
 43 45 0 0 0
SMALL
GASTEIGER

@<TRIPOS>ATOM
      1 P          22.4747   72.8925   -4.4299 P.3     1  UNL1        0.2189
      2 O          22.8435   73.2634   -5.9609 O.co2   1  UNL1       -0.4371
      3 O          23.4441   71.9709   -3.7500 O.2     1  UNL1       -0.5170
      4 O          20.9469   72.3667   -4.5149 O.3     1  UNL1       -0.3112
      5 C          20.4424   71.5798   -3.4499 C.3     1  UNL1        0.1811
      6 O          18.4648   72.3507   -4.5761 O.3     1  UNL1       -0.3308
      7 O          16.9185   70.9133   -2.4468 O.3     1  UNL1       -0.3794
      8 O          16.7836   69.1827   -4.5501 O.3     1  UNL1       -0.3779
      9 C          18.1480   70.5477   -3.0713 C.3     1  UNL1        0.1713
     10 C          17.8953   70.0522   -4.4799 C.3     1  UNL1        0.1895
     11 C          18.9449   71.8221   -3.3205 C.3     1  UNL1        0.1764
     12 C          17.6703   71.3511   -5.2352 C.3     1  UNL1        0.2383
     13 H          16.3923   70.1156   -2.2774 H       1  UNL1        0.2105
     14 H          16.9758   68.3713   -4.0547 H       1  UNL1        0.2106
     15 O          16.0972   72.1982   -7.4228 O.2     1  UNL1       -0.2464
     16 O          19.3335   70.9643  -10.4633 O.2     1  UNL1       -0.2670
     17 N          18.0773   71.2632   -6.6092 N.ar    1  UNL1       -0.2551
     18 N          17.7100   71.5833   -8.9350 N.ar    1  UNL1       -0.2743
     19 C          17.2121   71.7159   -7.6324 C.ar    1  UNL1        0.3323
     20 C          19.3222   70.7332   -6.9307 C.ar    1  UNL1        0.0869
     21 C          19.7816   70.6125   -8.1779 C.ar    1  UNL1        0.0795
     22 C          18.9395   71.0620   -9.3053 C.ar    1  UNL1        0.2626
     23 H          17.1244   71.8918   -9.6641 H       1  UNL1        0.1734
     24 O          22.3217   74.3422   -3.7315 O.3     1  UNL1       -0.2703
     25 P          22.0401   74.7556   -2.1943 P.3     1  UNL1        0.2208
     26 O          20.5109   75.2828   -2.2260 O.co2   1  UNL1       -0.4371
     27 O          23.0234   75.7410   -1.6321 O.2     1  UNL1       -0.5170
     28 O          21.9711   73.3523   -1.4000 O.3     1  UNL1       -0.2858
     29 O          23.2014   73.7091    0.5939 O.3     1  UNL1       -0.3258
     30 O          22.0982   69.7754    1.1942 O.3     1  UNL1       -0.3794
     31 O          20.8514   71.8495    2.7407 O.3     1  UNL1       -0.3794
     32 O          22.8305   70.6814   -1.4558 O.3     1  UNL1       -0.3775
     33 C          21.9319   71.1198    0.7355 C.3     1  UNL1        0.1715
     34 C          22.0157   72.0530    1.9450 C.3     1  UNL1        0.1694
     35 C          23.0344   71.4437   -0.2710 C.3     1  UNL1        0.1967
     36 C          22.1137   73.5205    1.5067 C.3     1  UNL1        0.1761
     37 C          23.0763   72.9367   -0.6018 C.3     1  UNL1        0.2704
     38 H          21.4010   69.5632    1.8333 H       1  UNL1        0.2105
     39 H          20.8012   70.9190    3.0104 H       1  UNL1        0.2105
     40 H          22.8062   69.7382   -1.2331 H       1  UNL1        0.2106
     41 O          23.5463   74.0537    3.3430 O.3     1  UNL1       -0.3794
     42 C          22.3566   74.4556    2.6893 C.3     1  UNL1        0.1693
     43 H          23.7137   74.6403    4.0978 H       1  UNL1        0.2105
@<TRIPOS>UNITY_ATOM_ATTR
2 1
charge -1
26 1
charge -1
@<TRIPOS>BOND
     1    25    28    1
     2    25    24    1
     3    25    26    1
     4    25    27    2
     5     1     4    1
     6     1    24    1
     7     1     2    1
     8     1     3    2
     9     6    11    1
    10     6    12    1
    11    29    36    1
    12    29    37    1
    13     7     9    1
    14     7    13    1
    15     8    10    1
    16     8    14    1
    17    28    37    1
    18     4     5    1
    19    30    33    1
    20    30    38    1
    21    31    34    1
    22    31    39    1
    23    32    35    1
    24    32    40    1
    25    41    42    1
    26    41    43    1
    27    15    19    2
    28    16    22    2
    29    17    12    1
    30    17    19   ar
    31    17    20   ar
    32    18    19   ar
    33    18    22   ar
    34    18    23    1
    35     9    10    1
    36     9    11    1
    37    10    12    1
    38    11     5    1
    39    33    34    1
    40    33    35    1
    41    34    36    1
    42    35    37    1
    43    36    42    1
    44    20    21   ar
    45    21    22   ar
@<TRIPOS>MOLECULE
*****
 43 45 0 0 0
SMALL
GASTEIGER

@<TRIPOS>ATOM
      1 P          22.0429   74.7209   -5.8418 P.3     1  UNL1        0.2189
      2 O          21.2386   76.1209   -5.7394 O.co2   1  UNL1       -0.4371
      3 O          23.2993   74.7702   -6.6606 O.2     1  UNL1       -0.5170
      4 O          20.9222   73.6644   -6.3375 O.3     1  UNL1       -0.3112
      5 C          19.8649   74.1343   -7.1555 C.3     1  UNL1        0.1811
      6 O          19.7485   71.7843   -7.6429 O.3     1  UNL1       -0.3308
      7 O          18.0887   72.5501  -10.0197 O.3     1  UNL1       -0.3794
      8 O          16.2105   71.7175   -8.2265 O.3     1  UNL1       -0.3779
      9 C          18.1244   73.1338   -8.7184 C.3     1  UNL1        0.1713
     10 C          17.4234   72.2364   -7.7201 C.3     1  UNL1        0.1895
     11 C          19.5655   73.0933   -8.2254 C.3     1  UNL1        0.1764
     12 C          18.4658   71.1575   -7.4800 C.3     1  UNL1        0.2383
     13 H          17.1783   72.5650  -10.3557 H       1  UNL1        0.2105
     14 H          15.5803   72.4422   -8.3624 H       1  UNL1        0.2106
     15 O          16.3360   69.5481   -6.5569 O.2     1  UNL1       -0.2464
     16 O          18.2548   69.0771   -2.3931 O.2     1  UNL1       -0.2670
     17 N          18.3833   70.6006   -6.1592 N.ar    1  UNL1       -0.2551
     18 N          17.2933   69.3148   -4.4844 N.ar    1  UNL1       -0.2743
     19 C          17.2706   69.8067   -5.7957 C.ar    1  UNL1        0.3323
     20 C          19.3985   70.8430   -5.2403 C.ar    1  UNL1        0.0869
     21 C          19.4045   70.3676   -3.9932 C.ar    1  UNL1        0.0795
     22 C          18.2786   69.5290   -3.5337 C.ar    1  UNL1        0.2626
     23 H          16.5281   68.7594   -4.2088 H       1  UNL1        0.1734
     24 O          22.2649   74.3151   -4.2929 O.3     1  UNL1       -0.2703
     25 P          23.4003   73.4078   -3.5854 P.3     1  UNL1        0.2208
     26 O          24.7754   74.1699   -3.9672 O.co2   1  UNL1       -0.4371
     27 O          23.3648   71.9596   -3.9796 O.2     1  UNL1       -0.5170
     28 O          23.2111   73.6756   -2.0050 O.3     1  UNL1       -0.2858
     29 O          21.3144   72.4051   -1.3688 O.3     1  UNL1       -0.3258
     30 O          22.2325   74.0952    2.2852 O.3     1  UNL1       -0.3794
     31 O          22.7468   71.3043    1.8445 O.3     1  UNL1       -0.3794
     32 O          22.5168   75.6526   -0.1383 O.3     1  UNL1       -0.3775
     33 C          22.5171   73.5311    1.0022 C.3     1  UNL1        0.1715
     34 C          21.9588   72.1070    0.9699 C.3     1  UNL1        0.1694
     35 C          21.8616   74.3902   -0.0774 C.3     1  UNL1        0.1967
     36 C          21.9872   71.5330   -0.4530 C.3     1  UNL1        0.1761
     37 C          21.9009   73.7059   -1.4450 C.3     1  UNL1        0.2704
     38 H          22.6463   73.5547    2.9752 H       1  UNL1        0.2105
     39 H          22.7209   71.6779    2.7395 H       1  UNL1        0.2105
     40 H          22.4848   76.0757    0.7333 H       1  UNL1        0.2106
     41 O          21.7493   69.3698    0.5334 O.3     1  UNL1       -0.3794
     42 C          21.2914   70.1762   -0.5364 C.3     1  UNL1        0.1693
     43 H          21.3147   68.5031    0.4933 H       1  UNL1        0.2105
@<TRIPOS>UNITY_ATOM_ATTR
2 1
charge -1
26 1
charge -1
@<TRIPOS>BOND
     1    25    28    1
     2    25    24    1
     3    25    26    1
     4    25    27    2
     5     1     4    1
     6     1    24    1
     7     1     2    1
     8     1     3    2
     9     6    11    1
    10     6    12    1
    11    29    36    1
    12    29    37    1
    13     7     9    1
    14     7    13    1
    15     8    10    1
    16     8    14    1
    17    28    37    1
    18     4     5    1
    19    30    33    1
    20    30    38    1
    21    31    34    1
    22    31    39    1
    23    32    35    1
    24    32    40    1
    25    41    42    1
    26    41    43    1
    27    15    19    2
    28    16    22    2
    29    17    12    1
    30    17    19   ar
    31    17    20   ar
    32    18    19   ar
    33    18    22   ar
    34    18    23    1
    35     9    10    1
    36     9    11    1
    37    10    12    1
    38    11     5    1
    39    33    34    1
    40    33    35    1
    41    34    36    1
    42    35    37    1
    43    36    42    1
    44    20    21   ar
    45    21    22   ar
@<TRIPOS>MOLECULE
*****
 43 45 0 0 0
SMALL
GASTEIGER

@<TRIPOS>ATOM
      1 P          22.8403   72.1920   -3.3953 P.3     1  UNL1        0.2189
      2 O          23.3609   70.6744   -3.1872 O.co2   1  UNL1       -0.4371
      3 O          23.9143   73.2395   -3.3706 O.2     1  UNL1       -0.5170
      4 O          21.6721   72.3572   -2.2881 O.3     1  UNL1       -0.3112
      5 C          22.0026   72.9363   -1.0378 C.3     1  UNL1        0.1811
      6 O          21.0260   72.8611    1.1564 O.3     1  UNL1       -0.3308
      7 O          18.8079   74.5296    0.0222 O.3     1  UNL1       -0.3794
      8 O          20.3178   76.3716    1.3504 O.3     1  UNL1       -0.3779
      9 C          20.2035   74.5640   -0.2716 C.3     1  UNL1        0.1713
     10 C          20.9645   75.2124    0.8659 C.3     1  UNL1        0.1895
     11 C          20.7271   73.1338   -0.2302 C.3     1  UNL1        0.1764
     12 C          21.0078   74.0943    1.8937 C.3     1  UNL1        0.2383
     13 H          18.4509   75.4319    0.0012 H       1  UNL1        0.2105
     14 H          20.3160   77.0532    0.6604 H       1  UNL1        0.2106
     15 O          21.0945   73.2728    4.5947 O.2     1  UNL1       -0.2464
     16 O          25.5496   74.3881    4.9816 O.2     1  UNL1       -0.2670
     17 N          22.1774   74.1586    2.7239 N.ar    1  UNL1       -0.2551
     18 N          23.3128   73.8286    4.7851 N.ar    1  UNL1       -0.2743
     19 C          22.1145   73.7216    4.0676 C.ar    1  UNL1        0.3323
     20 C          23.3699   74.6503    2.2043 C.ar    1  UNL1        0.0869
     21 C          24.5035   74.7470    2.9021 C.ar    1  UNL1        0.0795
     22 C          24.5231   74.3117    4.3135 C.ar    1  UNL1        0.2626
     23 H          23.2927   73.5305    5.7234 H       1  UNL1        0.1734
     24 O          22.0160   72.1063   -4.7832 O.3     1  UNL1       -0.2703
     25 P          21.7428   73.2165   -5.9259 P.3     1  UNL1        0.2208
     26 O          22.7567   72.7864   -7.1110 O.co2   1  UNL1       -0.4371
     27 O          21.9032   74.6339   -5.4576 O.2     1  UNL1       -0.5170
     28 O          20.2751   72.8627   -6.4966 O.3     1  UNL1       -0.2858
     29 O          20.0459   70.5214   -6.2092 O.3     1  UNL1       -0.3258
     30 O          16.3740   71.3398   -7.9116 O.3     1  UNL1       -0.3794
     31 O          16.5286   70.6895   -5.1186 O.3     1  UNL1       -0.3794
     32 O          18.7380   72.7284   -8.8406 O.3     1  UNL1       -0.3775
     33 C          17.5191   71.6010   -7.0957 C.3     1  UNL1        0.1715
     34 C          17.6084   70.5067   -6.0301 C.3     1  UNL1        0.1694
     35 C          18.7689   71.5994   -7.9741 C.3     1  UNL1        0.1967
     36 C          18.9502   70.5647   -5.2876 C.3     1  UNL1        0.1761
     37 C          20.0484   71.6092   -7.1358 C.3     1  UNL1        0.2704
     38 H          15.5770   71.3399   -7.3600 H       1  UNL1        0.2105
     39 H          15.6873   70.6512   -5.6002 H       1  UNL1        0.2105
     40 H          17.9234   72.7104   -9.3659 H       1  UNL1        0.2106
     41 O          20.4499   69.4085   -3.8306 O.3     1  UNL1       -0.3794
     42 C          19.1256   69.3877   -4.3305 C.3     1  UNL1        0.1693
     43 H          20.5760   68.6651   -3.2197 H       1  UNL1        0.2105
@<TRIPOS>UNITY_ATOM_ATTR
2 1
charge -1
26 1
charge -1
@<TRIPOS>BOND
     1    25    28    1
     2    25    24    1
     3    25    26    1
     4    25    27    2
     5     1     4    1
     6     1    24    1
     7     1     2    1
     8     1     3    2
     9     6    11    1
    10     6    12    1
    11    29    36    1
    12    29    37    1
    13     7     9    1
    14     7    13    1
    15     8    10    1
    16     8    14    1
    17    28    37    1
    18     4     5    1
    19    30    33    1
    20    30    38    1
    21    31    34    1
    22    31    39    1
    23    32    35    1
    24    32    40    1
    25    41    42    1
    26    41    43    1
    27    15    19    2
    28    16    22    2
    29    17    12    1
    30    17    19   ar
    31    17    20   ar
    32    18    19   ar
    33    18    22   ar
    34    18    23    1
    35     9    10    1
    36     9    11    1
    37    10    12    1
    38    11     5    1
    39    33    34    1
    40    33    35    1
    41    34    36    1
    42    35    37    1
    43    36    42    1
    44    20    21   ar
    45    21    22   ar
@<TRIPOS>MOLECULE
*****
 43 45 0 0 0
SMALL
GASTEIGER

@<TRIPOS>ATOM
      1 P          22.5251   75.0959   -7.8022 P.3     1  UNL1        0.2189
      2 O          22.7417   74.4234   -6.3468 O.co2   1  UNL1       -0.4371
      3 O          21.7871   76.4023   -7.7933 O.2     1  UNL1       -0.5170
      4 O          21.8521   73.9148   -8.6797 O.3     1  UNL1       -0.3112
      5 C          21.3468   72.7756   -8.0053 C.3     1  UNL1        0.1811
      6 O          19.9561   70.8326   -8.2596 O.3     1  UNL1       -0.3308
      7 O          18.5812   72.3353  -10.4602 O.3     1  UNL1       -0.3794
      8 O          16.8537   72.6286   -8.3706 O.3     1  UNL1       -0.3779
      9 C          19.1186   72.8245   -9.2325 C.3     1  UNL1        0.1713
     10 C          18.2222   72.4377   -8.0748 C.3     1  UNL1        0.1895
     11 C          20.3875   72.0376   -8.9291 C.3     1  UNL1        0.1764
     12 C          18.5786   70.9743   -7.8757 C.3     1  UNL1        0.2383
     13 H          17.7701   72.8231  -10.6751 H       1  UNL1        0.2105
     14 H          16.6772   73.5751   -8.4884 H       1  UNL1        0.2106
     15 O          16.1646   70.0352   -6.7493 O.2     1  UNL1       -0.2464
     16 O          18.1237   69.3950   -2.6271 O.2     1  UNL1       -0.2670
     17 N          18.4295   70.5552   -6.5106 N.ar    1  UNL1       -0.2551
     18 N          17.1421   69.7170   -4.6977 N.ar    1  UNL1       -0.2743
     19 C          17.1737   70.1011   -6.0444 C.ar    1  UNL1        0.3323
     20 C          19.5210   70.5964   -5.6499 C.ar    1  UNL1        0.0869
     21 C          19.4739   70.2278   -4.3680 C.ar    1  UNL1        0.0795
     22 C          18.1993   69.7411   -3.8019 C.ar    1  UNL1        0.2626
     23 H          16.2776   69.3976   -4.3507 H       1  UNL1        0.1734
     24 O          24.0277   75.1761   -8.3928 O.3     1  UNL1       -0.2703
     25 P          25.1915   76.2790   -8.1875 P.3     1  UNL1        0.2208
     26 O          25.2556   76.4561   -6.5806 O.co2   1  UNL1       -0.4371
     27 O          24.9683   77.5570   -8.9429 O.2     1  UNL1       -0.5170
     28 O          26.5572   75.5073   -8.5673 O.3     1  UNL1       -0.2858
     29 O          28.3077   76.1513   -7.1052 O.3     1  UNL1       -0.3258
     30 O          30.4922   73.9203   -9.8074 O.3     1  UNL1       -0.3794
     31 O          29.9916   72.8729   -7.1806 O.3     1  UNL1       -0.3794
     32 O          28.3313   75.6059  -10.7395 O.3     1  UNL1       -0.3775
     33 C          29.3461   74.2573   -9.0211 C.3     1  UNL1        0.1715
     34 C          29.7513   74.2290   -7.5461 C.3     1  UNL1        0.1694
     35 C          28.8600   75.6499   -9.4185 C.3     1  UNL1        0.1967
     36 C          28.6558   74.8355   -6.6589 C.3     1  UNL1        0.1761
     37 C          27.8074   76.1803   -8.4434 C.3     1  UNL1        0.2704
     38 H          30.8055   73.0370   -9.5604 H       1  UNL1        0.2105
     39 H          30.6849   72.5016   -7.7486 H       1  UNL1        0.2105
     40 H          29.0072   75.2688  -11.3471 H       1  UNL1        0.2106
     41 O          28.0442   74.5285   -4.3696 O.3     1  UNL1       -0.3794
     42 C          29.1027   74.9616   -5.2040 C.3     1  UNL1        0.1693
     43 H          28.3145   74.6029   -3.4406 H       1  UNL1        0.2105
@<TRIPOS>UNITY_ATOM_ATTR
2 1
charge -1
26 1
charge -1
@<TRIPOS>BOND
     1    25    28    1
     2    25    24    1
     3    25    26    1
     4    25    27    2
     5     1     4    1
     6     1    24    1
     7     1     2    1
     8     1     3    2
     9     6    11    1
    10     6    12    1
    11    29    36    1
    12    29    37    1
    13     7     9    1
    14     7    13    1
    15     8    10    1
    16     8    14    1
    17    28    37    1
    18     4     5    1
    19    30    33    1
    20    30    38    1
    21    31    34    1
    22    31    39    1
    23    32    35    1
    24    32    40    1
    25    41    42    1
    26    41    43    1
    27    15    19    2
    28    16    22    2
    29    17    12    1
    30    17    19   ar
    31    17    20   ar
    32    18    19   ar
    33    18    22   ar
    34    18    23    1
    35     9    10    1
    36     9    11    1
    37    10    12    1
    38    11     5    1
    39    33    34    1
    40    33    35    1
    41    34    36    1
    42    35    37    1
    43    36    42    1
    44    20    21   ar
    45    21    22   ar
@<TRIPOS>MOLECULE
*****
 43 45 0 0 0
SMALL
GASTEIGER

@<TRIPOS>ATOM
      1 P          18.8428   72.6787   -2.3140 P.3     1  UNL1        0.2189
      2 O          19.8319   73.5325   -3.2680 O.co2   1  UNL1       -0.4371
      3 O          17.6056   73.4040   -1.8727 O.2     1  UNL1       -0.5170
      4 O          19.8080   72.1500   -1.1279 O.3     1  UNL1       -0.3112
      5 C          20.6000   73.0946   -0.4290 C.3     1  UNL1        0.1811
      6 O          22.7756   73.2947    0.5712 O.3     1  UNL1       -0.3308
      7 O          23.5186   70.8543   -1.0046 O.3     1  UNL1       -0.3794
      8 O          23.0654   69.8389    1.4854 O.3     1  UNL1       -0.3779
      9 C          22.2780   71.1827   -0.3815 C.3     1  UNL1        0.1713
     10 C          22.3854   71.0226    1.1207 C.3     1  UNL1        0.1895
     11 C          22.0629   72.6841   -0.5267 C.3     1  UNL1        0.1764
     12 C          23.1430   72.2781    1.5180 C.3     1  UNL1        0.2383
     13 H          23.6777   69.9002   -0.9249 H       1  UNL1        0.2105
     14 H          22.5436   69.0685    1.2114 H       1  UNL1        0.2106
     15 O          20.6590   71.8049    2.7766 O.2     1  UNL1       -0.2464
     16 O          21.9551   74.0491    6.5877 O.2     1  UNL1       -0.2670
     17 N          22.8044   72.7271    2.8391 N.ar    1  UNL1       -0.2551
     18 N          21.3065   72.9225    4.6733 N.ar    1  UNL1       -0.2743
     19 C          21.5293   72.4375    3.3782 C.ar    1  UNL1        0.3323
     20 C          23.7319   73.4455    3.5857 C.ar    1  UNL1        0.0869
     21 C          23.5033   73.9021    4.8188 C.ar    1  UNL1        0.0795
     22 C          22.1958   73.6425    5.4552 C.ar    1  UNL1        0.2626
     23 H          20.4249   72.7332    5.0692 H       1  UNL1        0.1734
     24 O          18.5663   71.3422   -3.1802 O.3     1  UNL1       -0.2703
     25 P          19.5837   70.3293   -3.9231 P.3     1  UNL1        0.2208
     26 O          18.8830   68.8851   -3.7207 O.co2   1  UNL1       -0.4371
     27 O          20.9990   70.4058   -3.4281 O.2     1  UNL1       -0.5170
     28 O          19.4063   70.6518   -5.4946 O.3     1  UNL1       -0.2858
     29 O          19.5417   72.6079   -6.8257 O.3     1  UNL1       -0.3258
     30 O          16.1129   70.9560   -8.4273 O.3     1  UNL1       -0.3794
     31 O          18.5479   70.9222   -9.9497 O.3     1  UNL1       -0.3794
     32 O          16.6045   70.7841   -5.5798 O.3     1  UNL1       -0.3775
     33 C          17.4176   70.9372   -7.8418 C.3     1  UNL1        0.1715
     34 C          18.3696   71.6973   -8.7674 C.3     1  UNL1        0.1694
     35 C          17.3579   71.6025   -6.4681 C.3     1  UNL1        0.1967
     36 C          19.7209   71.9503   -8.0855 C.3     1  UNL1        0.1761
     37 C          18.7562   71.8533   -5.9007 C.3     1  UNL1        0.2704
     38 H          16.1437   70.5346   -9.2996 H       1  UNL1        0.2105
     39 H          17.6872   70.7692  -10.3703 H       1  UNL1        0.2105
     40 H          15.7214   70.6330   -5.9501 H       1  UNL1        0.2106
     41 O          21.9753   72.5504   -8.6018 O.3     1  UNL1       -0.3794
     42 C          20.6292   72.8422   -8.9291 C.3     1  UNL1        0.1693
     43 H          22.5648   73.1104   -9.1314 H       1  UNL1        0.2105
@<TRIPOS>UNITY_ATOM_ATTR
2 1
charge -1
26 1
charge -1
@<TRIPOS>BOND
     1    25    28    1
     2    25    24    1
     3    25    26    1
     4    25    27    2
     5     1     4    1
     6     1    24    1
     7     1     2    1
     8     1     3    2
     9     6    11    1
    10     6    12    1
    11    29    36    1
    12    29    37    1
    13     7     9    1
    14     7    13    1
    15     8    10    1
    16     8    14    1
    17    28    37    1
    18     4     5    1
    19    30    33    1
    20    30    38    1
    21    31    34    1
    22    31    39    1
    23    32    35    1
    24    32    40    1
    25    41    42    1
    26    41    43    1
    27    15    19    2
    28    16    22    2
    29    17    12    1
    30    17    19   ar
    31    17    20   ar
    32    18    19   ar
    33    18    22   ar
    34    18    23    1
    35     9    10    1
    36     9    11    1
    37    10    12    1
    38    11     5    1
    39    33    34    1
    40    33    35    1
    41    34    36    1
    42    35    37    1
    43    36    42    1
    44    20    21   ar
    45    21    22   ar
@<TRIPOS>MOLECULE
*****
 43 45 0 0 0
SMALL
GASTEIGER

@<TRIPOS>ATOM
      1 P          23.1817   74.3992   -4.3238 P.3     1  UNL1        0.2189
      2 O          23.9888   73.0236   -4.0525 O.co2   1  UNL1       -0.4371
      3 O          23.8076   75.3120   -5.3369 O.2     1  UNL1       -0.5170
      4 O          22.9746   75.0258   -2.8465 O.3     1  UNL1       -0.3112
      5 C          21.6683   75.4060   -2.4504 C.3     1  UNL1        0.1811
      6 O          21.3393   74.8807   -0.1288 O.3     1  UNL1       -0.3308
      7 O          22.9749   77.3231    0.4626 O.3     1  UNL1       -0.3794
      8 O          24.7718   75.3034    0.8208 O.3     1  UNL1       -0.3779
      9 C          23.1150   76.3784   -0.5972 C.3     1  UNL1        0.1713
     10 C          23.6999   75.0834   -0.0733 C.3     1  UNL1        0.1895
     11 C          21.7190   75.9457   -1.0276 C.3     1  UNL1        0.1764
     12 C          22.4977   74.4448    0.6012 C.3     1  UNL1        0.2383
     13 H          23.8536   77.6144    0.7542 H       1  UNL1        0.2105
     14 H          25.5120   75.7108    0.3444 H       1  UNL1        0.2106
     15 O          22.3305   72.7994    2.8909 O.2     1  UNL1       -0.2464
     16 O          22.7223   68.9539    0.3811 O.2     1  UNL1       -0.2670
     17 N          22.5528   73.0104    0.5751 N.ar    1  UNL1       -0.2551
     18 N          22.5255   70.8860    1.6394 N.ar    1  UNL1       -0.2743
     19 C          22.4608   72.2780    1.7816 C.ar    1  UNL1        0.3323
     20 C          22.6963   72.3444   -0.6373 C.ar    1  UNL1        0.0869
     21 C          22.7577   71.0164   -0.7557 C.ar    1  UNL1        0.0795
     22 C          22.6690   70.1775    0.4569 C.ar    1  UNL1        0.2626
     23 H          22.4639   70.3551    2.4665 H       1  UNL1        0.1734
     24 O          21.6999   73.8811   -4.7097 O.3     1  UNL1       -0.2703
     25 P          21.0423   73.5155   -6.1404 P.3     1  UNL1        0.2208
     26 O          22.1198   72.5020   -6.7958 O.co2   1  UNL1       -0.4371
     27 O          20.7174   74.7089   -6.9913 O.2     1  UNL1       -0.5170
     28 O          19.7736   72.5848   -5.7809 O.3     1  UNL1       -0.2858
     29 O          19.9468   70.3152   -5.1211 O.3     1  UNL1       -0.3258
     30 O          16.1635   70.2349   -6.7737 O.3     1  UNL1       -0.3794
     31 O          16.4690   70.0782   -3.9224 O.3     1  UNL1       -0.3794
     32 O          18.2449   71.8238   -8.0078 O.3     1  UNL1       -0.3775
     33 C          17.2608   70.8086   -6.0579 C.3     1  UNL1        0.1715
     34 C          17.5498   69.9303   -4.8390 C.3     1  UNL1        0.1694
     35 C          18.4791   70.8700   -6.9773 C.3     1  UNL1        0.1967
     36 C          18.8740   70.3265   -4.1721 C.3     1  UNL1        0.1761
     37 C          19.7516   71.2246   -6.2059 C.3     1  UNL1        0.2704
     38 H          15.3866   70.1935   -6.1957 H       1  UNL1        0.2105
     39 H          15.6388   69.8253   -4.3560 H       1  UNL1        0.2105
     40 H          17.4369   71.5881   -8.4889 H       1  UNL1        0.2106
     41 O          19.6525   68.1335   -3.6302 O.3     1  UNL1       -0.3794
     42 C          19.2601   69.3643   -3.0509 C.3     1  UNL1        0.1693
     43 H          19.9014   67.5113   -2.9284 H       1  UNL1        0.2105
@<TRIPOS>UNITY_ATOM_ATTR
2 1
charge -1
26 1
charge -1
@<TRIPOS>BOND
     1    25    28    1
     2    25    24    1
     3    25    26    1
     4    25    27    2
     5     1     4    1
     6     1    24    1
     7     1     2    1
     8     1     3    2
     9     6    11    1
    10     6    12    1
    11    29    36    1
    12    29    37    1
    13     7     9    1
    14     7    13    1
    15     8    10    1
    16     8    14    1
    17    28    37    1
    18     4     5    1
    19    30    33    1
    20    30    38    1
    21    31    34    1
    22    31    39    1
    23    32    35    1
    24    32    40    1
    25    41    42    1
    26    41    43    1
    27    15    19    2
    28    16    22    2
    29    17    12    1
    30    17    19   ar
    31    17    20   ar
    32    18    19   ar
    33    18    22   ar
    34    18    23    1
    35     9    10    1
    36     9    11    1
    37    10    12    1
    38    11     5    1
    39    33    34    1
    40    33    35    1
    41    34    36    1
    42    35    37    1
    43    36    42    1
    44    20    21   ar
    45    21    22   ar
@<TRIPOS>MOLECULE
*****
 43 45 0 0 0
SMALL
GASTEIGER

@<TRIPOS>ATOM
      1 P          23.1152   73.7182   -4.0260 P.3     1  UNL1        0.2189
      2 O          23.4936   72.1506   -3.8968 O.co2   1  UNL1       -0.4371
      3 O          24.2824   74.6362   -4.2420 O.2     1  UNL1       -0.5170
      4 O          22.2243   74.0127   -2.7079 O.3     1  UNL1       -0.3112
      5 C          21.9461   75.3596   -2.3669 C.3     1  UNL1        0.1811
      6 O          20.2977   74.0979   -1.1566 O.3     1  UNL1       -0.3308
      7 O          19.2856   76.7365   -0.1546 O.3     1  UNL1       -0.3794
      8 O          20.7479   75.8201    1.9569 O.3     1  UNL1       -0.3779
      9 C          20.6261   76.3256   -0.4181 C.3     1  UNL1        0.1713
     10 C          21.1088   75.3814    0.6631 C.3     1  UNL1        0.1895
     11 C          20.6072   75.4217   -1.6445 C.3     1  UNL1        0.1764
     12 C          20.4251   74.0815    0.2746 C.3     1  UNL1        0.2383
     13 H          19.2722   77.3152    0.6245 H       1  UNL1        0.2105
     14 H          21.2085   76.6498    2.1574 H       1  UNL1        0.2106
     15 O          20.4452   71.6372   -1.1406 O.2     1  UNL1       -0.2464
     16 O          23.3747   69.7165    1.8545 O.2     1  UNL1       -0.2670
     17 N          21.1844   72.9262    0.6619 N.ar    1  UNL1       -0.2551
     18 N          21.9040   70.6829    0.3518 N.ar    1  UNL1       -0.2743
     19 C          21.1239   71.7475   -0.1175 C.ar    1  UNL1        0.3323
     20 C          21.9781   72.9693    1.8030 C.ar    1  UNL1        0.0869
     21 C          22.7150   71.9449    2.2377 C.ar    1  UNL1        0.0795
     22 C          22.7080   70.6765    1.4806 C.ar    1  UNL1        0.2626
     23 H          21.8773   69.8513   -0.1750 H       1  UNL1        0.1734
     24 O          22.0202   73.7311   -5.2150 O.3     1  UNL1       -0.2703
     25 P          20.4191   73.5109   -5.1859 P.3     1  UNL1        0.2208
     26 O          19.8366   75.0202   -5.2073 O.co2   1  UNL1       -0.4371
     27 O          19.9335   72.6759   -4.0366 O.2     1  UNL1       -0.5170
     28 O          20.0621   72.9156   -6.6430 O.3     1  UNL1       -0.2858
     29 O          19.2660   70.7384   -6.1504 O.3     1  UNL1       -0.3258
     30 O          18.6482   70.7587  -10.2332 O.3     1  UNL1       -0.3794
     31 O          16.3975   70.9317   -8.4577 O.3     1  UNL1       -0.3794
     32 O          21.0110   72.0104   -9.1240 O.3     1  UNL1       -0.3775
     33 C          18.7104   71.3264   -8.9220 C.3     1  UNL1        0.1715
     34 C          17.7120   70.5852   -8.0306 C.3     1  UNL1        0.1694
     35 C          20.1304   71.1756   -8.3796 C.3     1  UNL1        0.1967
     36 C          17.9084   70.9531   -6.5538 C.3     1  UNL1        0.1761
     37 C          20.2059   71.5195   -6.8909 C.3     1  UNL1        0.2704
     38 H          17.7493   70.8516  -10.5835 H       1  UNL1        0.2105
     39 H          16.2867   70.6947   -9.3919 H       1  UNL1        0.2105
     40 H          20.9542   71.7827  -10.0647 H       1  UNL1        0.2106
     41 O          16.3325   69.1621   -6.4202 O.3     1  UNL1       -0.3794
     42 C          17.0305   70.1090   -5.6324 C.3     1  UNL1        0.1693
     43 H          15.7699   68.6175   -5.8470 H       1  UNL1        0.2105
@<TRIPOS>UNITY_ATOM_ATTR
2 1
charge -1
26 1
charge -1
@<TRIPOS>BOND
     1    25    28    1
     2    25    24    1
     3    25    26    1
     4    25    27    2
     5     1     4    1
     6     1    24    1
     7     1     2    1
     8     1     3    2
     9     6    11    1
    10     6    12    1
    11    29    36    1
    12    29    37    1
    13     7     9    1
    14     7    13    1
    15     8    10    1
    16     8    14    1
    17    28    37    1
    18     4     5    1
    19    30    33    1
    20    30    38    1
    21    31    34    1
    22    31    39    1
    23    32    35    1
    24    32    40    1
    25    41    42    1
    26    41    43    1
    27    15    19    2
    28    16    22    2
    29    17    12    1
    30    17    19   ar
    31    17    20   ar
    32    18    19   ar
    33    18    22   ar
    34    18    23    1
    35     9    10    1
    36     9    11    1
    37    10    12    1
    38    11     5    1
    39    33    34    1
    40    33    35    1
    41    34    36    1
    42    35    37    1
    43    36    42    1
    44    20    21   ar
    45    21    22   ar
@<TRIPOS>MOLECULE
*****
 43 45 0 0 0
SMALL
GASTEIGER

@<TRIPOS>ATOM
      1 P          21.9912   71.0485   -2.9355 P.3     1  UNL1        0.2189
      2 O          23.5134   70.6215   -3.2791 O.co2   1  UNL1       -0.4371
      3 O          21.5602   72.3691   -3.5026 O.2     1  UNL1       -0.5170
      4 O          21.9037   70.9129   -1.3256 O.3     1  UNL1       -0.3112
      5 C          22.2000   72.0503   -0.5342 C.3     1  UNL1        0.1811
      6 O          21.0933   72.6169    1.5220 O.3     1  UNL1       -0.3308
      7 O          19.1622   74.1725   -0.1638 O.3     1  UNL1       -0.3794
      8 O          20.8008   76.1206    0.8142 O.3     1  UNL1       -0.3779
      9 C          20.5668   73.9911   -0.3354 C.3     1  UNL1        0.1713
     10 C          21.3315   74.8182    0.6769 C.3     1  UNL1        0.1895
     11 C          20.9118   72.5693    0.0898 C.3     1  UNL1        0.1764
     12 C          21.1795   73.9888    1.9407 C.3     1  UNL1        0.2383
     13 H          18.9179   75.0735   -0.4293 H       1  UNL1        0.2105
     14 H          20.9216   76.6082   -0.0155 H       1  UNL1        0.2106
     15 O          21.1069   73.4094    4.7042 O.2     1  UNL1       -0.2464
     16 O          25.5276   74.5911    5.2544 O.2     1  UNL1       -0.2670
     17 N          22.2971   74.1357    2.8299 N.ar    1  UNL1       -0.2551
     18 N          23.3082   73.9981    4.9759 N.ar    1  UNL1       -0.2743
     19 C          22.1553   73.8184    4.2009 C.ar    1  UNL1        0.3323
     20 C          23.5171   74.5894    2.3404 C.ar    1  UNL1        0.0869
     21 C          24.6067   74.7566    3.0929 C.ar    1  UNL1        0.0795
     22 C          24.5431   74.4477    4.5360 C.ar    1  UNL1        0.2626
     23 H          23.2330   73.7837    5.9341 H       1  UNL1        0.1734
     24 O          21.1323   69.7811   -3.4542 O.3     1  UNL1       -0.2703
     25 P          19.5446   69.6039   -3.7002 P.3     1  UNL1        0.2208
     26 O          18.9008   70.8337   -2.8692 O.co2   1  UNL1       -0.4371
     27 O          19.0101   68.2532   -3.3211 O.2     1  UNL1       -0.5170
     28 O          19.3247   69.9995   -5.2495 O.3     1  UNL1       -0.2858
     29 O          19.8462   71.9262   -6.5271 O.3     1  UNL1       -0.3258
     30 O          16.0823   71.1365   -8.0306 O.3     1  UNL1       -0.3794
     31 O          18.3945   70.6223   -9.6546 O.3     1  UNL1       -0.3794
     32 O          16.6214   70.7520   -5.2126 O.3     1  UNL1       -0.3775
     33 C          17.3695   70.8070   -7.5014 C.3     1  UNL1        0.1715
     34 C          18.4343   71.3721   -8.4436 C.3     1  UNL1        0.1694
     35 C          17.5070   71.4164   -6.1074 C.3     1  UNL1        0.1967
     36 C          19.8307   71.2936   -7.8121 C.3     1  UNL1        0.1761
     37 C          18.9448   71.3297   -5.5924 C.3     1  UNL1        0.2704
     38 H          15.9883   70.7521   -8.9154 H       1  UNL1        0.2105
     39 H          17.5073   70.6797  -10.0429 H       1  UNL1        0.2105
     40 H          15.7146   70.8143   -5.5496 H       1  UNL1        0.2106
     41 O          21.9387   72.4184   -7.8218 O.3     1  UNL1       -0.3794
     42 C          20.8851   71.9937   -8.6666 C.3     1  UNL1        0.1693
     43 H          22.6174   72.8655   -8.3521 H       1  UNL1        0.2105
@<TRIPOS>UNITY_ATOM_ATTR
2 1
charge -1
26 1
charge -1
@<TRIPOS>BOND
     1    25    28    1
     2    25    24    1
     3    25    26    1
     4    25    27    2
     5     1     4    1
     6     1    24    1
     7     1     2    1
     8     1     3    2
     9     6    11    1
    10     6    12    1
    11    29    36    1
    12    29    37    1
    13     7     9    1
    14     7    13    1
    15     8    10    1
    16     8    14    1
    17    28    37    1
    18     4     5    1
    19    30    33    1
    20    30    38    1
    21    31    34    1
    22    31    39    1
    23    32    35    1
    24    32    40    1
    25    41    42    1
    26    41    43    1
    27    15    19    2
    28    16    22    2
    29    17    12    1
    30    17    19   ar
    31    17    20   ar
    32    18    19   ar
    33    18    22   ar
    34    18    23    1
    35     9    10    1
    36     9    11    1
    37    10    12    1
    38    11     5    1
    39    33    34    1
    40    33    35    1
    41    34    36    1
    42    35    37    1
    43    36    42    1
    44    20    21   ar
    45    21    22   ar
@<TRIPOS>MOLECULE
*****
 43 45 0 0 0
SMALL
GASTEIGER

@<TRIPOS>ATOM
      1 P          21.5973   73.9891   -5.7524 P.3     1  UNL1        0.2189
      2 O          22.7738   72.9496   -6.1433 O.co2   1  UNL1       -0.4371
      3 O          21.9882   75.4369   -5.8029 O.2     1  UNL1       -0.5170
      4 O          21.0662   73.4541   -4.3208 O.3     1  UNL1       -0.3112
      5 C          21.7631   73.8471   -3.1513 C.3     1  UNL1        0.1811
      6 O          23.2393   72.9691   -1.4709 O.3     1  UNL1       -0.3308
      7 O          23.5242   70.5670   -3.2428 O.3     1  UNL1       -0.3794
      8 O          21.7498   69.7085   -1.3583 O.3     1  UNL1       -0.3779
      9 C          22.3778   71.3826   -3.0059 C.3     1  UNL1        0.1713
     10 C          21.8006   71.0931   -1.6360 C.3     1  UNL1        0.1895
     11 C          22.8500   72.8232   -2.8542 C.3     1  UNL1        0.1764
     12 C          22.7624   71.8372   -0.7252 C.3     1  UNL1        0.2383
     13 H          23.2476   69.6422   -3.3434 H       1  UNL1        0.2105
     14 H          21.1248   69.2799   -1.9636 H       1  UNL1        0.2106
     15 O          22.4696   70.2981    1.6249 O.2     1  UNL1       -0.2464
     16 O          20.3149   73.7287    3.8224 O.2     1  UNL1       -0.2670
     17 N          22.1292   72.3034    0.4761 N.ar    1  UNL1       -0.2551
     18 N          21.3971   72.0076    2.7173 N.ar    1  UNL1       -0.2743
     19 C          22.0330   71.4506    1.6004 C.ar    1  UNL1        0.3323
     20 C          21.6122   73.5932    0.5313 C.ar    1  UNL1        0.0869
     21 C          21.0076   74.1088    1.6036 C.ar    1  UNL1        0.0795
     22 C          20.8658   73.2834    2.8204 C.ar    1  UNL1        0.2626
     23 H          21.3182   71.4317    3.5122 H       1  UNL1        0.1734
     24 O          20.4011   73.5797   -6.7597 O.3     1  UNL1       -0.2703
     25 P          20.3672   73.4511   -8.3707 P.3     1  UNL1        0.2208
     26 O          21.5843   74.4057   -8.8449 O.co2   1  UNL1       -0.4371
     27 O          19.0402   73.7874   -8.9870 O.2     1  UNL1       -0.5170
     28 O          20.8839   71.9520   -8.6718 O.3     1  UNL1       -0.2858
     29 O          19.8962   70.2831   -7.3093 O.3     1  UNL1       -0.3258
     30 O          16.4791   72.2773   -8.4916 O.3     1  UNL1       -0.3794
     31 O          17.4193   72.5528   -5.7919 O.3     1  UNL1       -0.3794
     32 O          18.6493   71.8935  -10.3684 O.3     1  UNL1       -0.3775
     33 C          17.8526   72.1585   -8.1109 C.3     1  UNL1        0.1715
     34 C          17.9099   71.5702   -6.6997 C.3     1  UNL1        0.1694
     35 C          18.5685   71.2448   -9.1038 C.3     1  UNL1        0.1967
     36 C          19.3422   71.1652   -6.3261 C.3     1  UNL1        0.1761
     37 C          19.9663   70.8629   -8.6135 C.3     1  UNL1        0.2704
     38 H          16.0189   72.8567   -7.8654 H       1  UNL1        0.2105
     39 H          16.5144   72.8001   -6.0392 H       1  UNL1        0.2105
     40 H          17.7581   72.1298  -10.6679 H       1  UNL1        0.2106
     41 O          18.2113   69.6764   -4.8385 O.3     1  UNL1       -0.3794
     42 C          19.3987   70.4328   -4.9873 C.3     1  UNL1        0.1693
     43 H          18.2333   69.2045   -3.9908 H       1  UNL1        0.2105
@<TRIPOS>UNITY_ATOM_ATTR
2 1
charge -1
26 1
charge -1
@<TRIPOS>BOND
     1    25    28    1
     2    25    24    1
     3    25    26    1
     4    25    27    2
     5     1     4    1
     6     1    24    1
     7     1     2    1
     8     1     3    2
     9     6    11    1
    10     6    12    1
    11    29    36    1
    12    29    37    1
    13     7     9    1
    14     7    13    1
    15     8    10    1
    16     8    14    1
    17    28    37    1
    18     4     5    1
    19    30    33    1
    20    30    38    1
    21    31    34    1
    22    31    39    1
    23    32    35    1
    24    32    40    1
    25    41    42    1
    26    41    43    1
    27    15    19    2
    28    16    22    2
    29    17    12    1
    30    17    19   ar
    31    17    20   ar
    32    18    19   ar
    33    18    22   ar
    34    18    23    1
    35     9    10    1
    36     9    11    1
    37    10    12    1
    38    11     5    1
    39    33    34    1
    40    33    35    1
    41    34    36    1
    42    35    37    1
    43    36    42    1
    44    20    21   ar
    45    21    22   ar
@<TRIPOS>MOLECULE
*****
 43 45 0 0 0
SMALL
GASTEIGER

@<TRIPOS>ATOM
      1 P          21.7504   73.2417   -4.9240 P.3     1  UNL1        0.2189
      2 O          21.8662   74.7842   -4.4500 O.co2   1  UNL1       -0.4371
      3 O          22.9689   72.6959   -5.6087 O.2     1  UNL1       -0.5170
      4 O          20.3824   73.2023   -5.7871 O.3     1  UNL1       -0.3112
      5 C          19.9525   71.9601   -6.3163 C.3     1  UNL1        0.1811
      6 O          17.7972   72.8865   -5.7964 O.3     1  UNL1       -0.3308
      7 O          16.7744   70.0690   -5.8783 O.3     1  UNL1       -0.3794
      8 O          16.0074   71.0506   -8.3042 O.3     1  UNL1       -0.3779
      9 C          17.7796   70.6876   -6.6798 C.3     1  UNL1        0.1713
     10 C          17.1459   71.6201   -7.6909 C.3     1  UNL1        0.1895
     11 C          18.5545   71.6565   -5.7954 C.3     1  UNL1        0.1764
     12 C          16.8060   72.8286   -6.8352 C.3     1  UNL1        0.2383
     13 H          16.2664   69.4454   -6.4215 H       1  UNL1        0.2105
     14 H          16.2755   70.2859   -8.8371 H       1  UNL1        0.2106
     15 O          14.7451   73.7082   -8.5548 O.2     1  UNL1       -0.2464
     16 O          17.0459   77.5494   -9.6469 O.2     1  UNL1       -0.2670
     17 N          16.8401   74.0549   -7.5811 N.ar    1  UNL1       -0.2551
     18 N          15.8924   75.6202   -9.0971 N.ar    1  UNL1       -0.2743
     19 C          15.7537   74.4035   -8.4171 C.ar    1  UNL1        0.3323
     20 C          17.9417   74.8975   -7.4794 C.ar    1  UNL1        0.0869
     21 C          18.0590   76.0538   -8.1355 C.ar    1  UNL1        0.0795
     22 C          16.9679   76.4916   -9.0298 C.ar    1  UNL1        0.2626
     23 H          15.1480   75.8834   -9.6856 H       1  UNL1        0.1734
     24 O          21.3429   72.4725   -3.5619 O.3     1  UNL1       -0.2703
     25 P          21.7171   70.9945   -3.0248 P.3     1  UNL1        0.2208
     26 O          23.3203   70.9204   -3.2288 O.co2   1  UNL1       -0.4371
     27 O          20.9560   69.8861   -3.6927 O.2     1  UNL1       -0.5170
     28 O          21.5130   71.0771   -1.4259 O.3     1  UNL1       -0.2858
     29 O          23.0525   72.7091   -0.6624 O.3     1  UNL1       -0.3258
     30 O          21.3840   71.6313    2.9578 O.3     1  UNL1       -0.3794
     31 O          20.7411   74.1811    1.8032 O.3     1  UNL1       -0.3794
     32 O          21.8837   69.6157    0.9410 O.3     1  UNL1       -0.3775
     33 C          21.3890   71.8925    1.5516 C.3     1  UNL1        0.1715
     34 C          21.8003   73.3503    1.3362 C.3     1  UNL1        0.1694
     35 C          22.3792   70.9485    0.8721 C.3     1  UNL1        0.1967
     36 C          22.0870   73.6319   -0.1449 C.3     1  UNL1        0.1761
     37 C          22.6307   71.3461   -0.5835 C.3     1  UNL1        0.2704
     38 H          20.7569   72.2271    3.3951 H       1  UNL1        0.2105
     39 H          20.5697   73.9931    2.7394 H       1  UNL1        0.2105
     40 H          21.7289   69.3759    1.8675 H       1  UNL1        0.2106
     41 O          21.5847   75.9639   -0.2814 O.3     1  UNL1       -0.3794
     42 C          22.6499   75.0348   -0.3618 C.3     1  UNL1        0.1693
     43 H          21.9282   76.8613   -0.4172 H       1  UNL1        0.2105
@<TRIPOS>UNITY_ATOM_ATTR
2 1
charge -1
26 1
charge -1
@<TRIPOS>BOND
     1    25    28    1
     2    25    24    1
     3    25    26    1
     4    25    27    2
     5     1     4    1
     6     1    24    1
     7     1     2    1
     8     1     3    2
     9     6    11    1
    10     6    12    1
    11    29    36    1
    12    29    37    1
    13     7     9    1
    14     7    13    1
    15     8    10    1
    16     8    14    1
    17    28    37    1
    18     4     5    1
    19    30    33    1
    20    30    38    1
    21    31    34    1
    22    31    39    1
    23    32    35    1
    24    32    40    1
    25    41    42    1
    26    41    43    1
    27    15    19    2
    28    16    22    2
    29    17    12    1
    30    17    19   ar
    31    17    20   ar
    32    18    19   ar
    33    18    22   ar
    34    18    23    1
    35     9    10    1
    36     9    11    1
    37    10    12    1
    38    11     5    1
    39    33    34    1
    40    33    35    1
    41    34    36    1
    42    35    37    1
    43    36    42    1
    44    20    21   ar
    45    21    22   ar
@<TRIPOS>MOLECULE
*****
 43 45 0 0 0
SMALL
GASTEIGER

@<TRIPOS>ATOM
      1 P          21.9241   74.8238   -5.8082 P.3     1  UNL1        0.2189
      2 O          22.5269   76.3248   -5.8377 O.co2   1  UNL1       -0.4371
      3 O          20.4445   74.7395   -5.5736 O.2     1  UNL1       -0.5170
      4 O          22.8516   74.0539   -4.7288 O.3     1  UNL1       -0.3112
      5 C          22.5576   72.7009   -4.4277 C.3     1  UNL1        0.1811
      6 O          20.5931   72.5758   -3.0497 O.3     1  UNL1       -0.3308
      7 O          22.4080   71.5874   -0.8772 O.3     1  UNL1       -0.3794
      8 O          21.2569   69.2870   -1.7826 O.3     1  UNL1       -0.3779
      9 C          22.4624   71.3388   -2.2809 C.3     1  UNL1        0.1713
     10 C          21.3729   70.3677   -2.6855 C.3     1  UNL1        0.1895
     11 C          22.0361   72.6126   -3.0000 C.3     1  UNL1        0.1764
     12 C          20.1427   71.2591   -2.6917 C.3     1  UNL1        0.2383
     13 H          22.6763   70.7880   -0.3967 H       1  UNL1        0.2105
     14 H          22.0639   68.7499   -1.8155 H       1  UNL1        0.2106
     15 O          18.4265   69.0463   -2.3222 O.2     1  UNL1       -0.2464
     16 O          16.4073   69.6964   -6.4138 O.2     1  UNL1       -0.2670
     17 N          19.1586   70.8278   -3.6441 N.ar    1  UNL1       -0.2551
     18 N          17.4224   69.3719   -4.3597 N.ar    1  UNL1       -0.2743
     19 C          18.3480   69.7037   -3.3621 C.ar    1  UNL1        0.3323
     20 C          19.0048   71.5172   -4.8420 C.ar    1  UNL1        0.0869
     21 C          18.1183   71.1873   -5.7835 C.ar    1  UNL1        0.0795
     22 C          17.2325   70.0251   -5.5671 C.ar    1  UNL1        0.2626
     23 H          16.8470   68.5920   -4.1853 H       1  UNL1        0.1734
     24 O          22.4181   74.2060   -7.2179 O.3     1  UNL1       -0.2703
     25 P          21.7128   74.1831   -8.6722 P.3     1  UNL1        0.2208
     26 O          20.5552   75.3056   -8.5408 O.co2   1  UNL1       -0.4371
     27 O          21.2184   72.8301   -9.0951 O.2     1  UNL1       -0.5170
     28 O          22.8039   74.8371   -9.6656 O.3     1  UNL1       -0.2858
     29 O          24.1468   73.6574  -11.2217 O.3     1  UNL1       -0.3258
     30 O          26.7063   76.7867  -10.3805 O.3     1  UNL1       -0.3794
     31 O          25.3764   76.6871  -12.9240 O.3     1  UNL1       -0.3794
     32 O          25.1074   75.6210   -8.2676 O.3     1  UNL1       -0.3775
     33 C          25.4370   76.1621  -10.5913 C.3     1  UNL1        0.1715
     34 C          25.4124   75.5934  -12.0114 C.3     1  UNL1        0.1694
     35 C          25.2519   75.0481   -9.5627 C.3     1  UNL1        0.1967
     36 C          24.1962   74.6815  -12.2220 C.3     1  UNL1        0.1761
     37 C          24.0431   74.1704   -9.8921 C.3     1  UNL1        0.2704
     38 H          26.8299   77.4953  -11.0301 H       1  UNL1        0.2105
     39 H          26.1495   77.2553  -12.7803 H       1  UNL1        0.2105
     40 H          25.8790   76.1739   -8.0708 H       1  UNL1        0.2106
     41 O          23.7267   72.6679  -13.4194 O.3     1  UNL1       -0.3794
     42 C          24.2355   73.9795  -13.5776 C.3     1  UNL1        0.1693
     43 H          23.7454   72.2092  -14.2743 H       1  UNL1        0.2105
@<TRIPOS>UNITY_ATOM_ATTR
2 1
charge -1
26 1
charge -1
@<TRIPOS>BOND
     1    25    28    1
     2    25    24    1
     3    25    26    1
     4    25    27    2
     5     1     4    1
     6     1    24    1
     7     1     2    1
     8     1     3    2
     9     6    11    1
    10     6    12    1
    11    29    36    1
    12    29    37    1
    13     7     9    1
    14     7    13    1
    15     8    10    1
    16     8    14    1
    17    28    37    1
    18     4     5    1
    19    30    33    1
    20    30    38    1
    21    31    34    1
    22    31    39    1
    23    32    35    1
    24    32    40    1
    25    41    42    1
    26    41    43    1
    27    15    19    2
    28    16    22    2
    29    17    12    1
    30    17    19   ar
    31    17    20   ar
    32    18    19   ar
    33    18    22   ar
    34    18    23    1
    35     9    10    1
    36     9    11    1
    37    10    12    1
    38    11     5    1
    39    33    34    1
    40    33    35    1
    41    34    36    1
    42    35    37    1
    43    36    42    1
    44    20    21   ar
    45    21    22   ar
@<TRIPOS>MOLECULE
*****
 43 45 0 0 0
SMALL
GASTEIGER

@<TRIPOS>ATOM
      1 P          22.7882   72.1079   -3.3865 P.3     1  UNL1        0.2189
      2 O          23.3403   70.5994   -3.1940 O.co2   1  UNL1       -0.4371
      3 O          23.8301   73.1825   -3.2808 O.2     1  UNL1       -0.5170
      4 O          21.5636   72.2106   -2.3339 O.3     1  UNL1       -0.3112
      5 C          21.7396   72.9939   -1.1663 C.3     1  UNL1        0.1811
      6 O          23.2285   73.0714    0.7180 O.3     1  UNL1       -0.3308
      7 O          22.2678   70.3029    1.3533 O.3     1  UNL1       -0.3794
      8 O          20.8486   71.8406    3.1020 O.3     1  UNL1       -0.3779
      9 C          21.5440   71.4073    0.8130 C.3     1  UNL1        0.1713
     10 C          21.2703   72.4348    1.8914 C.3     1  UNL1        0.1895
     11 C          22.4769   72.1677   -0.1214 C.3     1  UNL1        0.1764
     12 C          22.6174   73.1258    2.0174 C.3     1  UNL1        0.2383
     13 H          21.6924   69.8019    1.9531 H       1  UNL1        0.2105
     14 H          19.9874   71.4143    2.9704 H       1  UNL1        0.2106
     15 O          24.5620   74.5379    3.5015 O.2     1  UNL1       -0.2464
     16 O          22.0332   78.3910    3.4957 O.2     1  UNL1       -0.2670
     17 N          22.4932   74.4992    2.4172 N.ar    1  UNL1       -0.2551
     18 N          23.3013   76.4554    3.4973 N.ar    1  UNL1       -0.2743
     19 C          23.5267   75.1143    3.1614 C.ar    1  UNL1        0.3323
     20 C          21.3565   75.2215    2.0710 C.ar    1  UNL1        0.0869
     21 C          21.1562   76.4994    2.4002 C.ar    1  UNL1        0.0795
     22 C          22.1878   77.2159    3.1776 C.ar    1  UNL1        0.2626
     23 H          24.0077   76.9045    4.0161 H       1  UNL1        0.1734
     24 O          22.0347   72.0396   -4.8149 O.3     1  UNL1       -0.2703
     25 P          21.7255   73.1896   -5.9081 P.3     1  UNL1        0.2208
     26 O          22.7656   72.8562   -7.1016 O.co2   1  UNL1       -0.4371
     27 O          21.8240   74.5891   -5.3736 O.2     1  UNL1       -0.5170
     28 O          20.2781   72.8035   -6.5090 O.3     1  UNL1       -0.2858
     29 O          19.1871   70.7640   -7.0253 O.3     1  UNL1       -0.3258
     30 O          18.1600   72.9312  -10.3868 O.3     1  UNL1       -0.3794
     31 O          16.1664   72.3712   -8.3968 O.3     1  UNL1       -0.3794
     32 O          20.8002   73.2177   -9.2349 O.3     1  UNL1       -0.3775
     33 C          18.4517   72.7376   -9.0001 C.3     1  UNL1        0.1715
     34 C          17.4422   71.7377   -8.4327 C.3     1  UNL1        0.1694
     35 C          19.8755   72.2026   -8.8594 C.3     1  UNL1        0.1967
     36 C          17.8495   71.2766   -7.0268 C.3     1  UNL1        0.1761
     37 C          20.1615   71.7258   -7.4343 C.3     1  UNL1        0.2704
     38 H          17.2575   73.2713  -10.4830 H       1  UNL1        0.2105
     39 H          15.9212   72.6580   -9.2906 H       1  UNL1        0.2105
     40 H          20.6088   73.5109  -10.1390 H       1  UNL1        0.2106
     41 O          16.8451   70.2854   -5.0987 O.3     1  UNL1       -0.3794
     42 C          16.9443   70.1626   -6.5056 C.3     1  UNL1        0.1693
     43 H          16.2716   69.5830   -4.7531 H       1  UNL1        0.2105
@<TRIPOS>UNITY_ATOM_ATTR
2 1
charge -1
26 1
charge -1
@<TRIPOS>BOND
     1    25    28    1
     2    25    24    1
     3    25    26    1
     4    25    27    2
     5     1     4    1
     6     1    24    1
     7     1     2    1
     8     1     3    2
     9     6    11    1
    10     6    12    1
    11    29    36    1
    12    29    37    1
    13     7     9    1
    14     7    13    1
    15     8    10    1
    16     8    14    1
    17    28    37    1
    18     4     5    1
    19    30    33    1
    20    30    38    1
    21    31    34    1
    22    31    39    1
    23    32    35    1
    24    32    40    1
    25    41    42    1
    26    41    43    1
    27    15    19    2
    28    16    22    2
    29    17    12    1
    30    17    19   ar
    31    17    20   ar
    32    18    19   ar
    33    18    22   ar
    34    18    23    1
    35     9    10    1
    36     9    11    1
    37    10    12    1
    38    11     5    1
    39    33    34    1
    40    33    35    1
    41    34    36    1
    42    35    37    1
    43    36    42    1
    44    20    21   ar
    45    21    22   ar
@<TRIPOS>MOLECULE
*****
 43 45 0 0 0
SMALL
GASTEIGER

@<TRIPOS>ATOM
      1 P          19.7684   70.5031   -3.7582 P.3     1  UNL1        0.2189
      2 O          20.3659   69.1070   -3.2002 O.co2   1  UNL1       -0.4371
      3 O          18.7078   71.1268   -2.8994 O.2     1  UNL1       -0.5170
      4 O          19.3301   70.1586   -5.2771 O.3     1  UNL1       -0.3112
      5 C          19.5137   71.1480   -6.2747 C.3     1  UNL1        0.1811
      6 O          17.3565   70.8976   -7.3029 O.3     1  UNL1       -0.3308
      7 O          18.8197   70.8233   -9.9190 O.3     1  UNL1       -0.3794
      8 O          17.8799   73.3820   -9.8360 O.3     1  UNL1       -0.3779
      9 C          19.1045   71.5858   -8.7473 C.3     1  UNL1        0.1713
     10 C          18.1158   72.7244   -8.6077 C.3     1  UNL1        0.1895
     11 C          18.7716   70.7250   -7.5350 C.3     1  UNL1        0.1764
     12 C          16.8833   72.0088   -8.0814 C.3     1  UNL1        0.2383
     13 H          19.0248   71.3523  -10.7065 H       1  UNL1        0.2105
     14 H          18.6932   73.8217  -10.1290 H       1  UNL1        0.2106
     15 O          14.9793   73.8574   -9.0487 O.2     1  UNL1       -0.2464
     16 O          13.8403   75.1928   -4.7871 O.2     1  UNL1       -0.2670
     17 N          16.0749   72.8522   -7.2468 N.ar    1  UNL1       -0.2551
     18 N          14.4136   74.5207   -6.9260 N.ar    1  UNL1       -0.2743
     19 C          15.1492   73.7469   -7.8327 C.ar    1  UNL1        0.3323
     20 C          16.2039   72.7870   -5.8637 C.ar    1  UNL1        0.0869
     21 C          15.4958   73.5327   -5.0129 C.ar    1  UNL1        0.0795
     22 C          14.5068   74.4930   -5.5435 C.ar    1  UNL1        0.2626
     23 H          13.7629   75.1514   -7.3113 H       1  UNL1        0.1734
     24 O          21.0913   71.4102   -3.9586 O.3     1  UNL1       -0.2703
     25 P          22.4275   71.5518   -3.0600 P.3     1  UNL1        0.2208
     26 O          22.9357   73.0531   -3.3848 O.co2   1  UNL1       -0.4371
     27 O          23.4526   70.4836   -3.3091 O.2     1  UNL1       -0.5170
     28 O          21.8915   71.6230   -1.5393 O.3     1  UNL1       -0.2858
     29 O          23.4083   72.9369   -0.2786 O.3     1  UNL1       -0.3258
     30 O          20.8815   71.7460    2.7624 O.3     1  UNL1       -0.3794
     31 O          20.8051   74.4641    1.8380 O.3     1  UNL1       -0.3794
     32 O          21.5682   69.8934    0.6468 O.3     1  UNL1       -0.3775
     33 C          21.2213   72.1441    1.4315 C.3     1  UNL1        0.1715
     34 C          21.8363   73.5437    1.4917 C.3     1  UNL1        0.1694
     35 C          22.2184   71.1433    0.8504 C.3     1  UNL1        0.1967
     36 C          22.4677   73.9297    0.1473 C.3     1  UNL1        0.1761
     37 C          22.8237   71.6459   -0.4615 C.3     1  UNL1        0.2704
     38 H          20.2483   72.3771    3.1370 H       1  UNL1        0.2105
     39 H          20.4144   74.2087    2.6885 H       1  UNL1        0.2105
     40 H          21.1895   69.5858    1.4846 H       1  UNL1        0.2106
     41 O          24.5974   75.0026   -0.0018 O.3     1  UNL1       -0.3794
     42 C          23.2236   75.2541    0.2298 C.3     1  UNL1        0.1693
     43 H          25.0910   75.8367    0.0473 H       1  UNL1        0.2105
@<TRIPOS>UNITY_ATOM_ATTR
2 1
charge -1
26 1
charge -1
@<TRIPOS>BOND
     1    25    28    1
     2    25    24    1
     3    25    26    1
     4    25    27    2
     5     1     4    1
     6     1    24    1
     7     1     2    1
     8     1     3    2
     9     6    11    1
    10     6    12    1
    11    29    36    1
    12    29    37    1
    13     7     9    1
    14     7    13    1
    15     8    10    1
    16     8    14    1
    17    28    37    1
    18     4     5    1
    19    30    33    1
    20    30    38    1
    21    31    34    1
    22    31    39    1
    23    32    35    1
    24    32    40    1
    25    41    42    1
    26    41    43    1
    27    15    19    2
    28    16    22    2
    29    17    12    1
    30    17    19   ar
    31    17    20   ar
    32    18    19   ar
    33    18    22   ar
    34    18    23    1
    35     9    10    1
    36     9    11    1
    37    10    12    1
    38    11     5    1
    39    33    34    1
    40    33    35    1
    41    34    36    1
    42    35    37    1
    43    36    42    1
    44    20    21   ar
    45    21    22   ar
@<TRIPOS>MOLECULE
*****
 43 45 0 0 0
SMALL
GASTEIGER

@<TRIPOS>ATOM
      1 P          18.9517   70.1866   -3.2697 P.3     1  UNL1        0.2189
      2 O          18.4654   68.8564   -2.4876 O.co2   1  UNL1       -0.4371
      3 O          18.4978   71.4810   -2.6615 O.2     1  UNL1       -0.5170
      4 O          18.4901   69.9287   -4.7988 O.3     1  UNL1       -0.3112
      5 C          19.1370   70.6518   -5.8315 C.3     1  UNL1        0.1811
      6 O          18.6790   72.8579   -6.6664 O.3     1  UNL1       -0.3308
      7 O          16.5072   71.5869   -8.2970 O.3     1  UNL1       -0.3794
      8 O          18.5111   71.9030  -10.1193 O.3     1  UNL1       -0.3779
      9 C          17.7924   71.0739   -7.9497 C.3     1  UNL1        0.1713
     10 C          18.8702   71.7635   -8.7598 C.3     1  UNL1        0.1895
     11 C          18.1147   71.5349   -6.5338 C.3     1  UNL1        0.1764
     12 C          18.9933   73.0998   -8.0475 C.3     1  UNL1        0.2383
     13 H          16.2794   71.3052   -9.1973 H       1  UNL1        0.2105
     14 H          18.4456   71.0260  -10.5282 H       1  UNL1        0.2106
     15 O          21.3620   71.5617   -8.0065 O.2     1  UNL1       -0.2464
     16 O          24.0189   75.3080   -8.3897 O.2     1  UNL1       -0.2670
     17 N          20.3177   73.6473   -8.1354 N.ar    1  UNL1       -0.2551
     18 N          22.6830   73.4283   -8.1975 N.ar    1  UNL1       -0.2743
     19 C          21.4406   72.7880   -8.1047 C.ar    1  UNL1        0.3323
     20 C          20.4929   75.0220   -8.2508 C.ar    1  UNL1        0.0869
     21 C          21.6845   75.6171   -8.3370 C.ar    1  UNL1        0.0795
     22 C          22.9087   74.7908   -8.3124 C.ar    1  UNL1        0.2626
     23 H          23.4796   72.8497   -8.1778 H       1  UNL1        0.1734
     24 O          20.5561   70.0017   -3.3384 O.3     1  UNL1       -0.2703
     25 P          21.7584   71.0222   -2.9836 P.3     1  UNL1        0.2208
     26 O          21.3648   72.3592   -3.8052 O.co2   1  UNL1       -0.4371
     27 O          23.1283   70.4889   -3.2884 O.2     1  UNL1       -0.5170
     28 O          21.5211   71.4106   -1.4351 O.3     1  UNL1       -0.2858
     29 O          23.1817   72.8330   -0.5211 O.3     1  UNL1       -0.3258
     30 O          21.3268   71.6532    2.9744 O.3     1  UNL1       -0.3794
     31 O          20.9489   74.3289    2.0020 O.3     1  UNL1       -0.3794
     32 O          21.6947   69.7525    0.8222 O.3     1  UNL1       -0.3775
     33 C          21.3928   72.0146    1.5922 C.3     1  UNL1        0.1715
     34 C          21.9404   73.4400    1.4949 C.3     1  UNL1        0.1694
     35 C          22.3108   71.0351    0.8634 C.3     1  UNL1        0.1967
     36 C          22.2906   73.8011    0.0451 C.3     1  UNL1        0.1761
     37 C          22.6359   71.5128   -0.5531 C.3     1  UNL1        0.2704
     38 H          20.7451   72.2710    3.4428 H       1  UNL1        0.2105
     39 H          20.7365   74.0897    2.9178 H       1  UNL1        0.2105
     40 H          21.4942   69.4611    1.7249 H       1  UNL1        0.2106
     41 O          23.5340   75.4758    1.2105 O.3     1  UNL1       -0.3794
     42 C          22.9842   75.1579   -0.0548 C.3     1  UNL1        0.1693
     43 H          23.9790   76.3368    1.1619 H       1  UNL1        0.2105
@<TRIPOS>UNITY_ATOM_ATTR
2 1
charge -1
26 1
charge -1
@<TRIPOS>BOND
     1    25    28    1
     2    25    24    1
     3    25    26    1
     4    25    27    2
     5     1     4    1
     6     1    24    1
     7     1     2    1
     8     1     3    2
     9     6    11    1
    10     6    12    1
    11    29    36    1
    12    29    37    1
    13     7     9    1
    14     7    13    1
    15     8    10    1
    16     8    14    1
    17    28    37    1
    18     4     5    1
    19    30    33    1
    20    30    38    1
    21    31    34    1
    22    31    39    1
    23    32    35    1
    24    32    40    1
    25    41    42    1
    26    41    43    1
    27    15    19    2
    28    16    22    2
    29    17    12    1
    30    17    19   ar
    31    17    20   ar
    32    18    19   ar
    33    18    22   ar
    34    18    23    1
    35     9    10    1
    36     9    11    1
    37    10    12    1
    38    11     5    1
    39    33    34    1
    40    33    35    1
    41    34    36    1
    42    35    37    1
    43    36    42    1
    44    20    21   ar
    45    21    22   ar
