@<TRIPOS>MOLECULE
GDU
 43 45 0 0 0
SMALL
GASTEIGER

@<TRIPOS>ATOM
      1 P          20.8922   71.7679   -2.1164 P.3     1  UNL1        0.2189
      2 O          21.6308   70.5995   -2.6445 O.2     1  UNL1       -0.5170
      3 O          21.8073   73.0862   -2.2496 O.3     1  UNL1       -0.4371
      4 O          19.5352   71.9697   -2.9557 O.3     1  UNL1       -0.3112
      5 C          18.5676   71.0786   -2.3986 C.3     1  UNL1        0.1811
      6 C          16.9749   70.6434   -5.5925 C.3     1  UNL1        0.2383
      7 C          17.0159   69.2196   -4.9809 C.3     1  UNL1        0.1895
      8 O          15.9030   68.4410   -5.4264 O.3     1  UNL1       -0.3779
      9 C          16.9115   69.5153   -3.4621 C.3     1  UNL1        0.1713
     10 C          17.3615   70.9825   -3.3346 C.3     1  UNL1        0.1764
     11 O          17.7262   71.4369   -4.6494 O.3     1  UNL1       -0.3308
     12 O          15.5639   69.3576   -3.0139 O.3     1  UNL1       -0.3794
     13 H          15.9877   67.5709   -5.0121 H       1  UNL1        0.2106
     14 H          15.3216   68.4354   -3.1739 H       1  UNL1        0.2105
     15 N          17.6168   70.6608   -6.9080 N.ar    1  UNL1       -0.2551
     16 C          16.8711   70.5047   -8.0160 C.ar    1  UNL1        0.3323
     17 N          17.4360   70.5202   -9.2377 N.ar    1  UNL1       -0.2743
     18 C          18.7665   70.6836   -9.3695 C.ar    1  UNL1        0.2626
     19 C          19.5654   70.8434   -8.2108 C.ar    1  UNL1        0.0795
     20 C          18.9726   70.8281   -6.9981 C.ar    1  UNL1        0.0869
     21 O          15.6696   70.3568   -7.9129 O.2     1  UNL1       -0.2464
     22 O          19.2794   70.6930  -10.4747 O.2     1  UNL1       -0.2670
     23 H          16.8820   70.4104  -10.0268 H       1  UNL1        0.1734
     24 O          20.5341   71.5193   -0.5664 O.3     1  UNL1       -0.2703
     25 P          21.9240   71.2370    0.1942 P.3     1  UNL1        0.2208
     26 O          21.7734   70.0578    1.0750 O.2     1  UNL1       -0.5170
     27 O          23.0805   70.9521   -0.8900 O.3     1  UNL1       -0.4371
     28 O          22.3236   72.5210    1.0783 O.3     1  UNL1       -0.2858
     29 C          22.6565   72.0403    2.3813 C.3     1  UNL1        0.2704
     30 C          21.7042   72.6537    3.4090 C.3     1  UNL1        0.1967
     31 C          21.8219   74.1798    3.3492 C.3     1  UNL1        0.1715
     32 C          23.2964   74.5644    3.5151 C.3     1  UNL1        0.1694
     33 C          24.1283   73.8070    2.4772 C.3     1  UNL1        0.1761
     34 O          20.3625   72.2636    3.1109 O.3     1  UNL1       -0.3775
     35 O          21.0499   74.7625    4.4013 O.3     1  UNL1       -0.3794
     36 O          23.7350   74.2198    4.8300 O.3     1  UNL1       -0.3794
     37 O          24.0005   72.4019    2.6904 O.3     1  UNL1       -0.3258
     38 H          20.3369   71.2979    3.1529 H       1  UNL1        0.2106
     39 H          20.1353   74.4851    4.2639 H       1  UNL1        0.2105
     40 H          23.1813   74.7141    5.4483 H       1  UNL1        0.2105
     41 C          25.5984   74.2100    2.6118 C.3     1  UNL1        0.1693
     42 O          26.4034   73.0365    2.7388 O.3     1  UNL1       -0.3794
     43 H          27.3202   73.3335    2.8202 H       1  UNL1        0.2105
@<TRIPOS>BOND
     1    15    16   ar
     2    15    20   ar
     3    15     6    1
     4    16    17   ar
     5    16    21    2
     6    17    18   ar
     7    17    23    1
     8    18    19   ar
     9    18    22    2
    10    19    20   ar
    11     6     7    1
    12     6    11    1
    13     7     8    1
    14     7     9    1
    15     8    13    1
    16     9    10    1
    17     9    12    1
    18    10    11    1
    19    10     5    1
    20    12    14    1
    21     5     4    1
    22     4     1    1
    23     1     2    2
    24     1     3    1
    25     1    24    1
    26    24    25    1
    27    25    26    2
    28    25    27    1
    29    25    28    1
    30    28    29    1
    31    29    30    1
    32    29    37    1
    33    30    31    1
    34    30    34    1
    35    31    32    1
    36    31    35    1
    37    32    33    1
    38    32    36    1
    39    33    41    1
    40    33    37    1
    41    41    42    1
    42    34    38    1
    43    35    39    1
    44    36    40    1
    45    42    43    1
@<TRIPOS>MOLECULE
GDU
 43 45 0 0 0
SMALL
GASTEIGER

@<TRIPOS>ATOM
      1 P          20.7254   71.9704   -1.5729 P.3     1  UNL1        0.2189
      2 O          19.9410   72.7094   -0.5589 O.2     1  UNL1       -0.5170
      3 O          21.2726   70.5980   -0.9325 O.3     1  UNL1       -0.4371
      4 O          19.7894   71.6367   -2.8375 O.3     1  UNL1       -0.3112
      5 C          18.8032   70.7060   -2.3883 C.3     1  UNL1        0.1811
      6 C          17.1133   70.5737   -5.5591 C.3     1  UNL1        0.2383
      7 C          17.0071   69.1314   -5.0011 C.3     1  UNL1        0.1895
      8 O          15.8065   68.4984   -5.4494 O.3     1  UNL1       -0.3779
      9 C          16.9643   69.3776   -3.4705 C.3     1  UNL1        0.1713
     10 C          17.5768   70.7801   -3.2997 C.3     1  UNL1        0.1764
     11 O          17.9655   71.2422   -4.6049 O.3     1  UNL1       -0.3308
     12 O          15.6159   69.3523   -2.9979 O.3     1  UNL1       -0.3794
     13 H          15.8016   67.6088   -5.0693 H       1  UNL1        0.2106
     14 H          15.2697   68.4694   -3.1861 H       1  UNL1        0.2105
     15 N          17.7288   70.5713   -6.8873 N.ar    1  UNL1       -0.2551
     16 C          16.9534   70.4712   -7.9814 C.ar    1  UNL1        0.3323
     17 N          17.4939   70.4701   -9.2142 N.ar    1  UNL1       -0.2743
     18 C          18.8285   70.5599   -9.3716 C.ar    1  UNL1        0.2626
     19 C          19.6581   70.6600   -8.2279 C.ar    1  UNL1        0.0795
     20 C          19.0898   70.6631   -7.0034 C.ar    1  UNL1        0.0869
     21 O          15.7478   70.3901   -7.8552 O.2     1  UNL1       -0.2464
     22 O          19.3190   70.5541  -10.4869 O.2     1  UNL1       -0.2670
     23 H          16.9188   70.4015   -9.9929 H       1  UNL1        0.1734
     24 O          21.9710   72.8729   -2.0488 O.3     1  UNL1       -0.2703
     25 P          22.4979   72.2474   -3.4348 P.3     1  UNL1        0.2208
     26 O          23.8432   71.6655   -3.2332 O.2     1  UNL1       -0.5170
     27 O          21.4835   71.0958   -3.9235 O.3     1  UNL1       -0.4371
     28 O          22.5739   73.4033   -4.5520 O.3     1  UNL1       -0.2858
     29 C          21.5318   73.1405   -5.4925 C.3     1  UNL1        0.2704
     30 C          22.0987   73.2046   -6.9116 C.3     1  UNL1        0.1967
     31 C          22.7010   74.5935   -7.1457 C.3     1  UNL1        0.1715
     32 C          21.6390   75.6495   -6.8192 C.3     1  UNL1        0.1694
     33 C          21.1081   75.4009   -5.4052 C.3     1  UNL1        0.1761
     34 O          23.1118   72.2094   -7.0677 O.3     1  UNL1       -0.3775
     35 O          23.1022   74.7188   -8.5117 O.3     1  UNL1       -0.3794
     36 O          20.5683   75.5571   -7.7599 O.3     1  UNL1       -0.3794
     37 O          20.4996   74.1120   -5.3392 O.3     1  UNL1       -0.3258
     38 H          22.6905   71.3545   -6.9048 H       1  UNL1        0.2106
     39 H          23.7590   74.0302   -8.6748 H       1  UNL1        0.2105
     40 H          20.9491   75.7143   -8.6338 H       1  UNL1        0.2105
     41 C          20.0712   76.4710   -5.0562 C.3     1  UNL1        0.1693
     42 O          18.8250   76.1451   -5.6740 O.3     1  UNL1       -0.3794
     43 H          18.2006   76.8418   -5.4292 H       1  UNL1        0.2105
@<TRIPOS>BOND
     1    15    16   ar
     2    15    20   ar
     3    15     6    1
     4    16    17   ar
     5    16    21    2
     6    17    18   ar
     7    17    23    1
     8    18    19   ar
     9    18    22    2
    10    19    20   ar
    11     6     7    1
    12     6    11    1
    13     7     8    1
    14     7     9    1
    15     8    13    1
    16     9    10    1
    17     9    12    1
    18    10    11    1
    19    10     5    1
    20    12    14    1
    21     5     4    1
    22     4     1    1
    23     1     2    2
    24     1     3    1
    25     1    24    1
    26    24    25    1
    27    25    26    2
    28    25    27    1
    29    25    28    1
    30    28    29    1
    31    29    30    1
    32    29    37    1
    33    30    31    1
    34    30    34    1
    35    31    32    1
    36    31    35    1
    37    32    33    1
    38    32    36    1
    39    33    41    1
    40    33    37    1
    41    41    42    1
    42    34    38    1
    43    35    39    1
    44    36    40    1
    45    42    43    1
@<TRIPOS>MOLECULE
GDU
 43 45 0 0 0
SMALL
GASTEIGER

@<TRIPOS>ATOM
      1 P          20.9165   70.7915   -3.6063 P.3     1  UNL1        0.2189
      2 O          20.3761   69.5030   -4.0935 O.2     1  UNL1       -0.5170
      3 O          21.7939   71.4791   -4.7683 O.3     1  UNL1       -0.4371
      4 O          19.7016   71.7655   -3.2037 O.3     1  UNL1       -0.3112
      5 C          18.6982   70.9476   -2.5997 C.3     1  UNL1        0.1811
      6 C          17.0028   70.5654   -5.7472 C.3     1  UNL1        0.2383
      7 C          16.9961   69.1449   -5.1266 C.3     1  UNL1        0.1895
      8 O          15.8378   68.4147   -5.5368 O.3     1  UNL1       -0.3779
      9 C          16.9457   69.4542   -3.6077 C.3     1  UNL1        0.1713
     10 C          17.4644   70.9004   -3.5028 C.3     1  UNL1        0.1764
     11 O          17.8140   71.3299   -4.8301 O.3     1  UNL1       -0.3308
     12 O          15.6048   69.3603   -3.1229 O.3     1  UNL1       -0.3794
     13 H          15.8943   67.5442   -5.1186 H       1  UNL1        0.2106
     14 H          15.3170   68.4490   -3.2698 H       1  UNL1        0.2105
     15 N          17.6095   70.5458   -7.0792 N.ar    1  UNL1       -0.2551
     16 C          16.8247   70.4681   -8.1684 C.ar    1  UNL1        0.3323
     17 N          17.3570   70.4520   -9.4046 N.ar    1  UNL1       -0.2743
     18 C          18.6927   70.5038   -9.5705 C.ar    1  UNL1        0.2626
     19 C          19.5320   70.5801   -8.4321 C.ar    1  UNL1        0.0795
     20 C          18.9718   70.5990   -7.2040 C.ar    1  UNL1        0.0869
     21 O          15.6181   70.4211   -8.0345 O.2     1  UNL1       -0.2464
     22 O          19.1757   70.4844  -10.6889 O.2     1  UNL1       -0.2670
     23 H          16.7753   70.3998  -10.1796 H       1  UNL1        0.1734
     24 O          21.8458   70.5296   -2.3178 O.3     1  UNL1       -0.2703
     25 P          23.0387   71.6083   -2.3759 P.3     1  UNL1        0.2208
     26 O          24.2087   71.0132   -3.0587 O.2     1  UNL1       -0.5170
     27 O          22.5472   72.9084   -3.1895 O.3     1  UNL1       -0.4371
     28 O          23.4498   72.0366   -0.8800 O.3     1  UNL1       -0.2858
     29 C          22.7335   71.1784    0.0090 C.3     1  UNL1        0.2704
     30 C          21.6753   71.9900    0.7579 C.3     1  UNL1        0.1967
     31 C          22.3667   73.1159    1.5329 C.3     1  UNL1        0.1715
     32 C          23.4627   72.5040    2.4126 C.3     1  UNL1        0.1694
     33 C          24.3872   71.6544    1.5371 C.3     1  UNL1        0.1761
     34 O          20.7502   72.5483   -0.1769 O.3     1  UNL1       -0.3775
     35 O          21.4109   73.7915    2.3529 O.3     1  UNL1       -0.3794
     36 O          22.8658   71.6860    3.4199 O.3     1  UNL1       -0.3794
     37 O          23.6431   70.5942    0.9386 O.3     1  UNL1       -0.3258
     38 H          20.3451   71.8060   -0.6457 H       1  UNL1        0.2106
     39 H          20.7369   74.1487    1.7609 H       1  UNL1        0.2105
     40 H          22.2897   72.2599    3.9414 H       1  UNL1        0.2105
     41 C          25.5057   71.0662    2.4003 C.3     1  UNL1        0.1693
     42 O          25.1144   69.7751    2.8705 O.3     1  UNL1       -0.3794
     43 H          25.8450   69.4398    3.4081 H       1  UNL1        0.2105
@<TRIPOS>BOND
     1    15    16   ar
     2    15    20   ar
     3    15     6    1
     4    16    17   ar
     5    16    21    2
     6    17    18   ar
     7    17    23    1
     8    18    19   ar
     9    18    22    2
    10    19    20   ar
    11     6     7    1
    12     6    11    1
    13     7     8    1
    14     7     9    1
    15     8    13    1
    16     9    10    1
    17     9    12    1
    18    10    11    1
    19    10     5    1
    20    12    14    1
    21     5     4    1
    22     4     1    1
    23     1     2    2
    24     1     3    1
    25     1    24    1
    26    24    25    1
    27    25    26    2
    28    25    27    1
    29    25    28    1
    30    28    29    1
    31    29    30    1
    32    29    37    1
    33    30    31    1
    34    30    34    1
    35    31    32    1
    36    31    35    1
    37    32    33    1
    38    32    36    1
    39    33    41    1
    40    33    37    1
    41    41    42    1
    42    34    38    1
    43    35    39    1
    44    36    40    1
    45    42    43    1
@<TRIPOS>MOLECULE
GDU
 43 45 0 0 0
SMALL
GASTEIGER

@<TRIPOS>ATOM
      1 P          20.7417   70.9937   -3.0772 P.3     1  UNL1        0.2189
      2 O          21.0604   70.4139   -1.7536 O.2     1  UNL1       -0.5170
      3 O          20.5720   69.8095   -4.1550 O.3     1  UNL1       -0.4371
      4 O          19.3724   71.8319   -2.9807 O.3     1  UNL1       -0.3112
      5 C          18.3800   70.9449   -2.4622 C.3     1  UNL1        0.1811
      6 C          16.8794   70.5713   -5.7081 C.3     1  UNL1        0.2383
      7 C          16.8950   69.1374   -5.1193 C.3     1  UNL1        0.1895
      8 O          15.7916   68.3726   -5.6100 O.3     1  UNL1       -0.3779
      9 C          16.7477   69.4087   -3.5995 C.3     1  UNL1        0.1713
     10 C          17.2014   70.8711   -3.4346 C.3     1  UNL1        0.1764
     11 O          17.6068   71.3449   -4.7305 O.3     1  UNL1       -0.3308
     12 O          15.3867   69.2513   -3.1935 O.3     1  UNL1       -0.3794
     13 H          15.8596   67.4954   -5.2079 H       1  UNL1        0.2106
     14 H          15.1444   68.3333   -3.3759 H       1  UNL1        0.2105
     15 N          17.5597   70.6066   -7.0038 N.ar    1  UNL1       -0.2551
     16 C          16.8426   70.5022   -8.1366 C.ar    1  UNL1        0.3323
     17 N          17.4432   70.5354   -9.3407 N.ar    1  UNL1       -0.2743
     18 C          18.7809   70.6645   -9.4300 C.ar    1  UNL1        0.2626
     19 C          19.5497   70.7697   -8.2451 C.ar    1  UNL1        0.0795
     20 C          18.9215   70.7379   -7.0506 C.ar    1  UNL1        0.0869
     21 O          15.6350   70.3857   -8.0719 O.2     1  UNL1       -0.2464
     22 O          19.3260   70.6898  -10.5195 O.2     1  UNL1       -0.2670
     23 H          16.9096   70.4630  -10.1481 H       1  UNL1        0.1734
     24 O          21.9379   71.9685   -3.5369 O.3     1  UNL1       -0.2703
     25 P          22.9344   72.1088   -2.2810 P.3     1  UNL1        0.2208
     26 O          23.8037   70.9140   -2.2055 O.2     1  UNL1       -0.5170
     27 O          23.8458   73.4242   -2.4638 O.3     1  UNL1       -0.4371
     28 O          22.0764   72.2361   -0.9254 O.3     1  UNL1       -0.2858
     29 C          22.9777   72.0092    0.1590 C.3     1  UNL1        0.2704
     30 C          22.1991   71.4867    1.3674 C.3     1  UNL1        0.1967
     31 C          21.1331   72.5156    1.7564 C.3     1  UNL1        0.1715
     32 C          21.8136   73.8744    1.9568 C.3     1  UNL1        0.1694
     33 C          22.6204   74.2169    0.7018 C.3     1  UNL1        0.1761
     34 O          21.5712   70.2478    1.0329 O.3     1  UNL1       -0.3775
     35 O          20.4960   72.1114    2.9702 O.3     1  UNL1       -0.3794
     36 O          22.6837   73.8110    3.0876 O.3     1  UNL1       -0.3794
     37 O          23.6309   73.2309    0.4954 O.3     1  UNL1       -0.3258
     38 H          22.2773   69.6342    0.7883 H       1  UNL1        0.2106
     39 H          20.0935   71.2501    2.8016 H       1  UNL1        0.2105
     40 H          22.1351   73.5877    3.8507 H       1  UNL1        0.2105
     41 C          23.2765   75.5882    0.8779 C.3     1  UNL1        0.1693
     42 O          24.1636   75.8346   -0.2145 O.3     1  UNL1       -0.3794
     43 H          24.5548   76.7065   -0.0661 H       1  UNL1        0.2105
@<TRIPOS>BOND
     1    15    16   ar
     2    15    20   ar
     3    15     6    1
     4    16    17   ar
     5    16    21    2
     6    17    18   ar
     7    17    23    1
     8    18    19   ar
     9    18    22    2
    10    19    20   ar
    11     6     7    1
    12     6    11    1
    13     7     8    1
    14     7     9    1
    15     8    13    1
    16     9    10    1
    17     9    12    1
    18    10    11    1
    19    10     5    1
    20    12    14    1
    21     5     4    1
    22     4     1    1
    23     1     2    2
    24     1     3    1
    25     1    24    1
    26    24    25    1
    27    25    26    2
    28    25    27    1
    29    25    28    1
    30    28    29    1
    31    29    30    1
    32    29    37    1
    33    30    31    1
    34    30    34    1
    35    31    32    1
    36    31    35    1
    37    32    33    1
    38    32    36    1
    39    33    41    1
    40    33    37    1
    41    41    42    1
    42    34    38    1
    43    35    39    1
    44    36    40    1
    45    42    43    1
@<TRIPOS>MOLECULE
GDU
 43 45 0 0 0
SMALL
GASTEIGER

@<TRIPOS>ATOM
      1 P          20.6687   71.6596   -2.0655 P.3     1  UNL1        0.2189
      2 O          21.5694   70.9016   -2.9619 O.2     1  UNL1       -0.5170
      3 O          21.3497   73.0688   -1.6871 O.3     1  UNL1       -0.4371
      4 O          19.2676   71.9234   -2.8098 O.3     1  UNL1       -0.3112
      5 C          18.4384   70.7909   -2.5445 C.3     1  UNL1        0.1811
      6 C          16.9128   70.5253   -5.7894 C.3     1  UNL1        0.2383
      7 C          16.8604   69.0862   -5.2159 C.3     1  UNL1        0.1895
      8 O          15.7199   68.3811   -5.7111 O.3     1  UNL1       -0.3779
      9 C          16.7305   69.3479   -3.6928 C.3     1  UNL1        0.1713
     10 C          17.2550   70.7847   -3.5139 C.3     1  UNL1        0.1764
     11 O          17.6795   71.2522   -4.8059 O.3     1  UNL1       -0.3308
     12 O          15.3645   69.2524   -3.2842 O.3     1  UNL1       -0.3794
     13 H          15.7463   67.4973   -5.3186 H       1  UNL1        0.2106
     14 H          15.0774   68.3492   -3.4755 H       1  UNL1        0.2105
     15 N          17.5906   70.5416   -7.0868 N.ar    1  UNL1       -0.2551
     16 C          16.8662   70.4867   -8.2184 C.ar    1  UNL1        0.3323
     17 N          17.4645   70.5037   -9.4240 N.ar    1  UNL1       -0.2743
     18 C          18.8068   70.5663   -9.5161 C.ar    1  UNL1        0.2626
     19 C          19.5830   70.6188   -8.3325 C.ar    1  UNL1        0.0795
     20 C          18.9572   70.6046   -7.1364 C.ar    1  UNL1        0.0869
     21 O          15.6544   70.4304   -8.1511 O.2     1  UNL1       -0.2464
     22 O          19.3495   70.5769  -10.6069 O.2     1  UNL1       -0.2670
     23 H          16.9258   70.4678  -10.2304 H       1  UNL1        0.1734
     24 O          20.4124   70.8110   -0.7213 O.3     1  UNL1       -0.2703
     25 P          21.6557   71.1017    0.2583 P.3     1  UNL1        0.2208
     26 O          21.9295   69.9003    1.0772 O.2     1  UNL1       -0.5170
     27 O          22.9576   71.4605   -0.6194 O.3     1  UNL1       -0.4371
     28 O          21.3021   72.3406    1.2227 O.3     1  UNL1       -0.2858
     29 C          22.5382   72.9749    1.5535 C.3     1  UNL1        0.2704
     30 C          22.8652   72.7167    3.0251 C.3     1  UNL1        0.1967
     31 C          21.7274   73.2642    3.8923 C.3     1  UNL1        0.1715
     32 C          21.4942   74.7338    3.5240 C.3     1  UNL1        0.1694
     33 C          21.2690   74.8387    2.0136 C.3     1  UNL1        0.1761
     34 O          23.0034   71.3118    3.2454 O.3     1  UNL1       -0.3775
     35 O          22.0843   73.1633    5.2725 O.3     1  UNL1       -0.3794
     36 O          22.6360   75.5067    3.8966 O.3     1  UNL1       -0.3794
     37 O          22.4280   74.3772    1.3210 O.3     1  UNL1       -0.3258
     38 H          23.7238   71.0096    2.6756 H       1  UNL1        0.2106
     39 H          22.2325   72.2270    5.4555 H       1  UNL1        0.2105
     40 H          22.7424   75.4064    4.8516 H       1  UNL1        0.2105
     41 C          21.0011   76.2984    1.6399 C.3     1  UNL1        0.1693
     42 O          21.6263   76.5914    0.3892 O.3     1  UNL1       -0.3794
     43 H          21.4333   77.5179    0.1901 H       1  UNL1        0.2105
@<TRIPOS>BOND
     1    15    16   ar
     2    15    20   ar
     3    15     6    1
     4    16    17   ar
     5    16    21    2
     6    17    18   ar
     7    17    23    1
     8    18    19   ar
     9    18    22    2
    10    19    20   ar
    11     6     7    1
    12     6    11    1
    13     7     8    1
    14     7     9    1
    15     8    13    1
    16     9    10    1
    17     9    12    1
    18    10    11    1
    19    10     5    1
    20    12    14    1
    21     5     4    1
    22     4     1    1
    23     1     2    2
    24     1     3    1
    25     1    24    1
    26    24    25    1
    27    25    26    2
    28    25    27    1
    29    25    28    1
    30    28    29    1
    31    29    30    1
    32    29    37    1
    33    30    31    1
    34    30    34    1
    35    31    32    1
    36    31    35    1
    37    32    33    1
    38    32    36    1
    39    33    41    1
    40    33    37    1
    41    41    42    1
    42    34    38    1
    43    35    39    1
    44    36    40    1
    45    42    43    1
@<TRIPOS>MOLECULE
GDU
 43 45 0 0 0
SMALL
GASTEIGER

@<TRIPOS>ATOM
      1 P          22.9783   72.4655   -3.2060 P.3     1  UNL1        0.2189
      2 O          24.2398   72.1466   -3.9107 O.2     1  UNL1       -0.5170
      3 O          23.1626   73.8266   -2.3655 O.3     1  UNL1       -0.4371
      4 O          21.7959   72.6538   -4.2799 O.3     1  UNL1       -0.3112
      5 C          22.3733   72.4517   -5.5707 C.3     1  UNL1        0.1811
      6 C          19.3601   70.5962   -6.2073 C.3     1  UNL1        0.2383
      7 C          19.1078   71.9820   -6.8545 C.3     1  UNL1        0.1895
      8 O          18.2462   71.8656   -7.9891 O.3     1  UNL1       -0.3779
      9 C          20.5365   72.4041   -7.2858 C.3     1  UNL1        0.1713
     10 C          21.4625   71.5471   -6.4028 C.3     1  UNL1        0.1764
     11 O          20.6257   70.7643   -5.5338 O.3     1  UNL1       -0.3308
     12 O          20.7462   72.1160   -8.6696 O.3     1  UNL1       -0.3794
     13 H          18.1297   72.7582   -8.3435 H       1  UNL1        0.2106
     14 H          20.0995   72.6364   -9.1652 H       1  UNL1        0.2105
     15 N          18.3037   70.2730   -5.2469 N.ar    1  UNL1       -0.2551
     16 C          17.1709   69.6874   -5.6736 C.ar    1  UNL1        0.3323
     17 N          16.1856   69.3767   -4.8107 N.ar    1  UNL1       -0.2743
     18 C          16.3158   69.6581   -3.5000 C.ar    1  UNL1        0.2626
     19 C          17.5011   70.2801   -3.0370 C.ar    1  UNL1        0.0795
     20 C          18.4753   70.5771   -3.9232 C.ar    1  UNL1        0.0869
     21 O          17.0392   69.4270   -6.8530 O.2     1  UNL1       -0.2464
     22 O          15.4225   69.3816   -2.7189 O.2     1  UNL1       -0.2670
     23 H          15.3766   68.9504   -5.1355 H       1  UNL1        0.1734
     24 O          22.6068   71.2626   -2.2022 O.3     1  UNL1       -0.2703
     25 P          21.3611   71.7634   -1.3147 P.3     1  UNL1        0.2208
     26 O          20.5829   72.7641   -2.0777 O.2     1  UNL1       -0.5170
     27 O          20.4170   70.5080   -0.9588 O.3     1  UNL1       -0.4371
     28 O          21.9036   72.4283    0.0467 O.3     1  UNL1       -0.2858
     29 C          21.2691   71.7408    1.1258 C.3     1  UNL1        0.2704
     30 C          20.6886   72.7598    2.1077 C.3     1  UNL1        0.1967
     31 C          21.8199   73.6530    2.6261 C.3     1  UNL1        0.1715
     32 C          22.9290   72.7597    3.1929 C.3     1  UNL1        0.1694
     33 C          23.3413   71.7412    2.1272 C.3     1  UNL1        0.1761
     34 O          19.7102   73.5612    1.4431 O.3     1  UNL1       -0.3775
     35 O          21.3206   74.5126    3.6529 O.3     1  UNL1       -0.3794
     36 O          22.4478   72.0775    4.3518 O.3     1  UNL1       -0.3794
     37 O          22.2253   70.9183    1.7906 O.3     1  UNL1       -0.3258
     38 H          19.0231   72.9584    1.1279 H       1  UNL1        0.2106
     39 H          20.6200   75.0453    3.2559 H       1  UNL1        0.2105
     40 H          22.1953   72.7562    4.9914 H       1  UNL1        0.2105
     41 C          24.4726   70.8659    2.6712 C.3     1  UNL1        0.1693
     42 O          25.3896   70.5652    1.6178 O.3     1  UNL1       -0.3794
     43 H          26.0857   70.0142    2.0014 H       1  UNL1        0.2105
@<TRIPOS>BOND
     1    15    16   ar
     2    15    20   ar
     3    15     6    1
     4    16    17   ar
     5    16    21    2
     6    17    18   ar
     7    17    23    1
     8    18    19   ar
     9    18    22    2
    10    19    20   ar
    11     6     7    1
    12     6    11    1
    13     7     8    1
    14     7     9    1
    15     8    13    1
    16     9    10    1
    17     9    12    1
    18    10    11    1
    19    10     5    1
    20    12    14    1
    21     5     4    1
    22     4     1    1
    23     1     2    2
    24     1     3    1
    25     1    24    1
    26    24    25    1
    27    25    26    2
    28    25    27    1
    29    25    28    1
    30    28    29    1
    31    29    30    1
    32    29    37    1
    33    30    31    1
    34    30    34    1
    35    31    32    1
    36    31    35    1
    37    32    33    1
    38    32    36    1
    39    33    41    1
    40    33    37    1
    41    41    42    1
    42    34    38    1
    43    35    39    1
    44    36    40    1
    45    42    43    1
@<TRIPOS>MOLECULE
GDU
 43 45 0 0 0
SMALL
GASTEIGER

@<TRIPOS>ATOM
      1 P          20.5912   71.0201   -2.3125 P.3     1  UNL1        0.2189
      2 O          20.4976   72.4886   -2.4683 O.2     1  UNL1       -0.5170
      3 O          20.6132   70.6471   -0.7462 O.3     1  UNL1       -0.4371
      4 O          19.3214   70.3238   -3.0122 O.3     1  UNL1       -0.3112
      5 C          18.1561   70.9386   -2.4603 C.3     1  UNL1        0.1811
      6 C          16.7615   70.5635   -5.7530 C.3     1  UNL1        0.2383
      7 C          16.7663   69.1285   -5.1666 C.3     1  UNL1        0.1895
      8 O          15.6832   68.3588   -5.6936 O.3     1  UNL1       -0.3779
      9 C          16.5692   69.3959   -3.6517 C.3     1  UNL1        0.1713
     10 C          17.0094   70.8604   -3.4698 C.3     1  UNL1        0.1764
     11 O          17.4533   71.3390   -4.7512 O.3     1  UNL1       -0.3308
     12 O          15.1968   69.2304   -3.2896 O.3     1  UNL1       -0.3794
     13 H          15.7431   67.4811   -5.2911 H       1  UNL1        0.2106
     14 H          14.9654   68.3114   -3.4813 H       1  UNL1        0.2105
     15 N          17.4825   70.6051   -7.0263 N.ar    1  UNL1       -0.2551
     16 C          16.7979   70.5503   -8.1824 C.ar    1  UNL1        0.3323
     17 N          17.4363   70.5903   -9.3667 N.ar    1  UNL1       -0.2743
     18 C          18.7797   70.6765   -9.4124 C.ar    1  UNL1        0.2626
     19 C          19.5144   70.7293   -8.2026 C.ar    1  UNL1        0.0795
     20 C          18.8487   70.6917   -7.0287 C.ar    1  UNL1        0.0869
     21 O          15.5857   70.4729   -8.1571 O.2     1  UNL1       -0.2464
     22 O          19.3588   70.7080  -10.4839 O.2     1  UNL1       -0.2670
     23 H          16.9260   70.5540  -10.1913 H       1  UNL1        0.1734
     24 O          21.9446   70.4929   -3.0074 O.3     1  UNL1       -0.2703
     25 P          23.1581   71.3269   -2.3579 P.3     1  UNL1        0.2208
     26 O          23.1262   71.1787   -0.8862 O.2     1  UNL1       -0.5170
     27 O          24.5579   70.7653   -2.9231 O.3     1  UNL1       -0.4371
     28 O          23.0097   72.8820   -2.7450 O.3     1  UNL1       -0.2858
     29 C          24.1127   73.2057   -3.5925 C.3     1  UNL1        0.2704
     30 C          24.4542   74.6887   -3.4395 C.3     1  UNL1        0.1967
     31 C          23.2247   75.5242   -3.8091 C.3     1  UNL1        0.1715
     32 C          22.7488   75.1051   -5.2046 C.3     1  UNL1        0.1694
     33 C          22.5346   73.5896   -5.2231 C.3     1  UNL1        0.1761
     34 O          24.8279   74.9567   -2.0868 O.3     1  UNL1       -0.3775
     35 O          23.5702   76.9110   -3.8134 O.3     1  UNL1       -0.3794
     36 O          23.7344   75.4650   -6.1736 O.3     1  UNL1       -0.3794
     37 O          23.7671   72.9258   -4.9471 O.3     1  UNL1       -0.3258
     38 H          25.5990   74.4055   -1.8960 H       1  UNL1        0.2106
     39 H          23.8740   77.1265   -2.9226 H       1  UNL1        0.2105
     40 H          23.8403   76.4239   -6.1223 H       1  UNL1        0.2105
     41 C          22.0263   73.1649   -6.6027 C.3     1  UNL1        0.1693
     42 O          22.9509   72.2466   -7.1881 O.3     1  UNL1       -0.3794
     43 H          22.5942   72.0037   -8.0536 H       1  UNL1        0.2105
@<TRIPOS>BOND
     1    15    16   ar
     2    15    20   ar
     3    15     6    1
     4    16    17   ar
     5    16    21    2
     6    17    18   ar
     7    17    23    1
     8    18    19   ar
     9    18    22    2
    10    19    20   ar
    11     6     7    1
    12     6    11    1
    13     7     8    1
    14     7     9    1
    15     8    13    1
    16     9    10    1
    17     9    12    1
    18    10    11    1
    19    10     5    1
    20    12    14    1
    21     5     4    1
    22     4     1    1
    23     1     2    2
    24     1     3    1
    25     1    24    1
    26    24    25    1
    27    25    26    2
    28    25    27    1
    29    25    28    1
    30    28    29    1
    31    29    30    1
    32    29    37    1
    33    30    31    1
    34    30    34    1
    35    31    32    1
    36    31    35    1
    37    32    33    1
    38    32    36    1
    39    33    41    1
    40    33    37    1
    41    41    42    1
    42    34    38    1
    43    35    39    1
    44    36    40    1
    45    42    43    1
@<TRIPOS>MOLECULE
GDU
 43 45 0 0 0
SMALL
GASTEIGER

@<TRIPOS>ATOM
      1 P          23.5292   72.3027   -3.2326 P.3     1  UNL1        0.2189
      2 O          23.9916   70.9712   -2.7821 O.2     1  UNL1       -0.5170
      3 O          24.6012   72.9229   -4.2618 O.3     1  UNL1       -0.4371
      4 O          22.1046   72.1571   -3.9647 O.3     1  UNL1       -0.3112
      5 C          22.3168   72.4536   -5.3459 C.3     1  UNL1        0.1811
      6 C          19.2980   70.6293   -6.0431 C.3     1  UNL1        0.2383
      7 C          19.0569   72.0310   -6.6598 C.3     1  UNL1        0.1895
      8 O          18.2017   71.9453   -7.8020 O.3     1  UNL1       -0.3779
      9 C          20.4903   72.4553   -7.0726 C.3     1  UNL1        0.1713
     10 C          21.4065   71.5733   -6.2040 C.3     1  UNL1        0.1764
     11 O          20.5603   70.7752   -5.3584 O.3     1  UNL1       -0.3308
     12 O          20.7071   72.1979   -8.4614 O.3     1  UNL1       -0.3794
     13 H          18.0920   72.8464   -8.1364 H       1  UNL1        0.2106
     14 H          20.0662   72.7331   -8.9487 H       1  UNL1        0.2105
     15 N          18.2340   70.2897   -5.0968 N.ar    1  UNL1       -0.2551
     16 C          17.1181   69.6827   -5.5378 C.ar    1  UNL1        0.3323
     17 N          16.1265   69.3565   -4.6880 N.ar    1  UNL1       -0.2743
     18 C          16.2329   69.6438   -3.3764 C.ar    1  UNL1        0.2626
     19 C          17.4002   70.2883   -2.8986 C.ar    1  UNL1        0.0795
     20 C          18.3814   70.6004   -3.7717 C.ar    1  UNL1        0.0869
     21 O          17.0080   69.4167   -6.7182 O.2     1  UNL1       -0.2464
     22 O          15.3338   69.3533   -2.6073 O.2     1  UNL1       -0.2670
     23 H          15.3299   68.9148   -5.0230 H       1  UNL1        0.1734
     24 O          23.3829   73.2779   -1.9598 O.3     1  UNL1       -0.2703
     25 P          22.1250   72.7473   -1.1077 P.3     1  UNL1        0.2208
     26 O          20.8707   73.0972   -1.8101 O.2     1  UNL1       -0.5170
     27 O          22.2216   71.1475   -0.9480 O.3     1  UNL1       -0.4371
     28 O          22.1346   73.4322    0.3486 O.3     1  UNL1       -0.2858
     29 C          23.0352   72.6744    1.1576 C.3     1  UNL1        0.2704
     30 C          22.3068   72.1881    2.4116 C.3     1  UNL1        0.1967
     31 C          21.7772   73.4012    3.1826 C.3     1  UNL1        0.1715
     32 C          22.9407   74.3662    3.4370 C.3     1  UNL1        0.1694
     33 C          23.6201   74.6891    2.1039 C.3     1  UNL1        0.1761
     34 O          21.2165   71.3450    2.0352 O.3     1  UNL1       -0.3775
     35 O          21.2236   72.9736    4.4289 O.3     1  UNL1       -0.3794
     36 O          23.8812   73.7577    4.3231 O.3     1  UNL1       -0.3794
     37 O          24.1424   73.4928    1.5276 O.3     1  UNL1       -0.3258
     38 H          21.5948   70.6007    1.5477 H       1  UNL1        0.2106
     39 H          20.5063   72.3616    4.2212 H       1  UNL1        0.2105
     40 H          23.4093   73.5674    5.1443 H       1  UNL1        0.2105
     41 C          24.7624   75.6793    2.3423 C.3     1  UNL1        0.1693
     42 O          24.3054   77.0059    2.0735 O.3     1  UNL1       -0.3794
     43 H          25.0529   77.5977    2.2359 H       1  UNL1        0.2105
@<TRIPOS>BOND
     1    15    16   ar
     2    15    20   ar
     3    15     6    1
     4    16    17   ar
     5    16    21    2
     6    17    18   ar
     7    17    23    1
     8    18    19   ar
     9    18    22    2
    10    19    20   ar
    11     6     7    1
    12     6    11    1
    13     7     8    1
    14     7     9    1
    15     8    13    1
    16     9    10    1
    17     9    12    1
    18    10    11    1
    19    10     5    1
    20    12    14    1
    21     5     4    1
    22     4     1    1
    23     1     2    2
    24     1     3    1
    25     1    24    1
    26    24    25    1
    27    25    26    2
    28    25    27    1
    29    25    28    1
    30    28    29    1
    31    29    30    1
    32    29    37    1
    33    30    31    1
    34    30    34    1
    35    31    32    1
    36    31    35    1
    37    32    33    1
    38    32    36    1
    39    33    41    1
    40    33    37    1
    41    41    42    1
    42    34    38    1
    43    35    39    1
    44    36    40    1
    45    42    43    1
@<TRIPOS>MOLECULE
GDU
 43 45 0 0 0
SMALL
GASTEIGER

@<TRIPOS>ATOM
      1 P          21.3700   72.3565   -3.0737 P.3     1  UNL1        0.2189
      2 O          22.3495   72.5562   -1.9827 O.2     1  UNL1       -0.5170
      3 O          21.6753   70.9629   -3.8205 O.3     1  UNL1       -0.4371
      4 O          19.8832   72.3226   -2.4611 O.3     1  UNL1       -0.3112
      5 C          19.3877   70.9963   -2.6509 C.3     1  UNL1        0.1811
      6 C          17.4404   70.7110   -5.6598 C.3     1  UNL1        0.2383
      7 C          17.3504   69.3094   -5.0037 C.3     1  UNL1        0.1895
      8 O          16.1040   68.6811   -5.3121 O.3     1  UNL1       -0.3779
      9 C          17.4387   69.6514   -3.4936 C.3     1  UNL1        0.1713
     10 C          18.0923   71.0454   -3.4631 C.3     1  UNL1        0.1764
     11 O          18.3819   71.4151   -4.8224 O.3     1  UNL1       -0.3308
     12 O          16.1335   69.6906   -2.9131 O.3     1  UNL1       -0.3794
     13 H          16.1118   67.8174   -4.8765 H       1  UNL1        0.2106
     14 H          15.7547   68.8071   -3.0156 H       1  UNL1        0.2105
     15 N          17.9444   70.6098   -7.0305 N.ar    1  UNL1       -0.2551
     16 C          17.0809   70.4440   -8.0479 C.ar    1  UNL1        0.3323
     17 N          17.5180   70.3517   -9.3177 N.ar    1  UNL1       -0.2743
     18 C          18.8357   70.4144   -9.5895 C.ar    1  UNL1        0.2626
     19 C          19.7573   70.5831   -8.5272 C.ar    1  UNL1        0.0795
     20 C          19.2917   70.6771   -7.2635 C.ar    1  UNL1        0.0869
     21 O          15.8893   70.3861   -7.8183 O.2     1  UNL1       -0.2464
     22 O          19.2327   70.3262  -10.7381 O.2     1  UNL1       -0.2670
     23 H          16.8804   70.2365  -10.0402 H       1  UNL1        0.1734
     24 O          21.4895   73.5667   -4.1290 O.3     1  UNL1       -0.2703
     25 P          23.0501   73.7166   -4.4923 P.3     1  UNL1        0.2208
     26 O          23.6910   74.6488   -3.5388 O.2     1  UNL1       -0.5170
     27 O          23.7641   72.2761   -4.3958 O.3     1  UNL1       -0.4371
     28 O          23.2012   74.2898   -5.9885 O.3     1  UNL1       -0.2858
     29 C          23.2623   75.7129   -5.8835 C.3     1  UNL1        0.2704
     30 C          21.9779   76.3207   -6.4494 C.3     1  UNL1        0.1967
     31 C          21.8259   75.8924   -7.9122 C.3     1  UNL1        0.1715
     32 C          23.1089   76.2600   -8.6662 C.3     1  UNL1        0.1694
     33 C          24.3082   75.6545   -7.9327 C.3     1  UNL1        0.1761
     34 O          20.8565   75.8581   -5.6946 O.3     1  UNL1       -0.3775
     35 O          20.7115   76.5693   -8.4974 O.3     1  UNL1       -0.3794
     36 O          23.2421   77.6811   -8.7182 O.3     1  UNL1       -0.3794
     37 O          24.3882   76.1937   -6.6140 O.3     1  UNL1       -0.3258
     38 H          20.9978   76.1434   -4.7817 H       1  UNL1        0.2106
     39 H          19.9319   76.3190   -7.9858 H       1  UNL1        0.2105
     40 H          22.4646   78.0183   -9.1819 H       1  UNL1        0.2105
     41 C          25.5919   75.9868   -8.6966 C.3     1  UNL1        0.1693
     42 O          26.7015   75.9579   -7.7971 O.3     1  UNL1       -0.3794
     43 H          27.4887   76.1713   -8.3167 H       1  UNL1        0.2105
@<TRIPOS>BOND
     1    15    16   ar
     2    15    20   ar
     3    15     6    1
     4    16    17   ar
     5    16    21    2
     6    17    18   ar
     7    17    23    1
     8    18    19   ar
     9    18    22    2
    10    19    20   ar
    11     6     7    1
    12     6    11    1
    13     7     8    1
    14     7     9    1
    15     8    13    1
    16     9    10    1
    17     9    12    1
    18    10    11    1
    19    10     5    1
    20    12    14    1
    21     5     4    1
    22     4     1    1
    23     1     2    2
    24     1     3    1
    25     1    24    1
    26    24    25    1
    27    25    26    2
    28    25    27    1
    29    25    28    1
    30    28    29    1
    31    29    30    1
    32    29    37    1
    33    30    31    1
    34    30    34    1
    35    31    32    1
    36    31    35    1
    37    32    33    1
    38    32    36    1
    39    33    41    1
    40    33    37    1
    41    41    42    1
    42    34    38    1
    43    35    39    1
    44    36    40    1
    45    42    43    1
@<TRIPOS>MOLECULE
GDU
 43 45 0 0 0
SMALL
GASTEIGER

@<TRIPOS>ATOM
      1 P          16.6697   69.8208   -2.7517 P.3     1  UNL1        0.2189
      2 O          16.0632   68.9310   -3.7666 O.2     1  UNL1       -0.5170
      3 O          16.4321   71.3565   -3.1738 O.3     1  UNL1       -0.4371
      4 O          15.9887   69.5460   -1.3208 O.3     1  UNL1       -0.3112
      5 C          14.8361   70.3863   -1.2429 C.3     1  UNL1        0.1811
      6 C          12.5521   68.1361    0.3840 C.3     1  UNL1        0.2383
      7 C          11.9867   69.5481    0.6833 C.3     1  UNL1        0.1895
      8 O          10.5631   69.5117    0.8067 O.3     1  UNL1       -0.3779
      9 C          12.4124   70.3427   -0.5787 C.3     1  UNL1        0.1713
     10 C          13.5768   69.5215   -1.1629 C.3     1  UNL1        0.1764
     11 O          13.8039   68.4084   -0.2810 O.3     1  UNL1       -0.3308
     12 O          11.3303   70.4205   -1.5086 O.3     1  UNL1       -0.3794
     13 H          10.2760   70.4168    0.9920 H       1  UNL1        0.2106
     14 H          10.6128   70.8927   -1.0647 H       1  UNL1        0.2105
     15 N          12.7783   67.3948    1.6259 N.ar    1  UNL1       -0.2551
     16 C          12.4876   66.0831    1.6820 C.ar    1  UNL1        0.3323
     17 N          12.6895   65.3777    2.8104 N.ar    1  UNL1       -0.2743
     18 C          13.1797   65.9805    3.9107 C.ar    1  UNL1        0.2626
     19 C          13.4851   67.3630    3.8680 C.ar    1  UNL1        0.0795
     20 C          13.2769   68.0458    2.7222 C.ar    1  UNL1        0.0869
     21 O          12.0453   65.5254    0.6974 O.2     1  UNL1       -0.2464
     22 O          13.3583   65.3439    4.9340 O.2     1  UNL1       -0.2670
     23 H          12.4781   64.4308    2.8318 H       1  UNL1        0.1734
     24 O          18.2506   69.5294   -2.6599 O.3     1  UNL1       -0.2703
     25 P          18.9526   70.9035   -2.2028 P.3     1  UNL1        0.2208
     26 O          17.9389   71.7996   -1.6041 O.2     1  UNL1       -0.5170
     27 O          20.0965   70.5852   -1.1145 O.3     1  UNL1       -0.4371
     28 O          19.6154   71.6203   -3.4822 O.3     1  UNL1       -0.2858
     29 C          20.3124   70.6083   -4.2101 C.3     1  UNL1        0.2704
     30 C          21.7891   70.9895   -4.3252 C.3     1  UNL1        0.1967
     31 C          21.9010   72.3415   -5.0366 C.3     1  UNL1        0.1715
     32 C          21.1428   72.2599   -6.3663 C.3     1  UNL1        0.1694
     33 C          19.7134   71.7838   -6.0958 C.3     1  UNL1        0.1761
     34 O          22.3620   71.0850   -3.0199 O.3     1  UNL1       -0.3775
     35 O          23.2763   72.6420   -5.2829 O.3     1  UNL1       -0.3794
     36 O          21.8019   71.3386   -7.2363 O.3     1  UNL1       -0.3794
     37 O          19.7420   70.4827   -5.5107 O.3     1  UNL1       -0.3258
     38 H          22.2630   70.2160   -2.6076 H       1  UNL1        0.2106
     39 H          23.7147   72.6715   -4.4232 H       1  UNL1        0.2105
     40 H          22.6971   71.6746   -7.3734 H       1  UNL1        0.2105
     41 C          18.9371   71.7316   -7.4136 C.3     1  UNL1        0.1693
     42 O          17.9857   72.7969   -7.4475 O.3     1  UNL1       -0.3794
     43 H          17.5195   72.7289   -8.2921 H       1  UNL1        0.2105
@<TRIPOS>BOND
     1    15    16   ar
     2    15    20   ar
     3    15     6    1
     4    16    17   ar
     5    16    21    2
     6    17    18   ar
     7    17    23    1
     8    18    19   ar
     9    18    22    2
    10    19    20   ar
    11     6     7    1
    12     6    11    1
    13     7     8    1
    14     7     9    1
    15     8    13    1
    16     9    10    1
    17     9    12    1
    18    10    11    1
    19    10     5    1
    20    12    14    1
    21     5     4    1
    22     4     1    1
    23     1     2    2
    24     1     3    1
    25     1    24    1
    26    24    25    1
    27    25    26    2
    28    25    27    1
    29    25    28    1
    30    28    29    1
    31    29    30    1
    32    29    37    1
    33    30    31    1
    34    30    34    1
    35    31    32    1
    36    31    35    1
    37    32    33    1
    38    32    36    1
    39    33    41    1
    40    33    37    1
    41    41    42    1
    42    34    38    1
    43    35    39    1
    44    36    40    1
    45    42    43    1
@<TRIPOS>MOLECULE
GDU
 43 45 0 0 0
SMALL
GASTEIGER

@<TRIPOS>ATOM
      1 P          20.9279   71.4080   -0.7234 P.3     1  UNL1        0.2189
      2 O          21.4515   72.7223   -0.2900 O.2     1  UNL1       -0.5170
      3 O          21.1753   70.3218    0.4393 O.3     1  UNL1       -0.4371
      4 O          19.3514   71.5287   -1.0183 O.3     1  UNL1       -0.3112
      5 C          19.1228   70.9336   -2.2967 C.3     1  UNL1        0.1811
      6 C          17.7239   72.0829   -5.4031 C.3     1  UNL1        0.2383
      7 C          16.6021   71.2239   -4.7653 C.3     1  UNL1        0.1895
      8 O          15.3116   71.7092   -5.1423 O.3     1  UNL1       -0.3779
      9 C          16.8520   71.4367   -3.2496 C.3     1  UNL1        0.1713
     10 C          18.3197   71.8965   -3.1731 C.3     1  UNL1        0.1764
     11 O          18.8434   71.8901   -4.5125 O.3     1  UNL1       -0.3308
     12 O          15.9779   72.4436   -2.7357 O.3     1  UNL1       -0.3794
     13 H          14.6616   71.1342   -4.7149 H       1  UNL1        0.2106
     14 H          15.0749   72.1235   -2.8655 H       1  UNL1        0.2105
     15 N          18.0451   71.6003   -6.7472 N.ar    1  UNL1       -0.2551
     16 C          17.3974   72.1082   -7.8106 C.ar    1  UNL1        0.3323
     17 N          17.6762   71.6843   -9.0574 N.ar    1  UNL1       -0.2743
     18 C          18.6070   70.7320   -9.2596 C.ar    1  UNL1        0.2626
     19 C          19.2931   70.1837   -8.1484 C.ar    1  UNL1        0.0795
     20 C          18.9970   70.6299   -6.9092 C.ar    1  UNL1        0.0869
     21 O          16.5555   72.9682   -7.6439 O.2     1  UNL1       -0.2464
     22 O          18.8566   70.3443  -10.3873 O.2     1  UNL1       -0.2670
     23 H          17.2020   72.0651   -9.8137 H       1  UNL1        0.1734
     24 O          21.6915   70.9422   -2.0623 O.3     1  UNL1       -0.2703
     25 P          23.1416   71.6398   -2.0390 P.3     1  UNL1        0.2208
     26 O          23.6746   71.6234   -0.6589 O.2     1  UNL1       -0.5170
     27 O          24.1412   70.8316   -3.0095 O.3     1  UNL1       -0.4371
     28 O          23.0146   73.1612   -2.5483 O.3     1  UNL1       -0.2858
     29 C          22.0181   73.1746   -3.5712 C.3     1  UNL1        0.2704
     30 C          22.6637   73.5499   -4.9060 C.3     1  UNL1        0.1967
     31 C          23.3203   74.9274   -4.7725 C.3     1  UNL1        0.1715
     32 C          22.2749   75.9201   -4.2516 C.3     1  UNL1        0.1694
     33 C          21.6598   75.3654   -2.9643 C.3     1  UNL1        0.1761
     34 O          23.6528   72.5778   -5.2494 O.3     1  UNL1       -0.3775
     35 O          23.7994   75.3566   -6.0487 O.3     1  UNL1       -0.3794
     36 O          21.2551   76.1001   -5.2352 O.3     1  UNL1       -0.3794
     37 O          21.0094   74.1251   -3.2372 O.3     1  UNL1       -0.3258
     38 H          23.1971   71.7276   -5.3156 H       1  UNL1        0.2106
     39 H          24.4428   74.6989   -6.3417 H       1  UNL1        0.2105
     40 H          21.6879   76.4440   -6.0274 H       1  UNL1        0.2105
     41 C          20.6388   76.3654   -2.4170 C.3     1  UNL1        0.1693
     42 O          21.2378   77.1322   -1.3710 O.3     1  UNL1       -0.3794
     43 H          20.5634   77.7490   -1.0547 H       1  UNL1        0.2105
@<TRIPOS>BOND
     1    15    16   ar
     2    15    20   ar
     3    15     6    1
     4    16    17   ar
     5    16    21    2
     6    17    18   ar
     7    17    23    1
     8    18    19   ar
     9    18    22    2
    10    19    20   ar
    11     6     7    1
    12     6    11    1
    13     7     8    1
    14     7     9    1
    15     8    13    1
    16     9    10    1
    17     9    12    1
    18    10    11    1
    19    10     5    1
    20    12    14    1
    21     5     4    1
    22     4     1    1
    23     1     2    2
    24     1     3    1
    25     1    24    1
    26    24    25    1
    27    25    26    2
    28    25    27    1
    29    25    28    1
    30    28    29    1
    31    29    30    1
    32    29    37    1
    33    30    31    1
    34    30    34    1
    35    31    32    1
    36    31    35    1
    37    32    33    1
    38    32    36    1
    39    33    41    1
    40    33    37    1
    41    41    42    1
    42    34    38    1
    43    35    39    1
    44    36    40    1
    45    42    43    1
@<TRIPOS>MOLECULE
GDU
 43 45 0 0 0
SMALL
GASTEIGER

@<TRIPOS>ATOM
      1 P          16.5336   70.1825   -2.5082 P.3     1  UNL1        0.2189
      2 O          17.6773   71.0445   -2.1358 O.2     1  UNL1       -0.5170
      3 O          16.9971   68.6404   -2.4940 O.3     1  UNL1       -0.4371
      4 O          15.3370   70.3929   -1.4543 O.3     1  UNL1       -0.3112
      5 C          15.0828   69.1203   -0.8573 C.3     1  UNL1        0.1811
      6 C          12.2269   68.0243    1.0320 C.3     1  UNL1        0.2383
      7 C          12.4995   69.4637    1.5386 C.3     1  UNL1        0.1895
      8 O          11.2854   70.1004    1.9432 O.3     1  UNL1       -0.3779
      9 C          13.0880   70.1464    0.2765 C.3     1  UNL1        0.1713
     10 C          13.5845   68.9719   -0.5871 C.3     1  UNL1        0.1764
     11 O          13.3385   67.7615    0.1496 O.3     1  UNL1       -0.3308
     12 O          12.0762   70.8871   -0.4086 O.3     1  UNL1       -0.3794
     13 H          11.5234   70.9877    2.2464 H       1  UNL1        0.2106
     14 H          11.7650   71.5680    0.2032 H       1  UNL1        0.2105
     15 N          12.2179   67.0758    2.1469 N.ar    1  UNL1       -0.2551
     16 C          13.3815   66.6481    2.6679 C.ar    1  UNL1        0.3323
     17 N          13.4010   65.7789    3.6956 N.ar    1  UNL1       -0.2743
     18 C          12.2485   65.3137    4.2146 C.ar    1  UNL1        0.2626
     19 C          11.0153   65.7510    3.6722 C.ar    1  UNL1        0.0795
     20 C          11.0244   66.6264    2.6445 C.ar    1  UNL1        0.0869
     21 O          14.4292   67.0593    2.2105 O.2     1  UNL1       -0.2464
     22 O          12.2652   64.5232    5.1417 O.2     1  UNL1       -0.2670
     23 H          14.2499   65.4842    4.0620 H       1  UNL1        0.1734
     24 O          16.0254   70.5751   -3.9846 O.3     1  UNL1       -0.2703
     25 P          16.9037   69.7162   -5.0243 P.3     1  UNL1        0.2208
     26 O          16.9236   68.2990   -4.5998 O.2     1  UNL1       -0.5170
     27 O          16.2546   69.8265   -6.4942 O.3     1  UNL1       -0.4371
     28 O          18.4075   70.2883   -5.0588 O.3     1  UNL1       -0.2858
     29 C          18.3646   71.5256   -5.7707 C.3     1  UNL1        0.2704
     30 C          19.2916   71.4471   -6.9847 C.3     1  UNL1        0.1967
     31 C          20.7156   71.1477   -6.5060 C.3     1  UNL1        0.1715
     32 C          21.1076   72.1896   -5.4523 C.3     1  UNL1        0.1694
     33 C          20.0429   72.2103   -4.3527 C.3     1  UNL1        0.1761
     34 O          18.8498   70.4061   -7.8578 O.3     1  UNL1       -0.3775
     35 O          21.6183   71.2166   -7.6119 O.3     1  UNL1       -0.3794
     36 O          21.1955   73.4775   -6.0634 O.3     1  UNL1       -0.3794
     37 O          18.7830   72.5821   -4.9097 O.3     1  UNL1       -0.3258
     38 H          17.9492   70.6319   -8.1278 H       1  UNL1        0.2106
     39 H          21.3274   70.5551   -8.2522 H       1  UNL1        0.2105
     40 H          21.8715   73.4156   -6.7507 H       1  UNL1        0.2105
     41 C          20.4423   73.2235   -3.2775 C.3     1  UNL1        0.1693
     42 O          21.7111   72.8607   -2.7301 O.3     1  UNL1       -0.3794
     43 H          21.9260   73.5229   -2.0589 H       1  UNL1        0.2105
@<TRIPOS>BOND
     1    15    16   ar
     2    15    20   ar
     3    15     6    1
     4    16    17   ar
     5    16    21    2
     6    17    18   ar
     7    17    23    1
     8    18    19   ar
     9    18    22    2
    10    19    20   ar
    11     6     7    1
    12     6    11    1
    13     7     8    1
    14     7     9    1
    15     8    13    1
    16     9    10    1
    17     9    12    1
    18    10    11    1
    19    10     5    1
    20    12    14    1
    21     5     4    1
    22     4     1    1
    23     1     2    2
    24     1     3    1
    25     1    24    1
    26    24    25    1
    27    25    26    2
    28    25    27    1
    29    25    28    1
    30    28    29    1
    31    29    30    1
    32    29    37    1
    33    30    31    1
    34    30    34    1
    35    31    32    1
    36    31    35    1
    37    32    33    1
    38    32    36    1
    39    33    41    1
    40    33    37    1
    41    41    42    1
    42    34    38    1
    43    35    39    1
    44    36    40    1
    45    42    43    1
@<TRIPOS>MOLECULE
GDU
 43 45 0 0 0
SMALL
GASTEIGER

@<TRIPOS>ATOM
      1 P          23.5694   72.3570   -3.6534 P.3     1  UNL1        0.2189
      2 O          24.1217   71.0709   -3.1734 O.2     1  UNL1       -0.5170
      3 O          24.7747   73.3188   -4.1174 O.3     1  UNL1       -0.4371
      4 O          22.5874   72.0885   -4.8986 O.3     1  UNL1       -0.3112
      5 C          22.5355   73.3001   -5.6534 C.3     1  UNL1        0.1811
      6 C          19.3186   72.2536   -6.8713 C.3     1  UNL1        0.2383
      7 C          19.0681   73.6600   -6.2695 C.3     1  UNL1        0.1895
      8 O          18.0138   74.3311   -6.9633 O.3     1  UNL1       -0.3779
      9 C          20.4277   74.3649   -6.5141 C.3     1  UNL1        0.1713
     10 C          21.4230   73.2045   -6.6990 C.3     1  UNL1        0.1764
     11 O          20.6923   71.9783   -6.5239 O.3     1  UNL1       -0.3308
     12 O          20.3668   75.1730   -7.6911 O.3     1  UNL1       -0.3794
     13 H          17.9086   75.1954   -6.5418 H       1  UNL1        0.2106
     14 H          19.6868   75.8425   -7.5363 H       1  UNL1        0.2105
     15 N          18.4253   71.2645   -6.2659 N.ar    1  UNL1       -0.2551
     16 C          17.2500   70.9792   -6.8538 C.ar    1  UNL1        0.3323
     17 N          16.4120   70.0712   -6.3197 N.ar    1  UNL1       -0.2743
     18 C          16.7353   69.4377   -5.1758 C.ar    1  UNL1        0.2626
     19 C          17.9674   69.7324   -4.5424 C.ar    1  UNL1        0.0795
     20 C          18.7911   70.6440   -5.1017 C.ar    1  UNL1        0.0869
     21 O          16.9450   71.5422   -7.8863 O.2     1  UNL1       -0.2464
     22 O          15.9753   68.6192   -4.6890 O.2     1  UNL1       -0.2670
     23 H          15.5698   69.8746   -6.7597 H       1  UNL1        0.1734
     24 O          22.7478   73.0647   -2.4632 O.3     1  UNL1       -0.2703
     25 P          21.6805   71.9859   -1.9272 P.3     1  UNL1        0.2208
     26 O          20.3146   72.4185   -2.2961 O.2     1  UNL1       -0.5170
     27 O          21.9869   70.5518   -2.5931 O.3     1  UNL1       -0.4371
     28 O          21.7931   71.8678   -0.3261 O.3     1  UNL1       -0.2858
     29 C          22.9055   72.6703    0.0720 C.3     1  UNL1        0.2704
     30 C          24.0175   71.7683    0.6095 C.3     1  UNL1        0.1967
     31 C          23.4777   70.9650    1.7968 C.3     1  UNL1        0.1715
     32 C          22.8787   71.9401    2.8165 C.3     1  UNL1        0.1694
     33 C          21.8507   72.8284    2.1114 C.3     1  UNL1        0.1761
     34 O          24.4481   70.8747   -0.4187 O.3     1  UNL1       -0.3775
     35 O          24.5424   70.2280    2.4017 O.3     1  UNL1       -0.3794
     36 O          23.9168   72.7497    3.3705 O.3     1  UNL1       -0.3794
     37 O          22.4915   73.5844    1.0847 O.3     1  UNL1       -0.3258
     38 H          24.7723   71.4225   -1.1466 H       1  UNL1        0.2106
     39 H          24.8956   69.6387    1.7233 H       1  UNL1        0.2105
     40 H          24.5418   72.1496    3.7979 H       1  UNL1        0.2105
     41 C          21.2214   73.7833    3.1283 C.3     1  UNL1        0.1693
     42 O          21.1754   73.1514    4.4087 O.3     1  UNL1       -0.3794
     43 H          20.7739   73.7850    5.0192 H       1  UNL1        0.2105
@<TRIPOS>BOND
     1    15    16   ar
     2    15    20   ar
     3    15     6    1
     4    16    17   ar
     5    16    21    2
     6    17    18   ar
     7    17    23    1
     8    18    19   ar
     9    18    22    2
    10    19    20   ar
    11     6     7    1
    12     6    11    1
    13     7     8    1
    14     7     9    1
    15     8    13    1
    16     9    10    1
    17     9    12    1
    18    10    11    1
    19    10     5    1
    20    12    14    1
    21     5     4    1
    22     4     1    1
    23     1     2    2
    24     1     3    1
    25     1    24    1
    26    24    25    1
    27    25    26    2
    28    25    27    1
    29    25    28    1
    30    28    29    1
    31    29    30    1
    32    29    37    1
    33    30    31    1
    34    30    34    1
    35    31    32    1
    36    31    35    1
    37    32    33    1
    38    32    36    1
    39    33    41    1
    40    33    37    1
    41    41    42    1
    42    34    38    1
    43    35    39    1
    44    36    40    1
    45    42    43    1
@<TRIPOS>MOLECULE
GDU
 43 45 0 0 0
SMALL
GASTEIGER

@<TRIPOS>ATOM
      1 P          16.3577   70.0516   -2.1461 P.3     1  UNL1        0.2189
      2 O          17.4768   69.1799   -1.7250 O.2     1  UNL1       -0.5170
      3 O          15.6220   69.4013   -3.4223 O.3     1  UNL1       -0.4371
      4 O          15.3066   70.1976   -0.9375 O.3     1  UNL1       -0.3112
      5 C          14.4652   69.0440   -0.9791 C.3     1  UNL1        0.1811
      6 C          10.9185   68.5343   -0.6822 C.3     1  UNL1        0.2383
      7 C          11.5075   67.9417    0.6236 C.3     1  UNL1        0.1895
      8 O          10.5827   68.0729    1.7056 O.3     1  UNL1       -0.3779
      9 C          12.7555   68.8338    0.8512 C.3     1  UNL1        0.1713
     10 C          13.0508   69.4261   -0.5393 C.3     1  UNL1        0.1764
     11 O          12.0888   68.8751   -1.4553 O.3     1  UNL1       -0.3308
     12 O          12.4645   69.8693    1.7920 O.3     1  UNL1       -0.3794
     13 H          11.0078   67.6867    2.4841 H       1  UNL1        0.2106
     14 H          12.2305   69.4347    2.6233 H       1  UNL1        0.2105
     15 N          10.1088   67.5372   -1.3843 N.ar    1  UNL1       -0.2551
     16 C          10.4040   66.2311   -1.2605 C.ar    1  UNL1        0.3323
     17 N           9.6732   65.2940   -1.8926 N.ar    1  UNL1       -0.2743
     18 C           8.6347   65.6527   -2.6717 C.ar    1  UNL1        0.2626
     19 C           8.3156   67.0252   -2.8161 C.ar    1  UNL1        0.0795
     20 C           9.0623   67.9440   -2.1676 C.ar    1  UNL1        0.0869
     21 O          11.3376   65.8923   -0.5607 O.2     1  UNL1       -0.2464
     22 O           7.9756   64.8055   -3.2482 O.2     1  UNL1       -0.2670
     23 H           9.8979   64.3557   -1.7885 H       1  UNL1        0.1734
     24 O          16.9293   71.5042   -2.5404 O.3     1  UNL1       -0.2703
     25 P          18.3745   71.2713   -3.2091 P.3     1  UNL1        0.2208
     26 O          19.1040   72.5572   -3.2671 O.2     1  UNL1       -0.5170
     27 O          19.2122   70.2192   -2.3228 O.3     1  UNL1       -0.4371
     28 O          18.1905   70.6899   -4.6984 O.3     1  UNL1       -0.2858
     29 C          17.9855   71.8110   -5.5591 C.3     1  UNL1        0.2704
     30 C          16.6596   71.6456   -6.3035 C.3     1  UNL1        0.1967
     31 C          16.6999   70.3443   -7.1106 C.3     1  UNL1        0.1715
     32 C          17.9493   70.3569   -7.9986 C.3     1  UNL1        0.1694
     33 C          19.1785   70.6182   -7.1246 C.3     1  UNL1        0.1761
     34 O          15.5857   71.5940   -5.3626 O.3     1  UNL1       -0.3775
     35 O          15.5298   70.2484   -7.9255 O.3     1  UNL1       -0.3794
     36 O          17.8274   71.3870   -8.9804 O.3     1  UNL1       -0.3794
     37 O          19.0587   71.8926   -6.4941 O.3     1  UNL1       -0.3258
     38 H          15.6030   72.4279   -4.8736 H       1  UNL1        0.2106
     39 H          14.7713   70.2560   -7.3281 H       1  UNL1        0.2105
     40 H          17.0396   71.1849   -9.5018 H       1  UNL1        0.2105
     41 C          20.4358   70.5987   -7.9968 C.3     1  UNL1        0.1693
     42 O          20.7160   71.9219   -8.4567 O.3     1  UNL1       -0.3794
     43 H          21.5138   71.8661   -9.0005 H       1  UNL1        0.2105
@<TRIPOS>BOND
     1    15    16   ar
     2    15    20   ar
     3    15     6    1
     4    16    17   ar
     5    16    21    2
     6    17    18   ar
     7    17    23    1
     8    18    19   ar
     9    18    22    2
    10    19    20   ar
    11     6     7    1
    12     6    11    1
    13     7     8    1
    14     7     9    1
    15     8    13    1
    16     9    10    1
    17     9    12    1
    18    10    11    1
    19    10     5    1
    20    12    14    1
    21     5     4    1
    22     4     1    1
    23     1     2    2
    24     1     3    1
    25     1    24    1
    26    24    25    1
    27    25    26    2
    28    25    27    1
    29    25    28    1
    30    28    29    1
    31    29    30    1
    32    29    37    1
    33    30    31    1
    34    30    34    1
    35    31    32    1
    36    31    35    1
    37    32    33    1
    38    32    36    1
    39    33    41    1
    40    33    37    1
    41    41    42    1
    42    34    38    1
    43    35    39    1
    44    36    40    1
    45    42    43    1
@<TRIPOS>MOLECULE
GDU
 43 45 0 0 0
SMALL
GASTEIGER

@<TRIPOS>ATOM
      1 P          23.1914   72.1274   -3.6886 P.3     1  UNL1        0.2189
      2 O          23.6641   72.8349   -4.8992 O.2     1  UNL1       -0.5170
      3 O          24.2683   71.0069   -3.2671 O.3     1  UNL1       -0.4371
      4 O          23.0139   73.1805   -2.4860 O.3     1  UNL1       -0.3112
      5 C          21.9547   72.6922   -1.6613 C.3     1  UNL1        0.1811
      6 C          23.9005   71.7843    1.2225 C.3     1  UNL1        0.2383
      7 C          22.4776   72.0448    1.7796 C.3     1  UNL1        0.1895
      8 O          22.2190   71.2248    2.9214 O.3     1  UNL1       -0.3779
      9 C          21.5800   71.6289    0.5852 C.3     1  UNL1        0.1713
     10 C          22.5179   71.7090   -0.6336 C.3     1  UNL1        0.1764
     11 O          23.7958   72.1722   -0.1639 O.3     1  UNL1       -0.3308
     12 O          21.0949   70.2969    0.7649 O.3     1  UNL1       -0.3794
     13 H          21.3224   71.4346    3.2181 H       1  UNL1        0.2106
     14 H          20.5647   70.2986    1.5734 H       1  UNL1        0.2105
     15 N          24.8881   72.6124    1.9166 N.ar    1  UNL1       -0.2551
     16 C          25.9383   72.0309    2.5226 C.ar    1  UNL1        0.3323
     17 N          26.8624   72.7696    3.1646 N.ar    1  UNL1       -0.2743
     18 C          26.7435   74.1102    3.2187 C.ar    1  UNL1        0.2626
     19 C          25.6394   74.7361    2.5899 C.ar    1  UNL1        0.0795
     20 C          24.7295   73.9718    1.9493 C.ar    1  UNL1        0.0869
     21 O          26.0592   70.8227    2.4818 O.2     1  UNL1       -0.2464
     22 O          27.5769   74.7794    3.8037 O.2     1  UNL1       -0.2670
     23 H          27.6163   72.3336    3.5927 H       1  UNL1        0.1734
     24 O          21.7778   71.4215   -3.9985 O.3     1  UNL1       -0.2703
     25 P          21.2744   71.9883   -5.4180 P.3     1  UNL1        0.2208
     26 O          20.7625   73.3658   -5.2454 O.2     1  UNL1       -0.5170
     27 O          22.5044   71.9998   -6.4578 O.3     1  UNL1       -0.4371
     28 O          20.1006   71.0461   -5.9876 O.3     1  UNL1       -0.2858
     29 C          19.0797   71.9110   -6.4870 C.3     1  UNL1        0.2704
     30 C          17.7725   71.6398   -5.7407 C.3     1  UNL1        0.1967
     31 C          17.3816   70.1718   -5.9371 C.3     1  UNL1        0.1715
     32 C          17.3495   69.8701   -7.4397 C.3     1  UNL1        0.1694
     33 C          18.6906   70.2740   -8.0572 C.3     1  UNL1        0.1761
     34 O          17.9519   71.9067   -4.3486 O.3     1  UNL1       -0.3775
     35 O          16.0904   69.9388   -5.3705 O.3     1  UNL1       -0.3794
     36 O          16.2932   70.6102   -8.0532 O.3     1  UNL1       -0.3794
     37 O          18.8991   71.6746   -7.8813 O.3     1  UNL1       -0.3258
     38 H          18.2034   72.8372   -4.2732 H       1  UNL1        0.2106
     39 H          16.1544   70.1521   -4.4310 H       1  UNL1        0.2105
     40 H          15.4716   70.3282   -7.6304 H       1  UNL1        0.2105
     41 C          18.6816   69.9451   -9.5518 C.3     1  UNL1        0.1693
     42 O          19.2462   71.0355  -10.2820 O.3     1  UNL1       -0.3794
     43 H          19.2226   70.7884  -11.2167 H       1  UNL1        0.2105
@<TRIPOS>BOND
     1    15    16   ar
     2    15    20   ar
     3    15     6    1
     4    16    17   ar
     5    16    21    2
     6    17    18   ar
     7    17    23    1
     8    18    19   ar
     9    18    22    2
    10    19    20   ar
    11     6     7    1
    12     6    11    1
    13     7     8    1
    14     7     9    1
    15     8    13    1
    16     9    10    1
    17     9    12    1
    18    10    11    1
    19    10     5    1
    20    12    14    1
    21     5     4    1
    22     4     1    1
    23     1     2    2
    24     1     3    1
    25     1    24    1
    26    24    25    1
    27    25    26    2
    28    25    27    1
    29    25    28    1
    30    28    29    1
    31    29    30    1
    32    29    37    1
    33    30    31    1
    34    30    34    1
    35    31    32    1
    36    31    35    1
    37    32    33    1
    38    32    36    1
    39    33    41    1
    40    33    37    1
    41    41    42    1
    42    34    38    1
    43    35    39    1
    44    36    40    1
    45    42    43    1
@<TRIPOS>MOLECULE
GDU
 43 45 0 0 0
SMALL
GASTEIGER

@<TRIPOS>ATOM
      1 P          21.0644   71.7562   -2.6701 P.3     1  UNL1        0.2189
      2 O          21.9327   71.6631   -1.4755 O.2     1  UNL1       -0.5170
      3 O          21.3591   70.5097   -3.6460 O.3     1  UNL1       -0.4371
      4 O          19.5217   71.7293   -2.2161 O.3     1  UNL1       -0.3112
      5 C          19.0109   70.4410   -2.5621 C.3     1  UNL1        0.1811
      6 C          17.2110   70.4829   -5.6743 C.3     1  UNL1        0.2383
      7 C          17.0500   69.0326   -5.1513 C.3     1  UNL1        0.1895
      8 O          15.8043   68.4734   -5.5739 O.3     1  UNL1       -0.3779
      9 C          17.0712   69.2374   -3.6141 C.3     1  UNL1        0.1713
     10 C          17.7600   70.6021   -3.4278 C.3     1  UNL1        0.1764
     11 O          18.1277   71.0807   -4.7332 O.3     1  UNL1       -0.3308
     12 O          15.7400   69.2664   -3.0955 O.3     1  UNL1       -0.3794
     13 H          15.7667   67.5748   -5.2174 H       1  UNL1        0.2106
     14 H          15.3430   68.4077   -3.2947 H       1  UNL1        0.2105
     15 N          17.7806   70.4869   -7.0228 N.ar    1  UNL1       -0.2551
     16 C          16.9654   70.4392   -8.0912 C.ar    1  UNL1        0.3323
     17 N          17.4634   70.4453   -9.3417 N.ar    1  UNL1       -0.2743
     18 C          18.7944   70.4896   -9.5435 C.ar    1  UNL1        0.2626
     19 C          19.6654   70.5344   -8.4274 C.ar    1  UNL1        0.0795
     20 C          19.1393   70.5315   -7.1841 C.ar    1  UNL1        0.0869
     21 O          15.7626   70.3994   -7.9250 O.2     1  UNL1       -0.2464
     22 O          19.2462   70.4903  -10.6750 O.2     1  UNL1       -0.2670
     23 H          16.8601   70.4147  -10.1013 H       1  UNL1        0.1734
     24 O          21.3718   73.1309   -3.4499 O.3     1  UNL1       -0.2703
     25 P          22.9623   73.1861   -3.6891 P.3     1  UNL1        0.2208
     26 O          23.6530   72.5061   -2.5712 O.2     1  UNL1       -0.5170
     27 O          23.3228   72.4442   -5.0725 O.3     1  UNL1       -0.4371
     28 O          23.4420   74.7205   -3.7637 O.3     1  UNL1       -0.2858
     29 C          24.8495   74.7275   -3.5218 C.3     1  UNL1        0.2704
     30 C          25.1517   75.5956   -2.2993 C.3     1  UNL1        0.1967
     31 C          24.6403   77.0162   -2.5579 C.3     1  UNL1        0.1715
     32 C          25.2357   77.5187   -3.8780 C.3     1  UNL1        0.1694
     33 C          24.9251   76.5048   -4.9819 C.3     1  UNL1        0.1761
     34 O          24.4972   75.0511   -1.1520 O.3     1  UNL1       -0.3775
     35 O          25.0446   77.8741   -1.4887 O.3     1  UNL1       -0.3794
     36 O          26.6498   77.6637   -3.7398 O.3     1  UNL1       -0.3794
     37 O          25.5238   75.2491   -4.6645 O.3     1  UNL1       -0.3258
     38 H          24.8436   74.1564   -1.0316 H       1  UNL1        0.2106
     39 H          24.6586   77.5144   -0.6801 H       1  UNL1        0.2105
     40 H          26.7976   78.3047   -3.0323 H       1  UNL1        0.2105
     41 C          25.4858   77.0137   -6.3118 C.3     1  UNL1        0.1693
     42 O          26.3949   76.0491   -6.8448 O.3     1  UNL1       -0.3794
     43 H          26.7242   76.4068   -7.6807 H       1  UNL1        0.2105
@<TRIPOS>BOND
     1    15    16   ar
     2    15    20   ar
     3    15     6    1
     4    16    17   ar
     5    16    21    2
     6    17    18   ar
     7    17    23    1
     8    18    19   ar
     9    18    22    2
    10    19    20   ar
    11     6     7    1
    12     6    11    1
    13     7     8    1
    14     7     9    1
    15     8    13    1
    16     9    10    1
    17     9    12    1
    18    10    11    1
    19    10     5    1
    20    12    14    1
    21     5     4    1
    22     4     1    1
    23     1     2    2
    24     1     3    1
    25     1    24    1
    26    24    25    1
    27    25    26    2
    28    25    27    1
    29    25    28    1
    30    28    29    1
    31    29    30    1
    32    29    37    1
    33    30    31    1
    34    30    34    1
    35    31    32    1
    36    31    35    1
    37    32    33    1
    38    32    36    1
    39    33    41    1
    40    33    37    1
    41    41    42    1
    42    34    38    1
    43    35    39    1
    44    36    40    1
    45    42    43    1
@<TRIPOS>MOLECULE
GDU
 43 45 0 0 0
SMALL
GASTEIGER

@<TRIPOS>ATOM
      1 P          19.9570   71.9458   -1.4835 P.3     1  UNL1        0.2189
      2 O          21.1068   71.1165   -1.9076 O.2     1  UNL1       -0.5170
      3 O          19.6876   73.0916   -2.5823 O.3     1  UNL1       -0.4371
      4 O          18.6498   71.0195   -1.3425 O.3     1  UNL1       -0.3112
      5 C          18.6699   70.1056   -2.4403 C.3     1  UNL1        0.1811
      6 C          17.0730   70.4632   -5.6417 C.3     1  UNL1        0.2383
      7 C          16.8180   68.9872   -5.2424 C.3     1  UNL1        0.1895
      8 O          15.5788   68.5202   -5.7804 O.3     1  UNL1       -0.3779
      9 C          16.7510   69.0761   -3.6955 C.3     1  UNL1        0.1713
     10 C          17.4839   70.3893   -3.3640 C.3     1  UNL1        0.1764
     11 O          17.9531   70.9456   -4.6044 O.3     1  UNL1       -0.3308
     12 O          15.3922   69.1292   -3.2566 O.3     1  UNL1       -0.3794
     13 H          15.4807   67.6004   -5.4970 H       1  UNL1        0.2106
     14 H          14.9724   68.3072   -3.5446 H       1  UNL1        0.2105
     15 N          17.7261   70.5405   -6.9495 N.ar    1  UNL1       -0.2551
     16 C          19.0678   70.4984   -7.0284 C.ar    1  UNL1        0.3323
     17 N          19.6930   70.5641   -8.2187 N.ar    1  UNL1       -0.2743
     18 C          18.9803   70.6837   -9.3553 C.ar    1  UNL1        0.2626
     19 C          17.5665   70.7352   -9.2871 C.ar    1  UNL1        0.0795
     20 C          16.9648   70.6630   -8.0808 C.ar    1  UNL1        0.0869
     21 O          19.7240   70.3901   -6.0117 O.2     1  UNL1       -0.2464
     22 O          19.5455   70.7481  -10.4328 O.2     1  UNL1       -0.2670
     23 H          20.6620   70.5279   -8.2573 H       1  UNL1        0.1734
     24 O          20.2858   72.6317   -0.0644 O.3     1  UNL1       -0.2703
     25 P          21.3134   71.6560    0.6986 P.3     1  UNL1        0.2208
     26 O          21.0504   70.2552    0.3014 O.2     1  UNL1       -0.5170
     27 O          22.8235   72.0513    0.3018 O.3     1  UNL1       -0.4371
     28 O          21.1201   71.8092    2.2890 O.3     1  UNL1       -0.2858
     29 C          21.6655   73.0780    2.6529 C.3     1  UNL1        0.2704
     30 C          21.7800   73.9590    1.4079 C.3     1  UNL1        0.1967
     31 C          22.6769   73.2589    0.3824 C.3     1  UNL1        0.1715
     32 C          24.0077   72.9052    1.0558 C.3     1  UNL1        0.1694
     33 C          23.7241   72.1017    2.3274 C.3     1  UNL1        0.1761
     34 O          20.4822   74.1672    0.8480 O.3     1  UNL1       -0.3775
     35 O          22.9130   74.1319   -0.7242 O.3     1  UNL1       -0.3794
     36 O          24.7082   74.1045    1.3888 O.3     1  UNL1       -0.3794
     37 O          22.9541   72.8905    3.2334 O.3     1  UNL1       -0.3258
     38 H          19.9511   74.6025    1.5287 H       1  UNL1        0.2106
     39 H          22.0511   74.3366   -1.1081 H       1  UNL1        0.2105
     40 H          24.8596   74.5793    0.5612 H       1  UNL1        0.2105
     41 C          25.0481   71.7139    2.9895 C.3     1  UNL1        0.1693
     42 O          25.3233   70.3361    2.7311 O.3     1  UNL1       -0.3794
     43 H          26.1640   70.1326    3.1637 H       1  UNL1        0.2105
@<TRIPOS>BOND
     1    15    16   ar
     2    15    20   ar
     3    15     6    1
     4    16    17   ar
     5    16    21    2
     6    17    18   ar
     7    17    23    1
     8    18    19   ar
     9    18    22    2
    10    19    20   ar
    11     6     7    1
    12     6    11    1
    13     7     8    1
    14     7     9    1
    15     8    13    1
    16     9    10    1
    17     9    12    1
    18    10    11    1
    19    10     5    1
    20    12    14    1
    21     5     4    1
    22     4     1    1
    23     1     2    2
    24     1     3    1
    25     1    24    1
    26    24    25    1
    27    25    26    2
    28    25    27    1
    29    25    28    1
    30    28    29    1
    31    29    30    1
    32    29    37    1
    33    30    31    1
    34    30    34    1
    35    31    32    1
    36    31    35    1
    37    32    33    1
    38    32    36    1
    39    33    41    1
    40    33    37    1
    41    41    42    1
    42    34    38    1
    43    35    39    1
    44    36    40    1
    45    42    43    1
@<TRIPOS>MOLECULE
GDU
 43 45 0 0 0
SMALL
GASTEIGER

@<TRIPOS>ATOM
      1 P          18.5320   73.2847   -1.9348 P.3     1  UNL1        0.2189
      2 O          19.0778   72.9242   -3.2621 O.2     1  UNL1       -0.5170
      3 O          17.4607   74.4754   -2.1004 O.3     1  UNL1       -0.4371
      4 O          17.8123   72.0021   -1.2837 O.3     1  UNL1       -0.3112
      5 C          16.4635   72.0013   -1.7541 C.3     1  UNL1        0.1811
      6 C          17.0065   69.7878   -4.5349 C.3     1  UNL1        0.2383
      7 C          17.9505   69.2577   -3.4255 C.3     1  UNL1        0.1895
      8 O          18.1241   67.8432   -3.5366 O.3     1  UNL1       -0.3779
      9 C          17.1704   69.6195   -2.1349 C.3     1  UNL1        0.1713
     10 C          16.2101   70.7383   -2.5792 C.3     1  UNL1        0.1764
     11 O          16.4701   71.0024   -3.9688 O.3     1  UNL1       -0.3308
     12 O          16.4424   68.4866   -1.6570 O.3     1  UNL1       -0.3794
     13 H          18.7191   67.5783   -2.8214 H       1  UNL1        0.2106
     14 H          17.0931   67.8017   -1.4517 H       1  UNL1        0.2105
     15 N          17.7561   70.0763   -5.7587 N.ar    1  UNL1       -0.2551
     16 C          17.1484   69.9704   -6.9536 C.ar    1  UNL1        0.3323
     17 N          17.8140   70.2334   -8.0936 N.ar    1  UNL1       -0.2743
     18 C          19.1097   70.5994   -8.0556 C.ar    1  UNL1        0.2626
     19 C          19.7644   70.7095   -6.8044 C.ar    1  UNL1        0.0795
     20 C          19.0722   70.4441   -5.6762 C.ar    1  UNL1        0.0869
     21 O          15.9799   69.6418   -7.0037 O.2     1  UNL1       -0.2464
     22 O          19.7143   70.8330   -9.0872 O.2     1  UNL1       -0.2670
     23 H          17.3585   70.1561   -8.9470 H       1  UNL1        0.1734
     24 O          19.7309   73.7727   -0.9771 O.3     1  UNL1       -0.2703
     25 P          20.8221   72.5900   -0.9560 P.3     1  UNL1        0.2208
     26 O          20.1313   71.2825   -0.9074 O.2     1  UNL1       -0.5170
     27 O          21.7255   72.6698   -2.2870 O.3     1  UNL1       -0.4371
     28 O          21.7629   72.7494    0.3400 O.3     1  UNL1       -0.2858
     29 C          21.1887   71.9451    1.3711 C.3     1  UNL1        0.2704
     30 C          20.6328   72.8495    2.4722 C.3     1  UNL1        0.1967
     31 C          21.7689   73.7129    3.0292 C.3     1  UNL1        0.1715
     32 C          22.9179   72.7935    3.4583 C.3     1  UNL1        0.1694
     33 C          23.3021   71.8941    2.2808 C.3     1  UNL1        0.1761
     34 O          19.6119   73.6899    1.9313 O.3     1  UNL1       -0.3775
     35 O          21.2991   74.4561    4.1558 O.3     1  UNL1       -0.3794
     36 O          22.5001   71.9903    4.5629 O.3     1  UNL1       -0.3794
     37 O          22.1878   71.0832    1.9109 O.3     1  UNL1       -0.3258
     38 H          18.9229   73.1056    1.5868 H       1  UNL1        0.2106
     39 H          20.5721   75.0091    3.8429 H       1  UNL1        0.2105
     40 H          22.2632   72.5970    5.2764 H       1  UNL1        0.2105
     41 C          24.4719   70.9955    2.6880 C.3     1  UNL1        0.1693
     42 O          24.5888   69.9167    1.7588 O.3     1  UNL1       -0.3794
     43 H          25.3358   69.3760    2.0501 H       1  UNL1        0.2105
@<TRIPOS>BOND
     1    15    16   ar
     2    15    20   ar
     3    15     6    1
     4    16    17   ar
     5    16    21    2
     6    17    18   ar
     7    17    23    1
     8    18    19   ar
     9    18    22    2
    10    19    20   ar
    11     6     7    1
    12     6    11    1
    13     7     8    1
    14     7     9    1
    15     8    13    1
    16     9    10    1
    17     9    12    1
    18    10    11    1
    19    10     5    1
    20    12    14    1
    21     5     4    1
    22     4     1    1
    23     1     2    2
    24     1     3    1
    25     1    24    1
    26    24    25    1
    27    25    26    2
    28    25    27    1
    29    25    28    1
    30    28    29    1
    31    29    30    1
    32    29    37    1
    33    30    31    1
    34    30    34    1
    35    31    32    1
    36    31    35    1
    37    32    33    1
    38    32    36    1
    39    33    41    1
    40    33    37    1
    41    41    42    1
    42    34    38    1
    43    35    39    1
    44    36    40    1
    45    42    43    1
@<TRIPOS>MOLECULE
GDU
 43 45 0 0 0
SMALL
GASTEIGER

@<TRIPOS>ATOM
      1 P          21.7566   72.5672   -6.3706 P.3     1  UNL1        0.2189
      2 O          23.1887   72.8822   -6.5691 O.2     1  UNL1       -0.5170
      3 O          20.8553   73.6831   -7.1023 O.3     1  UNL1       -0.4371
      4 O          21.4331   71.1212   -6.9963 O.3     1  UNL1       -0.3112
      5 C          20.6626   71.3448   -8.1782 C.3     1  UNL1        0.1811
      6 C          17.5065   70.1249   -6.9625 C.3     1  UNL1        0.2383
      7 C          17.1301   71.1379   -8.0739 C.3     1  UNL1        0.1895
      8 O          15.9090   70.7617   -8.7146 O.3     1  UNL1       -0.3779
      9 C          18.3289   71.0100   -9.0495 C.3     1  UNL1        0.1713
     10 C          19.4526   70.4089   -8.1850 C.3     1  UNL1        0.1764
     11 O          18.9386   70.2654   -6.8495 O.3     1  UNL1       -0.3308
     12 O          18.0007   70.1376  -10.1326 O.3     1  UNL1       -0.3794
     13 H          15.7321   71.4295   -9.3917 H       1  UNL1        0.2106
     14 H          17.2547   70.5384  -10.5990 H       1  UNL1        0.2105
     15 N          16.8528   70.4743   -5.7002 N.ar    1  UNL1       -0.2551
     16 C          16.4823   69.5012   -4.8494 C.ar    1  UNL1        0.3323
     17 N          15.8828   69.7956   -3.6807 N.ar    1  UNL1       -0.2743
     18 C          15.6342   71.0769   -3.3479 C.ar    1  UNL1        0.2626
     19 C          16.0137   72.1122   -4.2369 C.ar    1  UNL1        0.0795
     20 C          16.6173   71.7892   -5.4005 C.ar    1  UNL1        0.0869
     21 O          16.7004   68.3408   -5.1357 O.2     1  UNL1       -0.2464
     22 O          15.0873   71.3441   -2.2924 O.2     1  UNL1       -0.2670
     23 H          15.6260   69.0808   -3.0767 H       1  UNL1        0.1734
     24 O          21.4233   72.5585   -4.7954 O.3     1  UNL1       -0.2703
     25 P          22.7322   73.1097   -4.0385 P.3     1  UNL1        0.2208
     26 O          23.9024   72.2855   -4.4133 O.2     1  UNL1       -0.5170
     27 O          22.9950   74.6400   -4.4668 O.3     1  UNL1       -0.4371
     28 O          22.5065   73.0305   -2.4470 O.3     1  UNL1       -0.2858
     29 C          21.8710   71.7796   -2.1798 C.3     1  UNL1        0.2704
     30 C          20.5614   72.0241   -1.4284 C.3     1  UNL1        0.1967
     31 C          20.8664   72.7655   -0.1232 C.3     1  UNL1        0.1715
     32 C          21.9261   71.9756    0.6531 C.3     1  UNL1        0.1694
     33 C          23.1339   71.7364   -0.2563 C.3     1  UNL1        0.1761
     34 O          19.6865   72.8137   -2.2360 O.3     1  UNL1       -0.3775
     35 O          19.6747   72.8714    0.6586 O.3     1  UNL1       -0.3794
     36 O          21.3793   70.7232    1.0686 O.3     1  UNL1       -0.3794
     37 O          22.7374   70.9674   -1.3909 O.3     1  UNL1       -0.3258
     38 H          19.5280   72.3128   -3.0477 H       1  UNL1        0.2106
     39 H          19.0349   73.3630    0.1283 H       1  UNL1        0.2105
     40 H          20.6205   70.9223    1.6323 H       1  UNL1        0.2105
     41 C          24.2126   70.9778    0.5202 C.3     1  UNL1        0.1693
     42 O          23.6183   70.3214    1.6414 O.3     1  UNL1       -0.3794
     43 H          24.3296   69.8557    2.1024 H       1  UNL1        0.2105
@<TRIPOS>BOND
     1    15    16   ar
     2    15    20   ar
     3    15     6    1
     4    16    17   ar
     5    16    21    2
     6    17    18   ar
     7    17    23    1
     8    18    19   ar
     9    18    22    2
    10    19    20   ar
    11     6     7    1
    12     6    11    1
    13     7     8    1
    14     7     9    1
    15     8    13    1
    16     9    10    1
    17     9    12    1
    18    10    11    1
    19    10     5    1
    20    12    14    1
    21     5     4    1
    22     4     1    1
    23     1     2    2
    24     1     3    1
    25     1    24    1
    26    24    25    1
    27    25    26    2
    28    25    27    1
    29    25    28    1
    30    28    29    1
    31    29    30    1
    32    29    37    1
    33    30    31    1
    34    30    34    1
    35    31    32    1
    36    31    35    1
    37    32    33    1
    38    32    36    1
    39    33    41    1
    40    33    37    1
    41    41    42    1
    42    34    38    1
    43    35    39    1
    44    36    40    1
    45    42    43    1
@<TRIPOS>MOLECULE
GDU
 43 45 0 0 0
SMALL
GASTEIGER

@<TRIPOS>ATOM
      1 P          22.2815   71.5903    0.4270 P.3     1  UNL1        0.2189
      2 O          21.9746   72.6481    1.4151 O.2     1  UNL1       -0.5170
      3 O          21.5062   70.2378    0.8306 O.3     1  UNL1       -0.4371
      4 O          21.8060   72.0658   -1.0340 O.3     1  UNL1       -0.3112
      5 C          21.0498   70.9907   -1.5933 C.3     1  UNL1        0.1811
      6 C          20.7473   70.5737   -5.1517 C.3     1  UNL1        0.2383
      7 C          21.2099   72.0420   -4.9699 C.3     1  UNL1        0.1895
      8 O          22.0027   72.4680   -6.0805 O.3     1  UNL1       -0.3779
      9 C          22.0664   71.9554   -3.6798 C.3     1  UNL1        0.1713
     10 C          21.5779   70.6670   -2.9921 C.3     1  UNL1        0.1764
     11 O          20.5199   70.1223   -3.7996 O.3     1  UNL1       -0.3308
     12 O          23.4542   71.8606   -4.0069 O.3     1  UNL1       -0.3794
     13 H          22.2568   73.3850   -5.9062 H       1  UNL1        0.2106
     14 H          23.6848   72.6680   -4.4861 H       1  UNL1        0.2105
     15 N          19.5094   70.5133   -5.9307 N.ar    1  UNL1       -0.2551
     16 C          19.5680   70.3521   -7.2644 C.ar    1  UNL1        0.3323
     17 N          18.4447   70.2899   -8.0034 N.ar    1  UNL1       -0.2743
     18 C          17.2374   70.3987   -7.4161 C.ar    1  UNL1        0.2626
     19 C          17.1605   70.5747   -6.0128 C.ar    1  UNL1        0.0795
     20 C          18.3026   70.6294   -5.2949 C.ar    1  UNL1        0.0869
     21 O          20.6498   70.2519   -7.8082 O.2     1  UNL1       -0.2464
     22 O          16.2202   70.3473   -8.0848 O.2     1  UNL1       -0.2670
     23 H          18.5055   70.1689   -8.9644 H       1  UNL1        0.1734
     24 O          23.8677   71.3141    0.4131 O.3     1  UNL1       -0.2703
     25 P          24.3998   71.5745    1.9094 P.3     1  UNL1        0.2208
     26 O          23.2544   71.5810    2.8459 O.2     1  UNL1       -0.5170
     27 O          25.4256   70.4044    2.3251 O.3     1  UNL1       -0.4371
     28 O          25.1539   72.9949    1.9725 O.3     1  UNL1       -0.2858
     29 C          24.6742   73.6680    3.1372 C.3     1  UNL1        0.2704
     30 C          24.2887   75.1028    2.7735 C.3     1  UNL1        0.1967
     31 C          25.5161   75.8191    2.2018 C.3     1  UNL1        0.1715
     32 C          26.6704   75.6873    3.2017 C.3     1  UNL1        0.1694
     33 C          26.8766   74.2068    3.5315 C.3     1  UNL1        0.1761
     34 O          23.2452   75.0854    1.7979 O.3     1  UNL1       -0.3775
     35 O          25.2127   77.2002    1.9945 O.3     1  UNL1       -0.3794
     36 O          26.3546   76.4079    4.3938 O.3     1  UNL1       -0.3794
     37 O          25.6951   73.6784    4.1322 O.3     1  UNL1       -0.3258
     38 H          22.4977   74.6200    2.1972 H       1  UNL1        0.2106
     39 H          24.4764   77.2344    1.3708 H       1  UNL1        0.2105
     40 H          26.2280   77.3307    4.1377 H       1  UNL1        0.2105
     41 C          28.0498   74.0612    4.5033 C.3     1  UNL1        0.1693
     42 O          27.5740   74.1837    5.8449 O.3     1  UNL1       -0.3794
     43 H          28.3421   74.0855    6.4243 H       1  UNL1        0.2105
@<TRIPOS>BOND
     1    15    16   ar
     2    15    20   ar
     3    15     6    1
     4    16    17   ar
     5    16    21    2
     6    17    18   ar
     7    17    23    1
     8    18    19   ar
     9    18    22    2
    10    19    20   ar
    11     6     7    1
    12     6    11    1
    13     7     8    1
    14     7     9    1
    15     8    13    1
    16     9    10    1
    17     9    12    1
    18    10    11    1
    19    10     5    1
    20    12    14    1
    21     5     4    1
    22     4     1    1
    23     1     2    2
    24     1     3    1
    25     1    24    1
    26    24    25    1
    27    25    26    2
    28    25    27    1
    29    25    28    1
    30    28    29    1
    31    29    30    1
    32    29    37    1
    33    30    31    1
    34    30    34    1
    35    31    32    1
    36    31    35    1
    37    32    33    1
    38    32    36    1
    39    33    41    1
    40    33    37    1
    41    41    42    1
    42    34    38    1
    43    35    39    1
    44    36    40    1
    45    42    43    1
