@<TRIPOS>MOLECULE
*****
 43 45 0 0 0
SMALL
GASTEIGER

@<TRIPOS>ATOM
      1 P          22.8631   71.7028   -2.5853 P.3     1  UNL1        0.2189
      2 O          22.9146   73.2377   -2.0766 O.co2   1  UNL1       -0.4371
      3 O          24.1252   71.2047   -3.2258 O.2     1  UNL1       -0.5170
      4 O          21.5359   71.6440   -3.5090 O.3     1  UNL1       -0.3112
      5 C          20.7475   70.4669   -3.4856 C.3     1  UNL1        0.1811
      6 O          18.8027   71.5244   -4.4199 O.3     1  UNL1       -0.3308
      7 O          17.2349   70.0813   -2.3103 O.3     1  UNL1       -0.3794
      8 O          16.7985   68.5520   -4.5256 O.3     1  UNL1       -0.3779
      9 C          18.3814   69.6453   -3.0388 C.3     1  UNL1        0.1713
     10 C          17.9985   69.2954   -4.4617 C.3     1  UNL1        0.1895
     11 C          19.2939   70.8485   -3.2417 C.3     1  UNL1        0.1764
     12 C          17.8706   70.6680   -5.1002 C.3     1  UNL1        0.2383
     13 H          16.6373   69.3299   -2.1682 H       1  UNL1        0.2105
     14 H          16.9310   67.6873   -4.1066 H       1  UNL1        0.2106
     15 O          16.0108   70.1110   -7.1518 O.2     1  UNL1       -0.2464
     16 O          19.2007   70.6350  -10.4368 O.2     1  UNL1       -0.2670
     17 N          18.1879   70.6525   -6.5004 N.ar    1  UNL1       -0.2551
     18 N          17.6006   70.3726   -8.7858 N.ar    1  UNL1       -0.2743
     19 C          17.1809   70.3601   -7.4495 C.ar    1  UNL1        0.3323
     20 C          19.4853   70.9255   -6.9200 C.ar    1  UNL1        0.0869
     21 C          19.8696   70.9321   -8.1980 C.ar    1  UNL1        0.0795
     22 C          18.8785   70.6367   -9.2527 C.ar    1  UNL1        0.2626
     23 H          16.9162   70.1713   -9.4646 H       1  UNL1        0.1734
     24 O          22.4180   70.8947   -1.2579 O.3     1  UNL1       -0.2703
     25 P          21.7029   71.3982    0.1015 P.3     1  UNL1        0.2208
     26 O          21.3806   70.0192    0.8839 O.co2   1  UNL1       -0.4371
     27 O          20.5068   72.2776   -0.1217 O.2     1  UNL1       -0.5170
     28 O          22.8875   72.0845    0.9562 O.3     1  UNL1       -0.2858
     29 O          24.5805   71.7332    2.5771 O.3     1  UNL1       -0.3258
     30 O          22.0618   74.1622    4.7695 O.3     1  UNL1       -0.3794
     31 O          24.5558   75.2092    3.8042 O.3     1  UNL1       -0.3794
     32 O          20.9545   72.1666    2.9889 O.3     1  UNL1       -0.3775
     33 C          22.7179   73.6939    3.5882 C.3     1  UNL1        0.1715
     34 C          24.2283   73.8225    3.7954 C.3     1  UNL1        0.1694
     35 C          22.3306   72.2361    3.3467 C.3     1  UNL1        0.1967
     36 C          25.0033   73.0974    2.6869 C.3     1  UNL1        0.1761
     37 C          23.1943   71.5949    2.2591 C.3     1  UNL1        0.2704
     38 H          22.3032   75.0875    4.9282 H       1  UNL1        0.2105
     39 H          24.0595   75.6555    4.5082 H       1  UNL1        0.2105
     40 H          20.4183   72.5755    3.6855 H       1  UNL1        0.2106
     41 O          26.9656   71.7438    2.8476 O.3     1  UNL1       -0.3794
     42 C          26.5060   73.0782    2.9583 C.3     1  UNL1        0.1693
     43 H          27.9207   71.7163    3.0175 H       1  UNL1        0.2105
@<TRIPOS>UNITY_ATOM_ATTR
2 1
charge -1
26 1
charge -1
@<TRIPOS>BOND
     1    25    28    1
     2    25    24    1
     3    25    26    1
     4    25    27    2
     5     1     4    1
     6     1    24    1
     7     1     2    1
     8     1     3    2
     9     6    11    1
    10     6    12    1
    11    29    36    1
    12    29    37    1
    13     7     9    1
    14     7    13    1
    15     8    10    1
    16     8    14    1
    17    28    37    1
    18     4     5    1
    19    30    33    1
    20    30    38    1
    21    31    34    1
    22    31    39    1
    23    32    35    1
    24    32    40    1
    25    41    42    1
    26    41    43    1
    27    15    19    2
    28    16    22    2
    29    17    12    1
    30    17    19   ar
    31    17    20   ar
    32    18    19   ar
    33    18    22   ar
    34    18    23    1
    35     9    10    1
    36     9    11    1
    37    10    12    1
    38    11     5    1
    39    33    34    1
    40    33    35    1
    41    34    36    1
    42    35    37    1
    43    36    42    1
    44    20    21   ar
    45    21    22   ar
@<TRIPOS>MOLECULE
*****
 43 45 0 0 0
SMALL
GASTEIGER

@<TRIPOS>ATOM
      1 P          21.8452   72.5694   -5.0280 P.3     1  UNL1        0.2189
      2 O          20.9429   73.8650   -5.3810 O.co2   1  UNL1       -0.4371
      3 O          23.0648   72.3941   -5.8843 O.2     1  UNL1       -0.5170
      4 O          20.7896   71.3434   -5.0492 O.3     1  UNL1       -0.3112
      5 C          20.2629   70.8834   -3.8168 C.3     1  UNL1        0.1811
      6 O          18.3952   71.8164   -5.0064 O.3     1  UNL1       -0.3308
      7 O          16.6703   70.5955   -2.8792 O.3     1  UNL1       -0.3794
      8 O          16.4069   68.8322   -4.9426 O.3     1  UNL1       -0.3779
      9 C          17.8698   70.0937   -3.4662 C.3     1  UNL1        0.1713
     10 C          17.5980   69.5888   -4.8679 C.3     1  UNL1        0.1895
     11 C          18.7945   71.2760   -3.7277 C.3     1  UNL1        0.1764
     12 C          17.5189   70.8833   -5.6592 C.3     1  UNL1        0.2383
     13 H          16.0640   69.8585   -2.7027 H       1  UNL1        0.2105
     14 H          16.5072   68.0190   -4.4236 H       1  UNL1        0.2106
     15 O          15.7974   70.2209   -7.7984 O.2     1  UNL1       -0.2464
     16 O          19.2577   70.2796  -10.8420 O.2     1  UNL1       -0.2670
     17 N          17.9432   70.7196   -7.0211 N.ar    1  UNL1       -0.2551
     18 N          17.5218   70.2508   -9.3122 N.ar    1  UNL1       -0.2743
     19 C          16.9989   70.3854   -8.0197 C.ar    1  UNL1        0.3323
     20 C          19.2823   70.8904   -7.3550 C.ar    1  UNL1        0.0869
     21 C          19.7650   70.7572   -8.5921 C.ar    1  UNL1        0.0795
     22 C          18.8446   70.4092   -9.6938 C.ar    1  UNL1        0.2626
     23 H          16.8825   70.0180  -10.0241 H       1  UNL1        0.1734
     24 O          22.1513   72.7581   -3.4520 O.3     1  UNL1       -0.2703
     25 P          23.4334   72.3377   -2.5618 P.3     1  UNL1        0.2208
     26 O          24.4123   73.6191   -2.6928 O.co2   1  UNL1       -0.4371
     27 O          24.0614   71.0349   -2.9644 O.2     1  UNL1       -0.5170
     28 O          22.9048   72.3826   -1.0375 O.3     1  UNL1       -0.2858
     29 O          23.8372   70.7787    0.4372 O.3     1  UNL1       -0.3258
     30 O          20.5730   71.9276    2.6902 O.3     1  UNL1       -0.3794
     31 O          23.2056   72.7584    3.4820 O.3     1  UNL1       -0.3794
     32 O          20.3273   71.6743   -0.1830 O.3     1  UNL1       -0.3775
     33 C          21.6568   72.1161    1.7763 C.3     1  UNL1        0.1715
     34 C          22.9588   71.7595    2.4963 C.3     1  UNL1        0.1694
     35 C          21.4489   71.2126    0.5623 C.3     1  UNL1        0.1967
     36 C          24.1327   71.6794    1.5111 C.3     1  UNL1        0.1761
     37 C          22.6931   71.1657   -0.3265 C.3     1  UNL1        0.2704
     38 H          20.6986   72.4988    3.4631 H       1  UNL1        0.2105
     39 H          22.4568   72.7991    4.0974 H       1  UNL1        0.2105
     40 H          19.5462   71.6992    0.3907 H       1  UNL1        0.2106
     41 O          25.1521   69.8877    2.7193 O.3     1  UNL1       -0.3794
     42 C          25.4078   71.1719    2.1808 C.3     1  UNL1        0.1693
     43 H          25.9551   69.5520    3.1485 H       1  UNL1        0.2105
@<TRIPOS>UNITY_ATOM_ATTR
2 1
charge -1
26 1
charge -1
@<TRIPOS>BOND
     1    25    28    1
     2    25    24    1
     3    25    26    1
     4    25    27    2
     5     1     4    1
     6     1    24    1
     7     1     2    1
     8     1     3    2
     9     6    11    1
    10     6    12    1
    11    29    36    1
    12    29    37    1
    13     7     9    1
    14     7    13    1
    15     8    10    1
    16     8    14    1
    17    28    37    1
    18     4     5    1
    19    30    33    1
    20    30    38    1
    21    31    34    1
    22    31    39    1
    23    32    35    1
    24    32    40    1
    25    41    42    1
    26    41    43    1
    27    15    19    2
    28    16    22    2
    29    17    12    1
    30    17    19   ar
    31    17    20   ar
    32    18    19   ar
    33    18    22   ar
    34    18    23    1
    35     9    10    1
    36     9    11    1
    37    10    12    1
    38    11     5    1
    39    33    34    1
    40    33    35    1
    41    34    36    1
    42    35    37    1
    43    36    42    1
    44    20    21   ar
    45    21    22   ar
@<TRIPOS>MOLECULE
*****
 43 45 0 0 0
SMALL
GASTEIGER

@<TRIPOS>ATOM
      1 P          23.1116   71.6097   -2.5515 P.3     1  UNL1        0.2189
      2 O          23.3565   73.1700   -2.2010 O.co2   1  UNL1       -0.4371
      3 O          24.2810   70.9102   -3.1799 O.2     1  UNL1       -0.5170
      4 O          21.7470   71.6164   -3.4208 O.3     1  UNL1       -0.3112
      5 C          21.6239   72.5507   -4.4789 C.3     1  UNL1        0.1811
      6 O          20.7829   70.6050   -5.6106 O.3     1  UNL1       -0.3308
      7 O          21.3562   72.0716   -8.1623 O.3     1  UNL1       -0.3794
      8 O          18.6641   72.4016   -7.8790 O.3     1  UNL1       -0.3779
      9 C          20.8887   72.5810   -6.9144 C.3     1  UNL1        0.1713
     10 C          19.4337   72.2144   -6.7087 C.3     1  UNL1        0.1895
     11 C          21.5743   71.7982   -5.8016 C.3     1  UNL1        0.1764
     12 C          19.5313   70.7543   -6.3005 C.3     1  UNL1        0.2383
     13 H          20.9324   72.5565   -8.8885 H       1  UNL1        0.2105
     14 H          18.6319   73.3461   -8.0973 H       1  UNL1        0.2106
     15 O          17.0039   69.8426   -7.1716 O.2     1  UNL1       -0.2464
     16 O          15.5185   69.2636   -2.8473 O.2     1  UNL1       -0.2670
     17 N          18.4655   70.3583   -5.4238 N.ar    1  UNL1       -0.2551
     18 N          16.2664   69.5549   -5.0177 N.ar    1  UNL1       -0.2743
     19 C          17.2348   69.9165   -5.9630 C.ar    1  UNL1        0.3323
     20 C          18.6462   70.4099   -4.0459 C.ar    1  UNL1        0.0869
     21 C          17.7122   70.0628   -3.1580 C.ar    1  UNL1        0.0795
     22 C          16.3979   69.5900   -3.6385 C.ar    1  UNL1        0.2626
     23 H          15.4009   69.2443   -5.3702 H       1  UNL1        0.1734
     24 O          22.6378   70.9892   -1.1361 O.3     1  UNL1       -0.2703
     25 P          21.4267   71.4021   -0.1483 P.3     1  UNL1        0.2208
     26 O          21.3448   70.1553    0.8795 O.co2   1  UNL1       -0.4371
     27 O          20.1368   71.7106   -0.8517 O.2     1  UNL1       -0.5170
     28 O          22.0155   72.6191    0.7334 O.3     1  UNL1       -0.2858
     29 O          23.3715   71.6351    2.4095 O.3     1  UNL1       -0.3258
     30 O          23.7559   75.6009    3.4938 O.3     1  UNL1       -0.3794
     31 O          25.9720   74.2441    2.2706 O.3     1  UNL1       -0.3794
     32 O          21.2089   74.6032    2.5466 O.3     1  UNL1       -0.3775
     33 C          23.6153   74.5067    2.5837 C.3     1  UNL1        0.1715
     34 C          24.8152   73.5749    2.7649 C.3     1  UNL1        0.1694
     35 C          22.3119   73.7699    2.8864 C.3     1  UNL1        0.1967
     36 C          24.6052   72.2499    2.0198 C.3     1  UNL1        0.1761
     37 C          22.2253   72.4420    2.1319 C.3     1  UNL1        0.2704
     38 H          24.5813   76.0732    3.3067 H       1  UNL1        0.2105
     39 H          26.0930   75.0794    2.7491 H       1  UNL1        0.2105
     40 H          21.2751   75.4404    3.0309 H       1  UNL1        0.2106
     41 O          25.1238   70.0196    2.7024 O.3     1  UNL1       -0.3794
     42 C          25.7169   71.2453    2.3148 C.3     1  UNL1        0.1693
     43 H          25.8196   69.3705    2.8930 H       1  UNL1        0.2105
@<TRIPOS>UNITY_ATOM_ATTR
2 1
charge -1
26 1
charge -1
@<TRIPOS>BOND
     1    25    28    1
     2    25    24    1
     3    25    26    1
     4    25    27    2
     5     1     4    1
     6     1    24    1
     7     1     2    1
     8     1     3    2
     9     6    11    1
    10     6    12    1
    11    29    36    1
    12    29    37    1
    13     7     9    1
    14     7    13    1
    15     8    10    1
    16     8    14    1
    17    28    37    1
    18     4     5    1
    19    30    33    1
    20    30    38    1
    21    31    34    1
    22    31    39    1
    23    32    35    1
    24    32    40    1
    25    41    42    1
    26    41    43    1
    27    15    19    2
    28    16    22    2
    29    17    12    1
    30    17    19   ar
    31    17    20   ar
    32    18    19   ar
    33    18    22   ar
    34    18    23    1
    35     9    10    1
    36     9    11    1
    37    10    12    1
    38    11     5    1
    39    33    34    1
    40    33    35    1
    41    34    36    1
    42    35    37    1
    43    36    42    1
    44    20    21   ar
    45    21    22   ar
@<TRIPOS>MOLECULE
*****
 43 45 0 0 0
SMALL
GASTEIGER

@<TRIPOS>ATOM
      1 P          23.4373   73.6495   -4.1368 P.3     1  UNL1        0.2189
      2 O          22.8083   75.1392   -4.1872 O.co2   1  UNL1       -0.4371
      3 O          24.9317   73.5963   -4.0131 O.2     1  UNL1       -0.5170
      4 O          22.8137   72.9203   -5.4397 O.3     1  UNL1       -0.3112
      5 C          21.5351   72.3195   -5.3311 C.3     1  UNL1        0.1811
      6 O          20.4736   70.3679   -6.2467 O.3     1  UNL1       -0.3308
      7 O          20.6373   71.7535   -8.9007 O.3     1  UNL1       -0.3794
      8 O          18.0397   72.1601   -8.1771 O.3     1  UNL1       -0.3779
      9 C          20.3988   72.3065   -7.6074 C.3     1  UNL1        0.1713
     10 C          18.9922   71.9831   -7.1485 C.3     1  UNL1        0.1895
     11 C          21.2463   71.5349   -6.6036 C.3     1  UNL1        0.1764
     12 C          19.1267   70.5318   -6.7197 C.3     1  UNL1        0.2383
     13 H          20.1070   72.2305   -9.5590 H       1  UNL1        0.2105
     14 H          17.9910   73.0992   -8.4147 H       1  UNL1        0.2106
     15 O          16.4318   69.7853   -7.1173 O.2     1  UNL1       -0.2464
     16 O          15.7280   69.2277   -2.5968 O.2     1  UNL1       -0.2670
     17 N          18.2166   70.1860   -5.6644 N.ar    1  UNL1       -0.2551
     18 N          16.0836   69.5081   -4.8662 N.ar    1  UNL1       -0.2743
     19 C          16.8835   69.8264   -5.9711 C.ar    1  UNL1        0.3323
     20 C          18.6486   70.2052   -4.3427 C.ar    1  UNL1        0.0869
     21 C          17.8729   69.9001   -3.3003 C.ar    1  UNL1        0.0795
     22 C          16.4665   69.5137   -3.5342 C.ar    1  UNL1        0.2626
     23 H          15.1510   69.2549   -5.0555 H       1  UNL1        0.1734
     24 O          22.6361   72.9578   -2.9151 O.3     1  UNL1       -0.2703
     25 P          22.8332   71.5255   -2.1922 P.3     1  UNL1        0.2208
     26 O          24.1716   70.9401   -2.8873 O.co2   1  UNL1       -0.4371
     27 O          21.6397   70.6195   -2.2859 O.2     1  UNL1       -0.5170
     28 O          23.2816   71.8872   -0.6845 O.3     1  UNL1       -0.2858
     29 O          24.5512   70.9086    1.0611 O.3     1  UNL1       -0.3258
     30 O          21.1431   71.8720    3.1841 O.3     1  UNL1       -0.3794
     31 O          23.5471   73.3880    3.5974 O.3     1  UNL1       -0.3794
     32 O          20.9243   70.8932    0.4687 O.3     1  UNL1       -0.3775
     33 C          22.1513   72.0534    2.1862 C.3     1  UNL1        0.1715
     34 C          23.5075   72.1533    2.8872 C.3     1  UNL1        0.1694
     35 C          22.1269   70.8625    1.2298 C.3     1  UNL1        0.1967
     36 C          24.6602   72.0810    1.8767 C.3     1  UNL1        0.1761
     37 C          23.3423   70.8592    0.3008 C.3     1  UNL1        0.2704
     38 H          21.1529   72.6250    3.7944 H       1  UNL1        0.2105
     39 H          22.8138   73.4211    4.2318 H       1  UNL1        0.2105
     40 H          20.1624   70.8947    1.0682 H       1  UNL1        0.2106
     41 O          26.6277   70.7790    2.2547 O.3     1  UNL1       -0.3794
     42 C          26.0218   72.0202    2.5655 C.3     1  UNL1        0.1693
     43 H          27.4953   70.7264    2.6861 H       1  UNL1        0.2105
@<TRIPOS>UNITY_ATOM_ATTR
2 1
charge -1
26 1
charge -1
@<TRIPOS>BOND
     1    25    28    1
     2    25    24    1
     3    25    26    1
     4    25    27    2
     5     1     4    1
     6     1    24    1
     7     1     2    1
     8     1     3    2
     9     6    11    1
    10     6    12    1
    11    29    36    1
    12    29    37    1
    13     7     9    1
    14     7    13    1
    15     8    10    1
    16     8    14    1
    17    28    37    1
    18     4     5    1
    19    30    33    1
    20    30    38    1
    21    31    34    1
    22    31    39    1
    23    32    35    1
    24    32    40    1
    25    41    42    1
    26    41    43    1
    27    15    19    2
    28    16    22    2
    29    17    12    1
    30    17    19   ar
    31    17    20   ar
    32    18    19   ar
    33    18    22   ar
    34    18    23    1
    35     9    10    1
    36     9    11    1
    37    10    12    1
    38    11     5    1
    39    33    34    1
    40    33    35    1
    41    34    36    1
    42    35    37    1
    43    36    42    1
    44    20    21   ar
    45    21    22   ar
@<TRIPOS>MOLECULE
*****
 43 45 0 0 0
SMALL
GASTEIGER

@<TRIPOS>ATOM
      1 P          22.7691   72.5544   -3.8053 P.3     1  UNL1        0.2189
      2 O          22.1664   71.0732   -3.5601 O.co2   1  UNL1       -0.4371
      3 O          24.1709   72.5879   -4.3393 O.2     1  UNL1       -0.5170
      4 O          22.5376   73.3068   -2.3917 O.3     1  UNL1       -0.3112
      5 C          21.5441   74.3143   -2.3167 C.3     1  UNL1        0.1811
      6 O          20.8436   72.6134   -0.7707 O.3     1  UNL1       -0.3308
      7 O          18.7298   74.5487    0.1109 O.3     1  UNL1       -0.3794
      8 O          20.6110   74.7900    2.0703 O.3     1  UNL1       -0.3779
      9 C          20.0718   74.8041   -0.3004 C.3     1  UNL1        0.1713
     10 C          21.0425   74.3896    0.7857 C.3     1  UNL1        0.1895
     11 C          20.4127   73.8293   -1.4207 C.3     1  UNL1        0.1764
     12 C          21.0713   72.8794    0.6229 C.3     1  UNL1        0.2383
     13 H          18.4891   75.1595    0.8256 H       1  UNL1        0.2105
     14 H          20.6098   75.7585    2.1239 H       1  UNL1        0.2106
     15 O          21.5265   70.1189    1.0107 O.2     1  UNL1       -0.2464
     16 O          25.9521   70.8141    2.0934 O.2     1  UNL1       -0.2670
     17 N          22.3330   72.3113    1.0060 N.ar    1  UNL1       -0.2551
     18 N          23.7298   70.4673    1.5493 N.ar    1  UNL1       -0.2743
     19 C          22.4554   70.9124    1.1754 C.ar    1  UNL1        0.3323
     20 C          23.4323   73.1384    1.2092 C.ar    1  UNL1        0.0869
     21 C          24.6405   72.6983    1.5668 C.ar    1  UNL1        0.0795
     22 C          24.8531   71.2499    1.7645 C.ar    1  UNL1        0.2626
     23 H          23.8387   69.4965    1.6735 H       1  UNL1        0.1734
     24 O          21.6662   73.2410   -4.7671 O.3     1  UNL1       -0.2703
     25 P          21.4694   73.1780   -6.3703 P.3     1  UNL1        0.2208
     26 O          22.5843   72.1034   -6.8391 O.co2   1  UNL1       -0.4371
     27 O          21.5671   74.5105   -7.0551 O.2     1  UNL1       -0.5170
     28 O          20.0597   72.4203   -6.5794 O.3     1  UNL1       -0.2858
     29 O          19.3426   70.2970   -5.8088 O.3     1  UNL1       -0.3258
     30 O          17.4675   70.3315   -9.4876 O.3     1  UNL1       -0.3794
     31 O          15.9068   70.6476   -7.0976 O.3     1  UNL1       -0.3794
     32 O          20.1244   71.4468   -9.2106 O.3     1  UNL1       -0.3775
     33 C          17.9721   70.9017   -8.2769 C.3     1  UNL1        0.1715
     34 C          17.2679   70.2260   -7.0987 C.3     1  UNL1        0.1694
     35 C          19.4803   70.6698   -8.2066 C.3     1  UNL1        0.1967
     36 C          17.9410   70.5897   -5.7684 C.3     1  UNL1        0.1761
     37 C          20.0413   71.0168   -6.8264 C.3     1  UNL1        0.2704
     38 H          16.5104   70.4756   -9.5386 H       1  UNL1        0.2105
     39 H          15.4935   70.4124   -7.9432 H       1  UNL1        0.2105
     40 H          19.7607   71.2176  -10.0795 H       1  UNL1        0.2106
     41 O          16.0116   70.2107   -4.4110 O.3     1  UNL1       -0.3794
     42 C          17.3549   69.8043   -4.5972 C.3     1  UNL1        0.1693
     43 H          15.6255   69.7188   -3.6689 H       1  UNL1        0.2105
@<TRIPOS>UNITY_ATOM_ATTR
2 1
charge -1
26 1
charge -1
@<TRIPOS>BOND
     1    25    28    1
     2    25    24    1
     3    25    26    1
     4    25    27    2
     5     1     4    1
     6     1    24    1
     7     1     2    1
     8     1     3    2
     9     6    11    1
    10     6    12    1
    11    29    36    1
    12    29    37    1
    13     7     9    1
    14     7    13    1
    15     8    10    1
    16     8    14    1
    17    28    37    1
    18     4     5    1
    19    30    33    1
    20    30    38    1
    21    31    34    1
    22    31    39    1
    23    32    35    1
    24    32    40    1
    25    41    42    1
    26    41    43    1
    27    15    19    2
    28    16    22    2
    29    17    12    1
    30    17    19   ar
    31    17    20   ar
    32    18    19   ar
    33    18    22   ar
    34    18    23    1
    35     9    10    1
    36     9    11    1
    37    10    12    1
    38    11     5    1
    39    33    34    1
    40    33    35    1
    41    34    36    1
    42    35    37    1
    43    36    42    1
    44    20    21   ar
    45    21    22   ar
@<TRIPOS>MOLECULE
*****
 43 45 0 0 0
SMALL
GASTEIGER

@<TRIPOS>ATOM
      1 P          22.2028   72.8183   -4.2358 P.3     1  UNL1        0.2189
      2 O          22.3825   73.8441   -5.4739 O.co2   1  UNL1       -0.4371
      3 O          23.4387   72.0542   -3.8613 O.2     1  UNL1       -0.5170
      4 O          20.9232   71.9220   -4.6565 O.3     1  UNL1       -0.3112
      5 C          20.3643   71.0468   -3.6924 C.3     1  UNL1        0.1811
      6 O          18.4022   71.8490   -4.8240 O.3     1  UNL1       -0.3308
      7 O          16.8303   70.5294   -2.6380 O.3     1  UNL1       -0.3794
      8 O          16.6172   68.7413   -4.6858 O.3     1  UNL1       -0.3779
      9 C          18.0407   70.1041   -3.2618 C.3     1  UNL1        0.1713
     10 C          17.7578   69.5748   -4.6523 C.3     1  UNL1        0.1895
     11 C          18.8769   71.3430   -3.5572 C.3     1  UNL1        0.1764
     12 C          17.5685   70.8569   -5.4450 C.3     1  UNL1        0.2383
     13 H          16.2797   69.7553   -2.4395 H       1  UNL1        0.2105
     14 H          16.7873   67.9393   -4.1675 H       1  UNL1        0.2106
     15 O          15.7659   70.8088   -7.6190 O.2     1  UNL1       -0.2464
     16 O          19.1787   70.3016  -10.6746 O.2     1  UNL1       -0.2670
     17 N          17.9587   70.7138   -6.8193 N.ar    1  UNL1       -0.2551
     18 N          17.4667   70.5565   -9.1387 N.ar    1  UNL1       -0.2743
     19 C          16.9747   70.7008   -7.8352 C.ar    1  UNL1        0.3323
     20 C          19.3041   70.5887   -7.1482 C.ar    1  UNL1        0.0869
     21 C          19.7568   70.4506   -8.3961 C.ar    1  UNL1        0.0795
     22 C          18.7939   70.4273   -9.5161 C.ar    1  UNL1        0.2626
     23 H          16.7994   70.5443   -9.8628 H       1  UNL1        0.1734
     24 O          21.6150   73.7631   -3.0633 O.3     1  UNL1       -0.2703
     25 P          21.9869   73.8624   -1.4934 P.3     1  UNL1        0.2208
     26 O          23.6038   73.9174   -1.4979 O.co2   1  UNL1       -0.4371
     27 O          21.4070   72.7619   -0.6528 O.2     1  UNL1       -0.5170
     28 O          21.5297   75.3480   -1.0584 O.3     1  UNL1       -0.2858
     29 O          21.0138   75.2171    1.2509 O.3     1  UNL1       -0.3258
     30 O          25.0002   74.1513    1.4041 O.3     1  UNL1       -0.3794
     31 O          22.9811   72.1542    1.8314 O.3     1  UNL1       -0.3794
     32 O          24.1256   76.2108   -0.4326 O.3     1  UNL1       -0.3775
     33 C          23.6884   74.2116    0.8375 C.3     1  UNL1        0.1715
     34 C          22.7130   73.5535    1.8154 C.3     1  UNL1        0.1694
     35 C          23.3119   75.6735    0.6045 C.3     1  UNL1        0.1967
     36 C          21.2573   73.8141    1.4054 C.3     1  UNL1        0.1761
     37 C          21.8317   75.8260    0.2498 C.3     1  UNL1        0.2704
     38 H          25.2455   73.2257    1.5540 H       1  UNL1        0.2105
     39 H          23.9035   72.0034    2.0913 H       1  UNL1        0.2105
     40 H          25.0602   76.1085   -0.1960 H       1  UNL1        0.2106
     41 O          20.6842   72.0156    2.8703 O.3     1  UNL1       -0.3794
     42 C          20.2684   73.3021    2.4504 C.3     1  UNL1        0.1693
     43 H          20.0642   71.6773    3.5358 H       1  UNL1        0.2105
@<TRIPOS>UNITY_ATOM_ATTR
2 1
charge -1
26 1
charge -1
@<TRIPOS>BOND
     1    25    28    1
     2    25    24    1
     3    25    26    1
     4    25    27    2
     5     1     4    1
     6     1    24    1
     7     1     2    1
     8     1     3    2
     9     6    11    1
    10     6    12    1
    11    29    36    1
    12    29    37    1
    13     7     9    1
    14     7    13    1
    15     8    10    1
    16     8    14    1
    17    28    37    1
    18     4     5    1
    19    30    33    1
    20    30    38    1
    21    31    34    1
    22    31    39    1
    23    32    35    1
    24    32    40    1
    25    41    42    1
    26    41    43    1
    27    15    19    2
    28    16    22    2
    29    17    12    1
    30    17    19   ar
    31    17    20   ar
    32    18    19   ar
    33    18    22   ar
    34    18    23    1
    35     9    10    1
    36     9    11    1
    37    10    12    1
    38    11     5    1
    39    33    34    1
    40    33    35    1
    41    34    36    1
    42    35    37    1
    43    36    42    1
    44    20    21   ar
    45    21    22   ar
@<TRIPOS>MOLECULE
*****
 43 45 0 0 0
SMALL
GASTEIGER

@<TRIPOS>ATOM
      1 P          23.5323   75.2871   -1.6076 P.3     1  UNL1        0.2189
      2 O          25.0894   75.3525   -2.0417 O.co2   1  UNL1       -0.4371
      3 O          22.7821   76.5797   -1.7415 O.2     1  UNL1       -0.5170
      4 O          23.5697   74.6471   -0.1221 O.3     1  UNL1       -0.3112
      5 C          22.4518   74.8421    0.7265 C.3     1  UNL1        0.1811
      6 O          22.8926   72.4983    1.0201 O.3     1  UNL1       -0.3308
      7 O          20.2816   72.3825    2.4897 O.3     1  UNL1       -0.3794
      8 O          22.1039   72.4242    4.5180 O.3     1  UNL1       -0.3779
      9 C          21.2592   73.4213    2.4678 C.3     1  UNL1        0.1713
     10 C          22.4666   73.0245    3.2913 C.3     1  UNL1        0.1895
     11 C          21.8414   73.4881    1.0614 C.3     1  UNL1        0.1764
     12 C          23.1819   72.0621    2.3584 C.3     1  UNL1        0.2383
     13 H          19.8953   72.3210    3.3779 H       1  UNL1        0.2105
     14 H          21.6523   73.0762    5.0762 H       1  UNL1        0.2106
     15 O          24.8609   69.8367    1.9044 O.2     1  UNL1       -0.2464
     16 O          28.6245   72.1927    3.1396 O.2     1  UNL1       -0.2670
     17 N          24.6044   72.0662    2.5529 N.ar    1  UNL1       -0.2551
     18 N          26.7335   71.0117    2.5197 N.ar    1  UNL1       -0.2743
     19 C          25.3555   70.8953    2.2972 C.ar    1  UNL1        0.3323
     20 C          25.2404   73.2222    2.9923 C.ar    1  UNL1        0.0869
     21 C          26.5553   73.3163    3.2008 C.ar    1  UNL1        0.0795
     22 C          27.4122   72.1380    2.9571 C.ar    1  UNL1        0.2626
     23 H          27.2770   70.2084    2.3485 H       1  UNL1        0.1734
     24 O          22.9539   74.0771   -2.5101 O.3     1  UNL1       -0.2703
     25 P          23.1775   73.7152   -4.0696 P.3     1  UNL1        0.2208
     26 O          24.0952   72.3839   -4.0137 O.co2   1  UNL1       -0.4371
     27 O          23.7590   74.8345   -4.8838 O.2     1  UNL1       -0.5170
     28 O          21.7367   73.1960   -4.5790 O.3     1  UNL1       -0.2858
     29 O          20.3219   71.2959   -4.6486 O.3     1  UNL1       -0.3258
     30 O          20.8093   71.9045   -8.7036 O.3     1  UNL1       -0.3794
     31 O          18.2925   72.5281   -7.4686 O.3     1  UNL1       -0.3794
     32 O          23.0388   72.3152   -6.9036 O.3     1  UNL1       -0.3775
     33 C          20.6693   72.2952   -7.3350 C.3     1  UNL1        0.1715
     34 C          19.3214   71.7814   -6.8250 C.3     1  UNL1        0.1694
     35 C          21.8157   71.6936   -6.5243 C.3     1  UNL1        0.1967
     36 C          19.2138   71.9267   -5.3011 C.3     1  UNL1        0.1761
     37 C          21.5861   71.8490   -5.0199 C.3     1  UNL1        0.2704
     38 H          20.0847   72.2837   -9.2239 H       1  UNL1        0.2105
     39 H          18.3721   72.4282   -8.4303 H       1  UNL1        0.2105
     40 H          23.1728   72.2096   -7.8580 H       1  UNL1        0.2106
     41 O          17.0483   71.0652   -5.8278 O.3     1  UNL1       -0.3794
     42 C          17.9449   71.2775   -4.7529 C.3     1  UNL1        0.1693
     43 H          16.2361   70.6522   -5.4938 H       1  UNL1        0.2105
@<TRIPOS>UNITY_ATOM_ATTR
2 1
charge -1
26 1
charge -1
@<TRIPOS>BOND
     1    25    28    1
     2    25    24    1
     3    25    26    1
     4    25    27    2
     5     1     4    1
     6     1    24    1
     7     1     2    1
     8     1     3    2
     9     6    11    1
    10     6    12    1
    11    29    36    1
    12    29    37    1
    13     7     9    1
    14     7    13    1
    15     8    10    1
    16     8    14    1
    17    28    37    1
    18     4     5    1
    19    30    33    1
    20    30    38    1
    21    31    34    1
    22    31    39    1
    23    32    35    1
    24    32    40    1
    25    41    42    1
    26    41    43    1
    27    15    19    2
    28    16    22    2
    29    17    12    1
    30    17    19   ar
    31    17    20   ar
    32    18    19   ar
    33    18    22   ar
    34    18    23    1
    35     9    10    1
    36     9    11    1
    37    10    12    1
    38    11     5    1
    39    33    34    1
    40    33    35    1
    41    34    36    1
    42    35    37    1
    43    36    42    1
    44    20    21   ar
    45    21    22   ar
@<TRIPOS>MOLECULE
*****
 43 45 0 0 0
SMALL
GASTEIGER

@<TRIPOS>ATOM
      1 P          23.1920   72.3550   -3.6347 P.3     1  UNL1        0.2189
      2 O          24.0104   70.9821   -3.3842 O.co2   1  UNL1       -0.4371
      3 O          24.0076   73.4876   -4.1855 O.2     1  UNL1       -0.5170
      4 O          22.4643   72.6375   -2.2174 O.3     1  UNL1       -0.3112
      5 C          23.2649   72.7229   -1.0514 C.3     1  UNL1        0.1811
      6 O          24.3015   71.2424    0.5321 O.3     1  UNL1       -0.3308
      7 O          21.5470   70.1825    1.0614 O.3     1  UNL1       -0.3794
      8 O          21.9575   71.8537    3.1768 O.3     1  UNL1       -0.3779
      9 C          21.9596   71.5165    0.7690 C.3     1  UNL1        0.1713
     10 C          22.6428   72.1313    1.9727 C.3     1  UNL1        0.1895
     11 C          23.0982   71.4448   -0.2409 C.3     1  UNL1        0.1764
     12 C          24.0167   71.4849    1.9195 C.3     1  UNL1        0.2383
     13 H          20.8202   70.2026    1.7042 H       1  UNL1        0.2105
     14 H          21.0896   72.2866    3.1623 H       1  UNL1        0.2106
     15 O          26.6835   70.6715    2.3712 O.2     1  UNL1       -0.2464
     16 O          27.8605   74.8119    4.0184 O.2     1  UNL1       -0.2670
     17 N          25.0411   72.3300    2.4651 N.ar    1  UNL1       -0.2551
     18 N          27.2675   72.7338    3.1908 N.ar    1  UNL1       -0.2743
     19 C          26.3484   71.8238    2.6531 C.ar    1  UNL1        0.3323
     20 C          24.7453   73.6450    2.8072 C.ar    1  UNL1        0.0869
     21 C          25.6328   74.4996    3.3202 C.ar    1  UNL1        0.0795
     22 C          27.0213   74.0500    3.5481 C.ar    1  UNL1        0.2626
     23 H          28.1844   72.4032    3.3310 H       1  UNL1        0.1734
     24 O          21.9707   71.8825   -4.5823 O.3     1  UNL1       -0.2703
     25 P          20.3917   72.2246   -4.5288 P.3     1  UNL1        0.2208
     26 O          20.3667   73.8246   -4.2902 O.co2   1  UNL1       -0.4371
     27 O          19.6251   71.4342   -3.5083 O.2     1  UNL1       -0.5170
     28 O          19.8801   72.0309   -6.0473 O.3     1  UNL1       -0.2858
     29 O          18.9552   69.8568   -6.2326 O.3     1  UNL1       -0.3258
     30 O          18.6341   71.0485  -10.1731 O.3     1  UNL1       -0.3794
     31 O          16.2714   70.8621   -8.5510 O.3     1  UNL1       -0.3794
     32 O          20.9640   71.7927   -8.6248 O.3     1  UNL1       -0.3775
     33 C          18.6269   71.2247   -8.7538 C.3     1  UNL1        0.1715
     34 C          17.5352   70.3291   -8.1649 C.3     1  UNL1        0.1694
     35 C          19.9962   70.8408   -8.1962 C.3     1  UNL1        0.1967
     36 C          17.6410   70.2595   -6.6355 C.3     1  UNL1        0.1761
     37 C          19.9796   70.7523   -6.6691 C.3     1  UNL1        0.2704
     38 H          17.7676   71.2910  -10.5335 H       1  UNL1        0.2105
     39 H          16.2177   70.9012   -9.5189 H       1  UNL1        0.2105
     40 H          20.9649   71.8391   -9.5931 H       1  UNL1        0.2106
     41 O          17.1427   68.8552   -4.7677 O.3     1  UNL1       -0.3794
     42 C          16.6627   69.2493   -6.0399 C.3     1  UNL1        0.1693
     43 H          16.5299   68.2125   -4.3765 H       1  UNL1        0.2105
@<TRIPOS>UNITY_ATOM_ATTR
2 1
charge -1
26 1
charge -1
@<TRIPOS>BOND
     1    25    28    1
     2    25    24    1
     3    25    26    1
     4    25    27    2
     5     1     4    1
     6     1    24    1
     7     1     2    1
     8     1     3    2
     9     6    11    1
    10     6    12    1
    11    29    36    1
    12    29    37    1
    13     7     9    1
    14     7    13    1
    15     8    10    1
    16     8    14    1
    17    28    37    1
    18     4     5    1
    19    30    33    1
    20    30    38    1
    21    31    34    1
    22    31    39    1
    23    32    35    1
    24    32    40    1
    25    41    42    1
    26    41    43    1
    27    15    19    2
    28    16    22    2
    29    17    12    1
    30    17    19   ar
    31    17    20   ar
    32    18    19   ar
    33    18    22   ar
    34    18    23    1
    35     9    10    1
    36     9    11    1
    37    10    12    1
    38    11     5    1
    39    33    34    1
    40    33    35    1
    41    34    36    1
    42    35    37    1
    43    36    42    1
    44    20    21   ar
    45    21    22   ar
@<TRIPOS>MOLECULE
*****
 43 45 0 0 0
SMALL
GASTEIGER

@<TRIPOS>ATOM
      1 P          21.8744   72.4610   -5.6865 P.3     1  UNL1        0.2189
      2 O          21.2071   73.9115   -5.4253 O.co2   1  UNL1       -0.4371
      3 O          23.1391   72.4814   -6.4937 O.2     1  UNL1       -0.5170
      4 O          20.6633   71.5811   -6.3003 O.3     1  UNL1       -0.3112
      5 C          20.1117   71.9667   -7.5472 C.3     1  UNL1        0.1811
      6 O          18.8819   69.9419   -7.1453 O.3     1  UNL1       -0.3308
      7 O          18.1187   70.0515  -10.0429 O.3     1  UNL1       -0.3794
      8 O          15.8868   71.0105   -8.8037 O.3     1  UNL1       -0.3779
      9 C          18.2955   71.1210   -9.1154 C.3     1  UNL1        0.1713
     10 C          17.1289   71.1794   -8.1515 C.3     1  UNL1        0.1895
     11 C          19.4522   70.7561   -8.1933 C.3     1  UNL1        0.1764
     12 C          17.4493   70.0393   -7.1997 C.3     1  UNL1        0.2383
     13 H          17.3853   70.2619  -10.6428 H       1  UNL1        0.2105
     14 H          15.7287   71.7608   -9.3976 H       1  UNL1        0.2106
     15 O          16.3094   68.0504   -5.5496 O.2     1  UNL1       -0.2464
     16 O          15.5551   71.0549   -2.1372 O.2     1  UNL1       -0.2670
     17 N          16.9472   70.2740   -5.8753 N.ar    1  UNL1       -0.2551
     18 N          15.9349   69.5480   -3.8518 N.ar    1  UNL1       -0.2743
     19 C          16.3934   69.2067   -5.1306 C.ar    1  UNL1        0.3323
     20 C          17.0070   71.5508   -5.3276 C.ar    1  UNL1        0.0869
     21 C          16.5643   71.8601   -4.1072 C.ar    1  UNL1        0.0795
     22 C          15.9713   70.8024   -3.2636 C.ar    1  UNL1        0.2626
     23 H          15.5447   68.8206   -3.3148 H       1  UNL1        0.1734
     24 O          22.0385   71.8623   -4.1940 O.3     1  UNL1       -0.2703
     25 P          23.2460   71.9878   -3.1267 P.3     1  UNL1        0.2208
     26 O          23.9290   73.4051   -3.5042 O.co2   1  UNL1       -0.4371
     27 O          24.1936   70.8234   -3.1298 O.2     1  UNL1       -0.5170
     28 O          22.5150   72.2515   -1.7121 O.3     1  UNL1       -0.2858
     29 O          22.3559   74.0739   -0.2054 O.3     1  UNL1       -0.3258
     30 O          23.1003   71.0444    2.4998 O.3     1  UNL1       -0.3794
     31 O          20.4740   72.1967    2.3486 O.3     1  UNL1       -0.3794
     32 O          24.4445   71.0535   -0.0638 O.3     1  UNL1       -0.3775
     33 C          22.5535   71.6265    1.3135 C.3     1  UNL1        0.1715
     34 C          21.6210   72.7675    1.7250 C.3     1  UNL1        0.1694
     35 C          23.6942   72.1516    0.4437 C.3     1  UNL1        0.1967
     36 C          21.2058   73.6090    0.5107 C.3     1  UNL1        0.1761
     37 C          23.1754   73.0161   -0.7068 C.3     1  UNL1        0.2704
     38 H          22.3812   70.7086    3.0563 H       1  UNL1        0.2105
     39 H          20.7500   71.6675    3.1134 H       1  UNL1        0.2105
     40 H          24.7676   70.5142    0.6742 H       1  UNL1        0.2106
     41 O          19.8947   75.4545   -0.2535 O.3     1  UNL1       -0.3794
     42 C          20.4045   74.8437    0.9175 C.3     1  UNL1        0.1693
     43 H          19.3821   76.2417   -0.0099 H       1  UNL1        0.2105
@<TRIPOS>UNITY_ATOM_ATTR
2 1
charge -1
26 1
charge -1
@<TRIPOS>BOND
     1    25    28    1
     2    25    24    1
     3    25    26    1
     4    25    27    2
     5     1     4    1
     6     1    24    1
     7     1     2    1
     8     1     3    2
     9     6    11    1
    10     6    12    1
    11    29    36    1
    12    29    37    1
    13     7     9    1
    14     7    13    1
    15     8    10    1
    16     8    14    1
    17    28    37    1
    18     4     5    1
    19    30    33    1
    20    30    38    1
    21    31    34    1
    22    31    39    1
    23    32    35    1
    24    32    40    1
    25    41    42    1
    26    41    43    1
    27    15    19    2
    28    16    22    2
    29    17    12    1
    30    17    19   ar
    31    17    20   ar
    32    18    19   ar
    33    18    22   ar
    34    18    23    1
    35     9    10    1
    36     9    11    1
    37    10    12    1
    38    11     5    1
    39    33    34    1
    40    33    35    1
    41    34    36    1
    42    35    37    1
    43    36    42    1
    44    20    21   ar
    45    21    22   ar
@<TRIPOS>MOLECULE
*****
 43 45 0 0 0
SMALL
GASTEIGER

@<TRIPOS>ATOM
      1 P          20.6275   73.8470   -0.4013 P.3     1  UNL1        0.2189
      2 O          19.1942   73.0967   -0.4176 O.co2   1  UNL1       -0.4371
      3 O          20.6426   75.1694    0.3075 O.2     1  UNL1       -0.5170
      4 O          21.0667   73.8793   -1.9583 O.3     1  UNL1       -0.3112
      5 C          20.5617   72.8778   -2.8241 C.3     1  UNL1        0.1811
      6 O          21.1426   70.8612   -3.9944 O.3     1  UNL1       -0.3308
      7 O          23.9555   71.8997   -4.0049 O.3     1  UNL1       -0.3794
      8 O          23.1006   72.4736   -6.5300 O.3     1  UNL1       -0.3779
      9 C          22.7286   72.6166   -4.1316 C.3     1  UNL1        0.1713
     10 C          22.1305   72.3966   -5.5054 C.3     1  UNL1        0.1895
     11 C          21.7000   71.9502   -3.2265 C.3     1  UNL1        0.1764
     12 C          21.5324   71.0066   -5.3698 C.3     1  UNL1        0.2383
     13 H          24.6281   72.3072   -4.5737 H       1  UNL1        0.2105
     14 H          23.4509   73.3768   -6.5766 H       1  UNL1        0.2106
     15 O          18.9703   70.2989   -4.4146 O.2     1  UNL1       -0.2464
     16 O          17.1779   70.3292   -8.6605 O.2     1  UNL1       -0.2670
     17 N          20.3780   70.8233   -6.2035 N.ar    1  UNL1       -0.2551
     18 N          18.0799   70.3148   -6.5295 N.ar    1  UNL1       -0.2743
     19 C          19.1378   70.4672   -5.6242 C.ar    1  UNL1        0.3323
     20 C          20.4823   70.9968   -7.5794 C.ar    1  UNL1        0.0869
     21 C          19.4641   70.8465   -8.4290 C.ar    1  UNL1        0.0795
     22 C          18.1339   70.4750   -7.9050 C.ar    1  UNL1        0.2626
     23 H          17.2063   70.0665   -6.1487 H       1  UNL1        0.1734
     24 O          21.6136   72.7333    0.2313 O.3     1  UNL1       -0.2703
     25 P          21.6452   72.0533    1.6974 P.3     1  UNL1        0.2208
     26 O          22.0006   70.5068    1.3816 O.co2   1  UNL1       -0.4371
     27 O          20.3878   72.2495    2.4939 O.2     1  UNL1       -0.5170
     28 O          22.9765   72.6437    2.3930 O.3     1  UNL1       -0.2858
     29 O          22.1905   74.6702    3.3376 O.3     1  UNL1       -0.3258
     30 O          26.0474   74.7072    4.8120 O.3     1  UNL1       -0.3794
     31 O          23.8564   74.1603    6.5862 O.3     1  UNL1       -0.3794
     32 O          25.5378   73.7586    2.1250 O.3     1  UNL1       -0.3775
     33 C          24.8171   74.1081    4.3965 C.3     1  UNL1        0.1715
     34 C          23.6916   74.6714    5.2664 C.3     1  UNL1        0.1694
     35 C          24.5743   74.4360    2.9244 C.3     1  UNL1        0.1967
     36 C          22.3148   74.2828    4.7110 C.3     1  UNL1        0.1761
     37 C          23.1592   74.0541    2.4866 C.3     1  UNL1        0.2704
     38 H          26.2078   74.5024    5.7457 H       1  UNL1        0.2105
     39 H          24.7298   74.4123    6.9251 H       1  UNL1        0.2105
     40 H          26.4294   74.0091    2.4118 H       1  UNL1        0.2106
     41 O          20.3531   73.9623    6.0369 O.3     1  UNL1       -0.3794
     42 C          21.1786   74.9636    5.4710 C.3     1  UNL1        0.1693
     43 H          19.6257   74.3809    6.5240 H       1  UNL1        0.2105
@<TRIPOS>UNITY_ATOM_ATTR
2 1
charge -1
26 1
charge -1
@<TRIPOS>BOND
     1    25    28    1
     2    25    24    1
     3    25    26    1
     4    25    27    2
     5     1     4    1
     6     1    24    1
     7     1     2    1
     8     1     3    2
     9     6    11    1
    10     6    12    1
    11    29    36    1
    12    29    37    1
    13     7     9    1
    14     7    13    1
    15     8    10    1
    16     8    14    1
    17    28    37    1
    18     4     5    1
    19    30    33    1
    20    30    38    1
    21    31    34    1
    22    31    39    1
    23    32    35    1
    24    32    40    1
    25    41    42    1
    26    41    43    1
    27    15    19    2
    28    16    22    2
    29    17    12    1
    30    17    19   ar
    31    17    20   ar
    32    18    19   ar
    33    18    22   ar
    34    18    23    1
    35     9    10    1
    36     9    11    1
    37    10    12    1
    38    11     5    1
    39    33    34    1
    40    33    35    1
    41    34    36    1
    42    35    37    1
    43    36    42    1
    44    20    21   ar
    45    21    22   ar
@<TRIPOS>MOLECULE
*****
 43 45 0 0 0
SMALL
GASTEIGER

@<TRIPOS>ATOM
      1 P          21.8428   72.5042   -5.6265 P.3     1  UNL1        0.2189
      2 O          21.1019   73.9084   -5.3152 O.co2   1  UNL1       -0.4371
      3 O          23.1043   72.6179   -6.4309 O.2     1  UNL1       -0.5170
      4 O          20.6780   71.5854   -6.2723 O.3     1  UNL1       -0.3112
      5 C          20.1208   71.9750   -7.5155 C.3     1  UNL1        0.1811
      6 O          18.8859   69.9520   -7.1200 O.3     1  UNL1       -0.3308
      7 O          18.1395   70.0618  -10.0220 O.3     1  UNL1       -0.3794
      8 O          15.9019   71.0243   -8.7960 O.3     1  UNL1       -0.3779
      9 C          18.3125   71.1314   -9.0939 C.3     1  UNL1        0.1713
     10 C          17.1405   71.1916   -8.1367 C.3     1  UNL1        0.1895
     11 C          19.4633   70.7650   -8.1650 C.3     1  UNL1        0.1764
     12 C          17.4537   70.0514   -7.1828 C.3     1  UNL1        0.2383
     13 H          17.4099   70.2731  -10.6262 H       1  UNL1        0.2105
     14 H          15.7482   71.7747   -9.3911 H       1  UNL1        0.2106
     15 O          16.3372   68.0569   -5.5235 O.2     1  UNL1       -0.2464
     16 O          15.5299   71.0717   -2.1323 O.2     1  UNL1       -0.2670
     17 N          16.9443   70.2872   -5.8613 N.ar    1  UNL1       -0.2551
     18 N          15.9363   69.5596   -3.8362 N.ar    1  UNL1       -0.2743
     19 C          16.4035   69.2169   -5.1115 C.ar    1  UNL1        0.3323
     20 C          16.9844   71.5682   -5.3216 C.ar    1  UNL1        0.0869
     21 C          16.5336   71.8788   -4.1044 C.ar    1  UNL1        0.0795
     22 C          15.9531   70.8181   -3.2559 C.ar    1  UNL1        0.2626
     23 H          15.5549   68.8301   -3.2958 H       1  UNL1        0.1734
     24 O          22.0382   71.8625   -4.1558 O.3     1  UNL1       -0.2703
     25 P          23.2465   71.9978   -3.0906 P.3     1  UNL1        0.2208
     26 O          23.8787   73.4481   -3.4288 O.co2   1  UNL1       -0.4371
     27 O          24.2333   70.8671   -3.1325 O.2     1  UNL1       -0.5170
     28 O          22.5148   72.1944   -1.6655 O.3     1  UNL1       -0.2858
     29 O          23.4273   70.6425   -0.1243 O.3     1  UNL1       -0.3258
     30 O          20.4441   72.2436    2.2396 O.3     1  UNL1       -0.3794
     31 O          23.1865   72.9097    2.7724 O.3     1  UNL1       -0.3794
     32 O          19.9619   71.7792   -0.5766 O.3     1  UNL1       -0.3775
     33 C          21.4669   72.2645    1.2402 C.3     1  UNL1        0.1715
     34 C          22.7877   71.8585    1.8971 C.3     1  UNL1        0.1694
     35 C          21.0970   71.2862    0.1269 C.3     1  UNL1        0.1967
     36 C          23.8734   71.5992    0.8440 C.3     1  UNL1        0.1761
     37 C          22.2626   71.0617   -0.8381 C.3     1  UNL1        0.2704
     38 H          20.6727   72.8631    2.9493 H       1  UNL1        0.2105
     39 H          22.4921   73.0637    3.4321 H       1  UNL1        0.2105
     40 H          19.2310   71.9168    0.0452 H       1  UNL1        0.2106
     41 O          24.7977   70.2352    2.5744 O.3     1  UNL1       -0.3794
     42 C          25.1518   71.0415    1.4659 C.3     1  UNL1        0.1693
     43 H          25.6015   69.8732    2.9801 H       1  UNL1        0.2105
@<TRIPOS>UNITY_ATOM_ATTR
2 1
charge -1
26 1
charge -1
@<TRIPOS>BOND
     1    25    28    1
     2    25    24    1
     3    25    26    1
     4    25    27    2
     5     1     4    1
     6     1    24    1
     7     1     2    1
     8     1     3    2
     9     6    11    1
    10     6    12    1
    11    29    36    1
    12    29    37    1
    13     7     9    1
    14     7    13    1
    15     8    10    1
    16     8    14    1
    17    28    37    1
    18     4     5    1
    19    30    33    1
    20    30    38    1
    21    31    34    1
    22    31    39    1
    23    32    35    1
    24    32    40    1
    25    41    42    1
    26    41    43    1
    27    15    19    2
    28    16    22    2
    29    17    12    1
    30    17    19   ar
    31    17    20   ar
    32    18    19   ar
    33    18    22   ar
    34    18    23    1
    35     9    10    1
    36     9    11    1
    37    10    12    1
    38    11     5    1
    39    33    34    1
    40    33    35    1
    41    34    36    1
    42    35    37    1
    43    36    42    1
    44    20    21   ar
    45    21    22   ar
@<TRIPOS>MOLECULE
*****
 43 45 0 0 0
SMALL
GASTEIGER

@<TRIPOS>ATOM
      1 P          21.9314   72.6495   -5.2396 P.3     1  UNL1        0.2189
      2 O          21.5769   74.2163   -5.0476 O.co2   1  UNL1       -0.4371
      3 O          23.1123   72.3704   -6.1223 O.2     1  UNL1       -0.5170
      4 O          20.5311   71.9891   -5.7097 O.3     1  UNL1       -0.3112
      5 C          19.5704   71.6650   -4.7199 C.3     1  UNL1        0.1811
      6 O          17.7736   70.1569   -4.1996 O.3     1  UNL1       -0.3308
      7 O          17.2435   70.0679   -7.1495 O.3     1  UNL1       -0.3794
      8 O          15.3308   71.7929   -6.2537 O.3     1  UNL1       -0.3779
      9 C          17.6772   71.1622   -6.3434 C.3     1  UNL1        0.1713
     10 C          16.5278   71.6892   -5.5099 C.3     1  UNL1        0.1895
     11 C          18.6187   70.6156   -5.2775 C.3     1  UNL1        0.1764
     12 C          16.4402   70.6525   -4.4028 C.3     1  UNL1        0.2383
     13 H          16.6412   70.3924   -7.8379 H       1  UNL1        0.2105
     14 H          15.4369   72.4647   -6.9452 H       1  UNL1        0.2106
     15 O          15.4242   69.1244   -2.2555 O.2     1  UNL1       -0.2464
     16 O          14.6093   72.8878    0.2770 O.2     1  UNL1       -0.2670
     17 N          15.9560   71.2071   -3.1702 N.ar    1  UNL1       -0.2551
     18 N          15.0194   70.9995   -0.9962 N.ar    1  UNL1       -0.2743
     19 C          15.4657   70.3524   -2.1556 C.ar    1  UNL1        0.3323
     20 C          15.9708   72.5842   -2.9768 C.ar    1  UNL1        0.0869
     21 C          15.5405   73.1857   -1.8659 C.ar    1  UNL1        0.0795
     22 C          15.0126   72.3646   -0.7572 C.ar    1  UNL1        0.2626
     23 H          14.6731   70.4242   -0.2759 H       1  UNL1        0.1734
     24 O          22.0888   72.1235   -3.7192 O.3     1  UNL1       -0.2703
     25 P          23.3817   72.0428   -2.7523 P.3     1  UNL1        0.2208
     26 O          24.0884   73.4837   -2.9567 O.co2   1  UNL1       -0.4371
     27 O          24.2787   70.8693   -3.0211 O.2     1  UNL1       -0.5170
     28 O          22.7771   72.0938   -1.2567 O.3     1  UNL1       -0.2858
     29 O          22.5266   73.9486    0.1970 O.3     1  UNL1       -0.3258
     30 O          23.3992   71.0347    2.9897 O.3     1  UNL1       -0.3794
     31 O          20.7227   72.0584    2.7974 O.3     1  UNL1       -0.3794
     32 O          24.7530   71.0342    0.4310 O.3     1  UNL1       -0.3775
     33 C          22.8312   71.5570    1.7855 C.3     1  UNL1        0.1715
     34 C          21.8447   72.6643    2.1615 C.3     1  UNL1        0.1694
     35 C          23.9500   72.1100    0.9047 C.3     1  UNL1        0.1967
     36 C          21.3962   73.4509    0.9225 C.3     1  UNL1        0.1761
     37 C          23.3966   72.9165   -0.2715 C.3     1  UNL1        0.2704
     38 H          22.6940   70.6816    3.5532 H       1  UNL1        0.2105
     39 H          21.0197   71.5645    3.5779 H       1  UNL1        0.2105
     40 H          25.0976   70.5317    1.1850 H       1  UNL1        0.2106
     41 O          20.7731   74.9798    2.6497 O.3     1  UNL1       -0.3794
     42 C          20.5364   74.6578    1.2915 C.3     1  UNL1        0.1693
     43 H          20.2327   75.7465    2.8985 H       1  UNL1        0.2105
@<TRIPOS>UNITY_ATOM_ATTR
2 1
charge -1
26 1
charge -1
@<TRIPOS>BOND
     1    25    28    1
     2    25    24    1
     3    25    26    1
     4    25    27    2
     5     1     4    1
     6     1    24    1
     7     1     2    1
     8     1     3    2
     9     6    11    1
    10     6    12    1
    11    29    36    1
    12    29    37    1
    13     7     9    1
    14     7    13    1
    15     8    10    1
    16     8    14    1
    17    28    37    1
    18     4     5    1
    19    30    33    1
    20    30    38    1
    21    31    34    1
    22    31    39    1
    23    32    35    1
    24    32    40    1
    25    41    42    1
    26    41    43    1
    27    15    19    2
    28    16    22    2
    29    17    12    1
    30    17    19   ar
    31    17    20   ar
    32    18    19   ar
    33    18    22   ar
    34    18    23    1
    35     9    10    1
    36     9    11    1
    37    10    12    1
    38    11     5    1
    39    33    34    1
    40    33    35    1
    41    34    36    1
    42    35    37    1
    43    36    42    1
    44    20    21   ar
    45    21    22   ar
@<TRIPOS>MOLECULE
*****
 43 45 0 0 0
SMALL
GASTEIGER

@<TRIPOS>ATOM
      1 P          21.1225   71.2609   -1.8621 P.3     1  UNL1        0.2189
      2 O          21.7064   70.3380   -3.0557 O.co2   1  UNL1       -0.4371
      3 O          21.1869   70.6450   -0.4954 O.2     1  UNL1       -0.5170
      4 O          19.6456   71.6742   -2.3777 O.3     1  UNL1       -0.3112
      5 C          19.3048   71.4175   -3.7289 C.3     1  UNL1        0.1811
      6 O          17.4754   71.8389   -5.2288 O.3     1  UNL1       -0.3308
      7 O          15.7761   70.3127   -3.2861 O.3     1  UNL1       -0.3794
      8 O          16.2437   68.4705   -5.2417 O.3     1  UNL1       -0.3779
      9 C          17.1340   70.0922   -3.6640 C.3     1  UNL1        0.1713
     10 C          17.2024   69.4913   -5.0525 C.3     1  UNL1        0.1895
     11 C          17.7895   71.4516   -3.8731 C.3     1  UNL1        0.1764
     12 C          16.9478   70.7029   -5.9331 C.3     1  UNL1        0.2383
     13 H          15.3367   69.4586   -3.1466 H       1  UNL1        0.2105
     14 H          16.4489   67.7222   -4.6597 H       1  UNL1        0.2106
     15 O          15.6000   70.6229   -8.4140 O.2     1  UNL1       -0.2464
     16 O          19.5546   70.3067  -10.7598 O.2     1  UNL1       -0.2670
     17 N          17.6005   70.6003   -7.2078 N.ar    1  UNL1       -0.2551
     18 N          17.5702   70.4657   -9.5800 N.ar    1  UNL1       -0.2743
     19 C          16.8314   70.5667   -8.3943 C.ar    1  UNL1        0.3323
     20 C          18.9880   70.5345   -7.2726 C.ar    1  UNL1        0.0869
     21 C          19.6774   70.4371   -8.4113 C.ar    1  UNL1        0.0795
     22 C          18.9495   70.3960   -9.6960 C.ar    1  UNL1        0.2626
     23 H          17.0556   70.4402  -10.4192 H       1  UNL1        0.1734
     24 O          21.9604   72.6341   -2.0213 O.3     1  UNL1       -0.2703
     25 P          21.9074   74.0136   -1.1804 P.3     1  UNL1        0.2208
     26 O          20.3426   74.4213   -1.2349 O.co2   1  UNL1       -0.4371
     27 O          22.8420   75.0761   -1.6817 O.2     1  UNL1       -0.5170
     28 O          22.1597   73.5688    0.3504 O.3     1  UNL1       -0.2858
     29 O          23.4389   74.5733    2.0742 O.3     1  UNL1       -0.3258
     30 O          24.2364   70.6043    2.8880 O.3     1  UNL1       -0.3794
     31 O          22.5068   72.0900    4.6342 O.3     1  UNL1       -0.3794
     32 O          24.0520   71.5068    0.1437 O.3     1  UNL1       -0.3775
     33 C          23.4381   71.7125    2.4637 C.3     1  UNL1        0.1715
     34 C          23.3199   72.6935    3.6317 C.3     1  UNL1        0.1694
     35 C          24.1091   72.3814    1.2655 C.3     1  UNL1        0.1967
     36 C          22.7074   74.0251    3.1770 C.3     1  UNL1        0.1761
     37 C          23.4542   73.7217    0.9268 C.3     1  UNL1        0.2704
     38 H          23.8156   70.1749    3.6482 H       1  UNL1        0.2105
     39 H          22.9045   71.2499    4.9122 H       1  UNL1        0.2105
     40 H          24.4700   70.6621    0.3707 H       1  UNL1        0.2106
     41 O          22.8528   74.4059    5.5313 O.3     1  UNL1       -0.3794
     42 C          22.7252   75.0720    4.2886 C.3     1  UNL1        0.1693
     43 H          22.8658   75.0599    6.2481 H       1  UNL1        0.2105
@<TRIPOS>UNITY_ATOM_ATTR
2 1
charge -1
26 1
charge -1
@<TRIPOS>BOND
     1    25    28    1
     2    25    24    1
     3    25    26    1
     4    25    27    2
     5     1     4    1
     6     1    24    1
     7     1     2    1
     8     1     3    2
     9     6    11    1
    10     6    12    1
    11    29    36    1
    12    29    37    1
    13     7     9    1
    14     7    13    1
    15     8    10    1
    16     8    14    1
    17    28    37    1
    18     4     5    1
    19    30    33    1
    20    30    38    1
    21    31    34    1
    22    31    39    1
    23    32    35    1
    24    32    40    1
    25    41    42    1
    26    41    43    1
    27    15    19    2
    28    16    22    2
    29    17    12    1
    30    17    19   ar
    31    17    20   ar
    32    18    19   ar
    33    18    22   ar
    34    18    23    1
    35     9    10    1
    36     9    11    1
    37    10    12    1
    38    11     5    1
    39    33    34    1
    40    33    35    1
    41    34    36    1
    42    35    37    1
    43    36    42    1
    44    20    21   ar
    45    21    22   ar
@<TRIPOS>MOLECULE
*****
 43 45 0 0 0
SMALL
GASTEIGER

@<TRIPOS>ATOM
      1 P          21.5088   71.7226   -2.7695 P.3     1  UNL1        0.2189
      2 O          22.7459   71.1415   -3.6352 O.co2   1  UNL1       -0.4371
      3 O          21.5463   73.2025   -2.5248 O.2     1  UNL1       -0.5170
      4 O          21.4897   70.7919   -1.4461 O.3     1  UNL1       -0.3112
      5 C          22.4801   71.0049   -0.4554 C.3     1  UNL1        0.1811
      6 O          22.7715   70.7999    1.9209 O.3     1  UNL1       -0.3308
      7 O          20.2967   72.4729    2.1802 O.3     1  UNL1       -0.3794
      8 O          22.2866   74.2800    2.6397 O.3     1  UNL1       -0.3779
      9 C          21.3423   72.5526    1.2129 C.3     1  UNL1        0.1713
     10 C          22.5844   73.1607    1.8302 C.3     1  UNL1        0.1895
     11 C          21.8033   71.1340    0.9024 C.3     1  UNL1        0.1764
     12 C          23.1432   71.9946    2.6276 C.3     1  UNL1        0.2383
     13 H          19.9856   73.3670    2.3943 H       1  UNL1        0.2105
     14 H          21.9344   74.9947    2.0866 H       1  UNL1        0.2106
     15 O          24.8605   69.8127    2.1099 O.2     1  UNL1       -0.2464
     16 O          28.6149   72.2980    3.0941 O.2     1  UNL1       -0.2670
     17 N          24.5737   72.0437    2.7404 N.ar    1  UNL1       -0.2551
     18 N          26.7285   71.0520    2.6002 N.ar    1  UNL1       -0.2743
     19 C          25.3442   70.8916    2.4587 C.ar    1  UNL1        0.3323
     20 C          25.1983   73.2247    3.1262 C.ar    1  UNL1        0.0869
     21 C          26.5194   73.3609    3.2577 C.ar    1  UNL1        0.0795
     22 C          27.3965   72.2047    2.9821 C.ar    1  UNL1        0.2626
     23 H          27.2855   70.2626    2.4096 H       1  UNL1        0.1734
     24 O          20.2161   71.2095   -3.5933 O.3     1  UNL1       -0.2703
     25 P          18.6598   71.1053   -3.1691 P.3     1  UNL1        0.2208
     26 O          18.3077   72.6062   -2.6783 O.co2   1  UNL1       -0.4371
     27 O          18.3686   70.0377   -2.1544 O.2     1  UNL1       -0.5170
     28 O          17.8665   70.9361   -4.5644 O.3     1  UNL1       -0.2858
     29 O          19.0915   71.9858   -6.3005 O.3     1  UNL1       -0.3258
     30 O          15.6782   70.9998   -8.4046 O.3     1  UNL1       -0.3794
     31 O          18.1093   69.5485   -8.8857 O.3     1  UNL1       -0.3794
     32 O          15.4731   71.9057   -5.6630 O.3     1  UNL1       -0.3775
     33 C          16.7030   70.8162   -7.4241 C.3     1  UNL1        0.1715
     34 C          18.0518   70.7640   -8.1443 C.3     1  UNL1        0.1694
     35 C          16.6648   71.9820   -6.4379 C.3     1  UNL1        0.1967
     36 C          19.2156   70.8368   -7.1466 C.3     1  UNL1        0.1761
     37 C          17.8918   71.9893   -5.5243 C.3     1  UNL1        0.2704
     38 H          15.6966   70.2627   -9.0337 H       1  UNL1        0.2105
     39 H          17.3688   69.5149   -9.5116 H       1  UNL1        0.2105
     40 H          14.7037   71.9022   -6.2528 H       1  UNL1        0.2106
     41 O          21.1108   69.6446   -7.9809 O.3     1  UNL1       -0.3794
     42 C          20.5665   70.9450   -7.8506 C.3     1  UNL1        0.1693
     43 H          21.9707   69.6979   -8.4275 H       1  UNL1        0.2105
@<TRIPOS>UNITY_ATOM_ATTR
2 1
charge -1
26 1
charge -1
@<TRIPOS>BOND
     1    25    28    1
     2    25    24    1
     3    25    26    1
     4    25    27    2
     5     1     4    1
     6     1    24    1
     7     1     2    1
     8     1     3    2
     9     6    11    1
    10     6    12    1
    11    29    36    1
    12    29    37    1
    13     7     9    1
    14     7    13    1
    15     8    10    1
    16     8    14    1
    17    28    37    1
    18     4     5    1
    19    30    33    1
    20    30    38    1
    21    31    34    1
    22    31    39    1
    23    32    35    1
    24    32    40    1
    25    41    42    1
    26    41    43    1
    27    15    19    2
    28    16    22    2
    29    17    12    1
    30    17    19   ar
    31    17    20   ar
    32    18    19   ar
    33    18    22   ar
    34    18    23    1
    35     9    10    1
    36     9    11    1
    37    10    12    1
    38    11     5    1
    39    33    34    1
    40    33    35    1
    41    34    36    1
    42    35    37    1
    43    36    42    1
    44    20    21   ar
    45    21    22   ar
@<TRIPOS>MOLECULE
*****
 43 45 0 0 0
SMALL
GASTEIGER

@<TRIPOS>ATOM
      1 P          22.9167   75.3457   -1.5881 P.3     1  UNL1        0.2189
      2 O          23.8485   75.3695   -0.2657 O.co2   1  UNL1       -0.4371
      3 O          22.9441   76.6037   -2.4054 O.2     1  UNL1       -0.5170
      4 O          21.4640   74.9007   -1.0317 O.3     1  UNL1       -0.3112
      5 C          20.9686   75.5247    0.1401 C.3     1  UNL1        0.1811
      6 O          20.4873   73.2317    0.6735 O.3     1  UNL1       -0.3308
      7 O          18.6318   74.3045    2.7705 O.3     1  UNL1       -0.3794
      8 O          20.8338   73.6127    4.2229 O.3     1  UNL1       -0.3779
      9 C          19.8898   74.8152    2.3323 C.3     1  UNL1        0.1713
     10 C          21.0195   73.9589    2.8655 C.3     1  UNL1        0.1895
     11 C          19.9942   74.5802    0.8305 C.3     1  UNL1        0.1764
     12 C          20.9644   72.7539    1.9420 C.3     1  UNL1        0.2383
     13 H          18.5420   74.4434    3.7268 H       1  UNL1        0.2105
     14 H          20.8773   74.4127    4.7696 H       1  UNL1        0.2106
     15 O          21.3679   70.1388    0.9536 O.2     1  UNL1       -0.2464
     16 O          25.9490   70.5270    1.2756 O.2     1  UNL1       -0.2670
     17 N          22.2521   72.1463    1.7570 N.ar    1  UNL1       -0.2551
     18 N          23.6486   70.3343    1.1146 N.ar    1  UNL1       -0.2743
     19 C          22.3451   70.8271    1.2554 C.ar    1  UNL1        0.3323
     20 C          23.4053   72.8570    2.0715 C.ar    1  UNL1        0.0869
     21 C          24.6410   72.3722    1.9327 C.ar    1  UNL1        0.0795
     22 C          24.8258   71.0013    1.4146 C.ar    1  UNL1        0.2626
     23 H          23.7380   69.4172    0.7672 H       1  UNL1        0.1734
     24 O          23.4270   74.0252   -2.3684 O.3     1  UNL1       -0.2703
     25 P          23.4779   73.6779   -3.9463 P.3     1  UNL1        0.2208
     26 O          24.2764   72.2715   -3.9911 O.co2   1  UNL1       -0.4371
     27 O          24.0806   74.7595   -4.7954 O.2     1  UNL1       -0.5170
     28 O          21.9574   73.2957   -4.3298 O.3     1  UNL1       -0.2858
     29 O          20.3484   71.5572   -4.4016 O.3     1  UNL1       -0.3258
     30 O          20.7960   72.2098   -8.4543 O.3     1  UNL1       -0.3794
     31 O          18.3909   73.0641   -7.1376 O.3     1  UNL1       -0.3794
     32 O          23.1007   72.3399   -6.7077 O.3     1  UNL1       -0.3775
     33 C          20.7323   72.5796   -7.0743 C.3     1  UNL1        0.1715
     34 C          19.3508   72.1980   -6.5388 C.3     1  UNL1        0.1694
     35 C          21.8285   71.8412   -6.3085 C.3     1  UNL1        0.1967
     36 C          19.2972   72.3167   -5.0097 C.3     1  UNL1        0.1761
     37 C          21.6543   71.9833   -4.7954 C.3     1  UNL1        0.2704
     38 H          20.1028   72.6756   -8.9463 H       1  UNL1        0.2105
     39 H          18.4355   72.9799   -8.1031 H       1  UNL1        0.2105
     40 H          23.1989   72.2440   -7.6674 H       1  UNL1        0.2106
     41 O          16.9272   72.6067   -4.9199 O.3     1  UNL1       -0.3794
     42 C          17.9809   71.7913   -4.4411 C.3     1  UNL1        0.1693
     43 H          16.0831   72.2839   -4.5664 H       1  UNL1        0.2105
@<TRIPOS>UNITY_ATOM_ATTR
2 1
charge -1
26 1
charge -1
@<TRIPOS>BOND
     1    25    28    1
     2    25    24    1
     3    25    26    1
     4    25    27    2
     5     1     4    1
     6     1    24    1
     7     1     2    1
     8     1     3    2
     9     6    11    1
    10     6    12    1
    11    29    36    1
    12    29    37    1
    13     7     9    1
    14     7    13    1
    15     8    10    1
    16     8    14    1
    17    28    37    1
    18     4     5    1
    19    30    33    1
    20    30    38    1
    21    31    34    1
    22    31    39    1
    23    32    35    1
    24    32    40    1
    25    41    42    1
    26    41    43    1
    27    15    19    2
    28    16    22    2
    29    17    12    1
    30    17    19   ar
    31    17    20   ar
    32    18    19   ar
    33    18    22   ar
    34    18    23    1
    35     9    10    1
    36     9    11    1
    37    10    12    1
    38    11     5    1
    39    33    34    1
    40    33    35    1
    41    34    36    1
    42    35    37    1
    43    36    42    1
    44    20    21   ar
    45    21    22   ar
@<TRIPOS>MOLECULE
*****
 43 45 0 0 0
SMALL
GASTEIGER

@<TRIPOS>ATOM
      1 P          22.2480   73.6469   -5.8950 P.3     1  UNL1        0.2189
      2 O          23.0499   73.2939   -7.2551 O.co2   1  UNL1       -0.4371
      3 O          21.1342   74.6394   -6.0554 O.2     1  UNL1       -0.5170
      4 O          23.4142   74.0617   -4.8531 O.3     1  UNL1       -0.3112
      5 C          23.3740   73.5223   -3.5434 C.3     1  UNL1        0.1811
      6 O          21.7310   72.7425   -1.9730 O.3     1  UNL1       -0.3308
      7 O          20.5358   75.4870   -2.1459 O.3     1  UNL1       -0.3794
      8 O          21.9310   75.5927    0.1948 O.3     1  UNL1       -0.3779
      9 C          21.9073   75.0962   -2.1851 C.3     1  UNL1        0.1713
     10 C          22.3804   74.6983   -0.8026 C.3     1  UNL1        0.1895
     11 C          21.9980   73.7781   -2.9439 C.3     1  UNL1        0.1764
     12 C          21.7846   73.3088   -0.6534 C.3     1  UNL1        0.2383
     13 H          20.4527   76.3268   -1.6664 H       1  UNL1        0.2105
     14 H          22.3379   76.4622    0.0568 H       1  UNL1        0.2106
     15 O          20.9034   70.8494    0.4205 O.2     1  UNL1       -0.2464
     16 O          24.9231   70.1332    2.5582 O.2     1  UNL1       -0.2670
     17 N          22.5803   72.4589    0.1868 N.ar    1  UNL1       -0.2551
     18 N          22.9057   70.4947    1.4839 N.ar    1  UNL1       -0.2743
     19 C          22.0430   71.2449    0.6745 C.ar    1  UNL1        0.3323
     20 C          23.8783   72.8317    0.5188 C.ar    1  UNL1        0.0869
     21 C          24.6876   72.1057    1.2928 C.ar    1  UNL1        0.0795
     22 C          24.2032   70.8234    1.8433 C.ar    1  UNL1        0.2626
     23 H          22.5528   69.6452    1.8354 H       1  UNL1        0.1734
     24 O          21.7827   72.1942   -5.3600 O.3     1  UNL1       -0.2703
     25 P          20.7596   71.1103   -5.9856 P.3     1  UNL1        0.2208
     26 O          20.8849   69.8545   -4.9732 O.co2   1  UNL1       -0.4371
     27 O          21.0234   70.7742   -7.4248 O.2     1  UNL1       -0.5170
     28 O          19.2930   71.7201   -5.6990 O.3     1  UNL1       -0.2858
     29 O          18.6130   71.9225   -7.9603 O.3     1  UNL1       -0.3258
     30 O          14.9467   72.4062   -6.1230 O.3     1  UNL1       -0.3794
     31 O          15.5187   69.9665   -7.5260 O.3     1  UNL1       -0.3794
     32 O          17.3200   73.5647   -4.9375 O.3     1  UNL1       -0.3775
     33 C          16.2629   71.8702   -6.2839 C.3     1  UNL1        0.1715
     34 C          16.3220   71.1390   -7.6265 C.3     1  UNL1        0.1694
     35 C          17.2752   73.0137   -6.2493 C.3     1  UNL1        0.1967
     36 C          17.7656   70.7681   -7.9922 C.3     1  UNL1        0.1761
     37 C          18.6682   72.5479   -6.6766 C.3     1  UNL1        0.2704
     38 H          14.2992   71.6852   -6.1435 H       1  UNL1        0.2105
     39 H          14.6099   70.2146   -7.2942 H       1  UNL1        0.2105
     40 H          16.4322   73.8560   -4.6788 H       1  UNL1        0.2106
     41 O          18.6298   71.0610  -10.2004 O.3     1  UNL1       -0.3794
     42 C          17.8663   70.1795   -9.3977 C.3     1  UNL1        0.1693
     43 H          18.7026   70.6991  -11.0978 H       1  UNL1        0.2105
@<TRIPOS>UNITY_ATOM_ATTR
2 1
charge -1
26 1
charge -1
@<TRIPOS>BOND
     1    25    28    1
     2    25    24    1
     3    25    26    1
     4    25    27    2
     5     1     4    1
     6     1    24    1
     7     1     2    1
     8     1     3    2
     9     6    11    1
    10     6    12    1
    11    29    36    1
    12    29    37    1
    13     7     9    1
    14     7    13    1
    15     8    10    1
    16     8    14    1
    17    28    37    1
    18     4     5    1
    19    30    33    1
    20    30    38    1
    21    31    34    1
    22    31    39    1
    23    32    35    1
    24    32    40    1
    25    41    42    1
    26    41    43    1
    27    15    19    2
    28    16    22    2
    29    17    12    1
    30    17    19   ar
    31    17    20   ar
    32    18    19   ar
    33    18    22   ar
    34    18    23    1
    35     9    10    1
    36     9    11    1
    37    10    12    1
    38    11     5    1
    39    33    34    1
    40    33    35    1
    41    34    36    1
    42    35    37    1
    43    36    42    1
    44    20    21   ar
    45    21    22   ar
@<TRIPOS>MOLECULE
*****
 43 45 0 0 0
SMALL
GASTEIGER

@<TRIPOS>ATOM
      1 P          23.0663   72.6724   -4.0054 P.3     1  UNL1        0.2189
      2 O          24.0092   71.4366   -3.5568 O.co2   1  UNL1       -0.4371
      3 O          23.4767   74.0110   -3.4659 O.2     1  UNL1       -0.5170
      4 O          21.5742   72.1844   -3.6139 O.3     1  UNL1       -0.3112
      5 C          21.4256   70.9689   -2.9010 C.3     1  UNL1        0.1811
      6 O          20.7530   70.5551   -0.6316 O.3     1  UNL1       -0.3308
      7 O          18.6309   72.6254   -1.0804 O.3     1  UNL1       -0.3794
      8 O          20.5273   74.0092    0.3072 O.3     1  UNL1       -0.3779
      9 C          19.9671   72.5803   -1.5784 C.3     1  UNL1        0.1713
     10 C          20.9508   72.9117   -0.4756 C.3     1  UNL1        0.1895
     11 C          20.3063   71.1261   -1.8809 C.3     1  UNL1        0.1764
     12 C          20.9908   71.6129    0.3115 C.3     1  UNL1        0.2383
     13 H          18.3915   73.5444   -0.8803 H       1  UNL1        0.2105
     14 H          20.5185   74.8112   -0.2381 H       1  UNL1        0.2106
     15 O          21.4596   71.8935    3.0827 O.2     1  UNL1       -0.2464
     16 O          25.9029   70.7553    2.6322 O.2     1  UNL1       -0.2670
     17 N          22.2606   71.3956    0.9455 N.ar    1  UNL1       -0.2551
     18 N          23.6716   71.3264    2.8561 N.ar    1  UNL1       -0.2743
     19 C          22.3898   71.5643    2.3438 C.ar    1  UNL1        0.3323
     20 C          23.3607   71.0194    0.1826 C.ar    1  UNL1        0.0869
     21 C          24.5766   70.7976    0.6862 C.ar    1  UNL1        0.0795
     22 C          24.7967   70.9519    2.1387 C.ar    1  UNL1        0.2626
     23 H          23.7856   71.4381    3.8279 H       1  UNL1        0.1734
     24 O          23.0716   72.5668   -5.6184 O.3     1  UNL1       -0.2703
     25 P          22.2687   73.4095   -6.7400 P.3     1  UNL1        0.2208
     26 O          23.4100   73.7520   -7.8344 O.co2   1  UNL1       -0.4371
     27 O          21.5432   74.6103   -6.2053 O.2     1  UNL1       -0.5170
     28 O          21.3206   72.3236   -7.4659 O.3     1  UNL1       -0.2858
     29 O          19.3971   72.2236   -6.0850 O.3     1  UNL1       -0.3258
     30 O          18.2392   69.5631   -9.0230 O.3     1  UNL1       -0.3794
     31 O          17.0083   72.1546   -8.8917 O.3     1  UNL1       -0.3794
     32 O          20.9910   69.6161   -8.1262 O.3     1  UNL1       -0.3775
     33 C          18.8865   70.7263   -8.5003 C.3     1  UNL1        0.1715
     34 C          17.8236   71.6171   -7.8541 C.3     1  UNL1        0.1694
     35 C          19.9278   70.2969   -7.4684 C.3     1  UNL1        0.1967
     36 C          18.4680   72.7478   -7.0409 C.3     1  UNL1        0.1761
     37 C          20.4696   71.4917   -6.6817 C.3     1  UNL1        0.2704
     38 H          17.5771   69.8288   -9.6792 H       1  UNL1        0.2105
     39 H          16.6077   71.4303   -9.3978 H       1  UNL1        0.2105
     40 H          20.6351   68.8618   -8.6203 H       1  UNL1        0.2106
     41 O          16.2940   73.7381   -7.0824 O.3     1  UNL1       -0.3794
     42 C          17.4317   73.5533   -6.2604 C.3     1  UNL1        0.1693
     43 H          15.6257   74.2490   -6.5985 H       1  UNL1        0.2105
@<TRIPOS>UNITY_ATOM_ATTR
2 1
charge -1
26 1
charge -1
@<TRIPOS>BOND
     1    25    28    1
     2    25    24    1
     3    25    26    1
     4    25    27    2
     5     1     4    1
     6     1    24    1
     7     1     2    1
     8     1     3    2
     9     6    11    1
    10     6    12    1
    11    29    36    1
    12    29    37    1
    13     7     9    1
    14     7    13    1
    15     8    10    1
    16     8    14    1
    17    28    37    1
    18     4     5    1
    19    30    33    1
    20    30    38    1
    21    31    34    1
    22    31    39    1
    23    32    35    1
    24    32    40    1
    25    41    42    1
    26    41    43    1
    27    15    19    2
    28    16    22    2
    29    17    12    1
    30    17    19   ar
    31    17    20   ar
    32    18    19   ar
    33    18    22   ar
    34    18    23    1
    35     9    10    1
    36     9    11    1
    37    10    12    1
    38    11     5    1
    39    33    34    1
    40    33    35    1
    41    34    36    1
    42    35    37    1
    43    36    42    1
    44    20    21   ar
    45    21    22   ar
@<TRIPOS>MOLECULE
*****
 43 45 0 0 0
SMALL
GASTEIGER

@<TRIPOS>ATOM
      1 P          23.1551   73.4503   -4.1290 P.3     1  UNL1        0.2189
      2 O          23.6040   74.5875   -5.1885 O.co2   1  UNL1       -0.4371
      3 O          24.2073   72.4285   -3.8122 O.2     1  UNL1       -0.5170
      4 O          21.7749   72.8705   -4.7429 O.3     1  UNL1       -0.3112
      5 C          21.1677   71.7582   -4.1091 C.3     1  UNL1        0.1811
      6 O          19.0933   72.4659   -5.0938 O.3     1  UNL1       -0.3308
      7 O          17.7691   71.3709   -2.6365 O.3     1  UNL1       -0.3794
      8 O          17.3402   69.3996   -4.4713 O.3     1  UNL1       -0.3779
      9 C          18.9061   70.8789   -3.3439 C.3     1  UNL1        0.1713
     10 C          18.4760   70.2233   -4.6396 C.3     1  UNL1        0.1895
     11 C          19.7029   72.0777   -3.8433 C.3     1  UNL1        0.1764
     12 C          18.1996   71.4266   -5.5250 C.3     1  UNL1        0.2383
     13 H          17.2447   70.6234   -2.3076 H       1  UNL1        0.2105
     14 H          17.5669   68.6487   -3.9009 H       1  UNL1        0.2106
     15 O          16.6413   72.4495   -7.6471 O.2     1  UNL1       -0.2464
     16 O          19.2127   70.3031  -10.8128 O.2     1  UNL1       -0.2670
     17 N          18.4397   71.1515   -6.9136 N.ar    1  UNL1       -0.2551
     18 N          17.9230   71.3800   -9.2216 N.ar    1  UNL1       -0.2743
     19 C          17.5975   71.7140   -7.9008 C.ar    1  UNL1        0.3323
     20 C          19.5006   70.3324   -7.2844 C.ar    1  UNL1        0.0869
     21 C          19.7968   70.0226   -8.5483 C.ar    1  UNL1        0.0795
     22 C          18.9661   70.5694   -9.6406 C.ar    1  UNL1        0.2626
     23 H          17.3498   71.7602   -9.9264 H       1  UNL1        0.1734
     24 O          22.6529   74.3148   -2.8588 O.3     1  UNL1       -0.2703
     25 P          23.4677   74.9361   -1.6086 P.3     1  UNL1        0.2208
     26 O          22.8107   76.4038   -1.4302 O.co2   1  UNL1       -0.4371
     27 O          24.9583   74.9425   -1.7876 O.2     1  UNL1       -0.5170
     28 O          22.9513   74.1000   -0.3283 O.3     1  UNL1       -0.2858
     29 O          24.1201   73.3435    1.5895 O.3     1  UNL1       -0.3258
     30 O          21.5858   70.1283    1.0504 O.3     1  UNL1       -0.3794
     31 O          21.1346   71.9389    3.2336 O.3     1  UNL1       -0.3794
     32 O          22.7420   71.4566   -1.2470 O.3     1  UNL1       -0.3775
     33 C          21.9627   71.5078    1.0315 C.3     1  UNL1        0.1715
     34 C          22.3293   71.9244    2.4572 C.3     1  UNL1        0.1694
     35 C          23.1565   71.6862    0.0953 C.3     1  UNL1        0.1967
     36 C          22.9959   73.3066    2.4764 C.3     1  UNL1        0.1761
     37 C          23.7753   73.0789    0.2283 C.3     1  UNL1        0.2704
     38 H          20.8280   70.0082    1.6426 H       1  UNL1        0.2105
     39 H          20.7234   71.0605    3.2128 H       1  UNL1        0.2105
     40 H          22.3523   70.5718   -1.3181 H       1  UNL1        0.2106
     41 O          24.7977   74.2499    3.7304 O.3     1  UNL1       -0.3794
     42 C          23.5117   73.6736    3.8661 C.3     1  UNL1        0.1693
     43 H          25.1384   74.4888    4.6070 H       1  UNL1        0.2105
@<TRIPOS>UNITY_ATOM_ATTR
2 1
charge -1
26 1
charge -1
@<TRIPOS>BOND
     1    25    28    1
     2    25    24    1
     3    25    26    1
     4    25    27    2
     5     1     4    1
     6     1    24    1
     7     1     2    1
     8     1     3    2
     9     6    11    1
    10     6    12    1
    11    29    36    1
    12    29    37    1
    13     7     9    1
    14     7    13    1
    15     8    10    1
    16     8    14    1
    17    28    37    1
    18     4     5    1
    19    30    33    1
    20    30    38    1
    21    31    34    1
    22    31    39    1
    23    32    35    1
    24    32    40    1
    25    41    42    1
    26    41    43    1
    27    15    19    2
    28    16    22    2
    29    17    12    1
    30    17    19   ar
    31    17    20   ar
    32    18    19   ar
    33    18    22   ar
    34    18    23    1
    35     9    10    1
    36     9    11    1
    37    10    12    1
    38    11     5    1
    39    33    34    1
    40    33    35    1
    41    34    36    1
    42    35    37    1
    43    36    42    1
    44    20    21   ar
    45    21    22   ar
@<TRIPOS>MOLECULE
*****
 43 45 0 0 0
SMALL
GASTEIGER

@<TRIPOS>ATOM
      1 P          23.6029   72.3866   -3.4581 P.3     1  UNL1        0.2189
      2 O          24.1680   70.8825   -3.2693 O.co2   1  UNL1       -0.4371
      3 O          24.6347   73.4086   -3.8352 O.2     1  UNL1       -0.5170
      4 O          22.7981   72.6745   -2.0843 O.3     1  UNL1       -0.3112
      5 C          23.3717   73.5587   -1.1373 C.3     1  UNL1        0.1811
      6 O          23.1054   73.3675    1.2431 O.3     1  UNL1       -0.3308
      7 O          24.1343   70.5669    0.9450 O.3     1  UNL1       -0.3794
      8 O          21.4419   70.1912    1.1603 O.3     1  UNL1       -0.3779
      9 C          23.2980   71.3190    0.0674 C.3     1  UNL1        0.1713
     10 C          21.8976   71.4213    0.6348 C.3     1  UNL1        0.1895
     11 C          23.7629   72.7694    0.1045 C.3     1  UNL1        0.1764
     12 C          22.0680   72.4867    1.7044 C.3     1  UNL1        0.2383
     13 H          23.8567   69.6369    0.9378 H       1  UNL1        0.2105
     14 H          21.3493   69.5468    0.4413 H       1  UNL1        0.2106
     15 O          20.0736   72.8966   -0.2531 O.2     1  UNL1       -0.2464
     16 O          17.5118   75.4269    2.6237 O.2     1  UNL1       -0.2670
     17 N          20.8692   73.2482    1.9149 N.ar    1  UNL1       -0.2551
     18 N          18.7996   74.1560    1.1810 N.ar    1  UNL1       -0.2743
     19 C          19.9319   73.3941    0.8658 C.ar    1  UNL1        0.3323
     20 C          20.6325   73.8404    3.1507 C.ar    1  UNL1        0.0869
     21 C          19.5482   74.5649    3.4347 C.ar    1  UNL1        0.0795
     22 C          18.5197   74.7658    2.3936 C.ar    1  UNL1        0.2626
     23 H          18.1329   74.2716    0.4654 H       1  UNL1        0.1734
     24 O          22.4175   72.1963   -4.5406 O.3     1  UNL1       -0.2703
     25 P          21.8215   73.2084   -5.6511 P.3     1  UNL1        0.2208
     26 O          22.8550   73.0543   -6.8863 O.co2   1  UNL1       -0.4371
     27 O          21.6421   74.6178   -5.1660 O.2     1  UNL1       -0.5170
     28 O          20.4651   72.4997   -6.1637 O.3     1  UNL1       -0.2858
     29 O          19.5844   70.3146   -5.9057 O.3     1  UNL1       -0.3258
     30 O          18.6096   70.9554   -9.8668 O.3     1  UNL1       -0.3794
     31 O          16.5399   70.9767   -7.8758 O.3     1  UNL1       -0.3794
     32 O          21.1333   71.9191   -8.8267 O.3     1  UNL1       -0.3775
     33 C          18.8223   71.3236   -8.5013 C.3     1  UNL1        0.1715
     34 C          17.8634   70.5096   -7.6302 C.3     1  UNL1        0.1694
     35 C          20.2730   71.0283   -8.1248 C.3     1  UNL1        0.1967
     36 C          18.2121   70.6500   -6.1423 C.3     1  UNL1        0.1761
     37 C          20.5009   71.1489   -6.6169 C.3     1  UNL1        0.2704
     38 H          17.6905   71.1409  -10.1123 H       1  UNL1        0.2105
     39 H          16.3325   70.8830   -8.8189 H       1  UNL1        0.2105
     40 H          20.9796   71.8330   -9.7800 H       1  UNL1        0.2106
     41 O          16.0829   70.2957   -5.1175 O.3     1  UNL1       -0.3794
     42 C          17.3695   69.7243   -5.2676 C.3     1  UNL1        0.1693
     43 H          15.5354   69.7171   -4.5633 H       1  UNL1        0.2105
@<TRIPOS>UNITY_ATOM_ATTR
2 1
charge -1
26 1
charge -1
@<TRIPOS>BOND
     1    25    28    1
     2    25    24    1
     3    25    26    1
     4    25    27    2
     5     1     4    1
     6     1    24    1
     7     1     2    1
     8     1     3    2
     9     6    11    1
    10     6    12    1
    11    29    36    1
    12    29    37    1
    13     7     9    1
    14     7    13    1
    15     8    10    1
    16     8    14    1
    17    28    37    1
    18     4     5    1
    19    30    33    1
    20    30    38    1
    21    31    34    1
    22    31    39    1
    23    32    35    1
    24    32    40    1
    25    41    42    1
    26    41    43    1
    27    15    19    2
    28    16    22    2
    29    17    12    1
    30    17    19   ar
    31    17    20   ar
    32    18    19   ar
    33    18    22   ar
    34    18    23    1
    35     9    10    1
    36     9    11    1
    37    10    12    1
    38    11     5    1
    39    33    34    1
    40    33    35    1
    41    34    36    1
    42    35    37    1
    43    36    42    1
    44    20    21   ar
    45    21    22   ar
@<TRIPOS>MOLECULE
*****
 43 45 0 0 0
SMALL
GASTEIGER

@<TRIPOS>ATOM
      1 P          23.3847   72.0585   -3.2888 P.3     1  UNL1        0.2189
      2 O          24.5162   72.9311   -4.0475 O.co2   1  UNL1       -0.4371
      3 O          23.9074   71.1042   -2.2556 O.2     1  UNL1       -0.5170
      4 O          22.5346   71.3929   -4.4939 O.3     1  UNL1       -0.3112
      5 C          21.6084   72.2035   -5.1959 C.3     1  UNL1        0.1811
      6 O          20.2213   70.4369   -6.0497 O.3     1  UNL1       -0.3308
      7 O          20.5016   71.7631   -8.7243 O.3     1  UNL1       -0.3794
      8 O          18.0282   72.5767   -7.9137 O.3     1  UNL1       -0.3779
      9 C          20.4006   72.3548   -7.4301 C.3     1  UNL1        0.1713
     10 C          18.9787   72.2589   -6.9176 C.3     1  UNL1        0.1895
     11 C          21.1534   71.4661   -6.4478 C.3     1  UNL1        0.1764
     12 C          18.9001   70.8072   -6.4764 C.3     1  UNL1        0.2383
     13 H          20.0285   72.3132   -9.3689 H       1  UNL1        0.2105
     14 H          18.1184   73.5103   -8.1606 H       1  UNL1        0.2106
     15 O          18.5841   72.6083   -4.3237 O.2     1  UNL1       -0.2464
     16 O          15.3672   69.9662   -2.3459 O.2     1  UNL1       -0.2670
     17 N          17.9868   70.6151   -5.3854 N.ar    1  UNL1       -0.2551
     18 N          16.9825   71.2914   -3.3408 N.ar    1  UNL1       -0.2743
     19 C          17.9059   71.5794   -4.3539 C.ar    1  UNL1        0.3323
     20 C          17.1833   69.4807   -5.3458 C.ar    1  UNL1        0.0869
     21 C          16.3087   69.2202   -4.3719 C.ar    1  UNL1        0.0795
     22 C          16.1625   70.1773   -3.2563 C.ar    1  UNL1        0.2626
     23 H          16.9091   71.9489   -2.6114 H       1  UNL1        0.1734
     24 O          22.3795   73.1869   -2.7150 O.3     1  UNL1       -0.2703
     25 P          22.6730   74.5773   -1.9446 P.3     1  UNL1        0.2208
     26 O          21.2023   75.0559   -1.4697 O.co2   1  UNL1       -0.4371
     27 O          23.4188   75.5897   -2.7648 O.2     1  UNL1       -0.5170
     28 O          23.4190   74.1397   -0.5819 O.3     1  UNL1       -0.2858
     29 O          23.1586   72.1359    0.6564 O.3     1  UNL1       -0.3258
     30 O          23.8881   74.7465    3.7714 O.3     1  UNL1       -0.3794
     31 O          25.9123   72.8621    2.9970 O.3     1  UNL1       -0.3794
     32 O          22.2710   75.5946    1.5253 O.3     1  UNL1       -0.3775
     33 C          24.0280   74.2282    2.4458 C.3     1  UNL1        0.1715
     34 C          24.5629   72.7982    2.5439 C.3     1  UNL1        0.1694
     35 C          22.6650   74.2463    1.7564 C.3     1  UNL1        0.1967
     36 C          24.4879   72.0844    1.1875 C.3     1  UNL1        0.1761
     37 C          22.6875   73.4675    0.4400 C.3     1  UNL1        0.2704
     38 H          24.7501   74.7382    4.2146 H       1  UNL1        0.2105
     39 H          25.9458   73.3155    3.8541 H       1  UNL1        0.2105
     40 H          22.2603   76.0769    2.3662 H       1  UNL1        0.2106
     41 O          24.8161   70.2306    2.6587 O.3     1  UNL1       -0.3794
     42 C          24.8683   70.6094    1.2956 C.3     1  UNL1        0.1693
     43 H          25.0555   69.2939    2.7428 H       1  UNL1        0.2105
@<TRIPOS>UNITY_ATOM_ATTR
2 1
charge -1
26 1
charge -1
@<TRIPOS>BOND
     1    25    28    1
     2    25    24    1
     3    25    26    1
     4    25    27    2
     5     1     4    1
     6     1    24    1
     7     1     2    1
     8     1     3    2
     9     6    11    1
    10     6    12    1
    11    29    36    1
    12    29    37    1
    13     7     9    1
    14     7    13    1
    15     8    10    1
    16     8    14    1
    17    28    37    1
    18     4     5    1
    19    30    33    1
    20    30    38    1
    21    31    34    1
    22    31    39    1
    23    32    35    1
    24    32    40    1
    25    41    42    1
    26    41    43    1
    27    15    19    2
    28    16    22    2
    29    17    12    1
    30    17    19   ar
    31    17    20   ar
    32    18    19   ar
    33    18    22   ar
    34    18    23    1
    35     9    10    1
    36     9    11    1
    37    10    12    1
    38    11     5    1
    39    33    34    1
    40    33    35    1
    41    34    36    1
    42    35    37    1
    43    36    42    1
    44    20    21   ar
    45    21    22   ar
