
 OpenBabel04082516033D

 45 46  0  0  1  0  0  0  0  0999 V2000
    4.7073    5.4550   -8.2962 O   0  0  0  0  0  0  0  0  0  0  0  0
    3.6849    6.1814   -7.6149 C   0  0  0  0  0  0  0  0  0  0  0  0
    2.9267    5.2858   -6.6274 C   0  0  1  0  0  0  0  0  0  0  0  0
    2.2623    4.2661   -7.3774 O   0  0  0  0  0  0  0  0  0  0  0  0
    1.4127    3.4514   -6.5856 C   0  0  2  0  0  0  0  0  0  0  0  0
    0.3832    4.2411   -6.0002 O   0  0  0  0  0  0  0  0  0  0  0  0
    2.2062    2.6766   -5.5012 C   0  0  2  0  0  0  0  0  0  0  0  0
    1.3231    1.9906   -4.5812 O   0  0  0  0  0  0  0  0  0  0  0  0
    0.6422    0.8558   -5.1247 C   0  0  2  0  0  0  0  0  0  0  0  0
   -0.3472    1.3090   -6.0367 O   0  0  0  0  0  0  0  0  0  0  0  0
   -1.1112    0.2634   -6.6342 C   0  0  2  0  0  0  0  0  0  0  0  0
   -2.0066    0.8634   -7.7306 C   0  0  0  0  0  0  0  0  0  0  0  0
   -2.7441   -0.1385   -8.4291 O   0  0  0  0  0  0  0  0  0  0  0  0
   -1.9354   -0.4457   -5.5577 C   0  0  1  0  0  0  0  0  0  0  0  0
   -2.7278   -1.4843   -6.1521 O   0  0  0  0  0  0  0  0  0  0  0  0
   -0.9791   -1.0084   -4.4917 C   0  0  2  0  0  0  0  0  0  0  0  0
   -1.7514   -1.6106   -3.4409 O   0  0  0  0  0  0  0  0  0  0  0  0
   -0.0266    0.0786   -3.9574 C   0  0  1  0  0  0  0  0  0  0  0  0
    0.9388   -0.5206   -3.0818 O   0  0  0  0  0  0  0  0  0  0  0  0
    3.0477    3.6800   -4.6824 C   0  0  1  0  0  0  0  0  0  0  0  0
    3.9340    2.9732   -3.7955 O   0  0  0  0  0  0  0  0  0  0  0  0
    3.8457    4.6524   -5.5769 C   0  0  2  0  0  0  0  0  0  0  0  0
    4.4768    5.6617   -4.7788 O   0  0  0  0  0  0  0  0  0  0  0  0
    5.0816    6.0597   -8.9594 H   0  0  0  0  0  0  0  0  0  0  0  0
    2.9911    6.5639   -8.3719 H   0  0  0  0  0  0  0  0  0  0  0  0
    4.1483    7.0297   -7.0999 H   0  0  0  0  0  0  0  0  0  0  0  0
    2.1807    5.9237   -6.1361 H   0  0  0  0  0  0  0  0  0  0  0  0
    0.9430    2.7508   -7.2797 H   0  0  0  0  0  0  0  0  0  0  0  0
    0.2262    3.8672   -5.1131 H   0  0  0  0  0  0  0  0  0  0  0  0
    2.8878    1.9486   -5.9583 H   0  0  0  0  0  0  0  0  0  0  0  0
    1.3730    0.2123   -5.6337 H   0  0  0  0  0  0  0  0  0  0  0  0
   -0.4385   -0.4595   -7.1162 H   0  0  0  0  0  0  0  0  0  0  0  0
   -2.7067    1.5910   -7.3125 H   0  0  0  0  0  0  0  0  0  0  0  0
   -1.3912    1.3973   -8.4587 H   0  0  0  0  0  0  0  0  0  0  0  0
   -3.1507   -0.7155   -7.7559 H   0  0  0  0  0  0  0  0  0  0  0  0
   -2.6307    0.2540   -5.0790 H   0  0  0  0  0  0  0  0  0  0  0  0
   -2.4292   -2.3417   -5.7974 H   0  0  0  0  0  0  0  0  0  0  0  0
   -0.4001   -1.8267   -4.9142 H   0  0  0  0  0  0  0  0  0  0  0  0
   -1.9753   -0.9183   -2.7855 H   0  0  0  0  0  0  0  0  0  0  0  0
   -0.5906    0.7840   -3.3338 H   0  0  0  0  0  0  0  0  0  0  0  0
    1.4815   -1.1516   -3.5834 H   0  0  0  0  0  0  0  0  0  0  0  0
    2.3888    4.2511   -4.0163 H   0  0  0  0  0  0  0  0  0  0  0  0
    4.7474    2.7541   -4.2822 H   0  0  0  0  0  0  0  0  0  0  0  0
    4.6504    4.0910   -6.0661 H   0  0  0  0  0  0  0  0  0  0  0  0
    3.8205    6.0168   -4.1539 H   0  0  0  0  0  0  0  0  0  0  0  0
  1  2  1  0  0  0  0
  1 24  1  0  0  0  0
  2 25  1  0  0  0  0
  2 26  1  0  0  0  0
  3  4  1  0  0  0  0
  3 22  1  0  0  0  0
  3  2  1  0  0  0  0
  3 27  1  1  0  0  0
  4  5  1  0  0  0  0
  5  6  1  0  0  0  0
  5  7  1  0  0  0  0
  5 28  1  6  0  0  0
  6 29  1  0  0  0  0
  7 20  1  0  0  0  0
  7  8  1  0  0  0  0
  7 30  1  6  0  0  0
  9 10  1  0  0  0  0
  9 18  1  0  0  0  0
  9  8  1  0  0  0  0
  9 31  1  6  0  0  0
 10 11  1  0  0  0  0
 11 14  1  0  0  0  0
 11 12  1  0  0  0  0
 11 32  1  6  0  0  0
 12 13  1  0  0  0  0
 12 33  1  0  0  0  0
 12 34  1  0  0  0  0
 13 35  1  0  0  0  0
 14 15  1  0  0  0  0
 14 16  1  0  0  0  0
 14 36  1  1  0  0  0
 15 37  1  0  0  0  0
 16 17  1  0  0  0  0
 16 18  1  0  0  0  0
 16 38  1  6  0  0  0
 17 39  1  0  0  0  0
 18 19  1  0  0  0  0
 18 40  1  1  0  0  0
 19 41  1  0  0  0  0
 20 21  1  0  0  0  0
 20 22  1  0  0  0  0
 20 42  1  1  0  0  0
 21 43  1  0  0  0  0
 22 23  1  0  0  0  0
 22 44  1  6  0  0  0
 23 45  1  0  0  0  0
M  END
$$$$
