


 31 32  0  0  0  0  0  0  0  0999 V2000
    6.0850   13.7906    9.2327 O   0  0  0  0  0  0  0  0  0  0  0  0
    2.1963   13.9337    7.6597 C   0  0  0  0  0  0  0  0  0  0  0  0
    2.3638   13.7329    9.0652 O   0  0  0  0  0  0  0  0  0  0  0  0
    3.6441   14.1198    9.5380 C   0  0  0  0  0  0  0  0  0  0  0  0
    3.8495   15.5104    9.3135 O   0  0  0  0  0  0  0  0  0  0  0  0
    4.7746   13.2775    8.8913 C   0  0  0  0  0  0  0  0  0  0  0  0
    4.6321   13.3420    7.3548 C   0  0  0  0  0  0  0  0  0  0  0  0
    5.5493   12.4222    6.7347 O   0  0  0  0  0  0  0  0  0  0  0  0
    3.1896   13.0635    6.8816 C   0  0  0  0  0  0  0  0  0  0  0  0
    3.0727   13.2951    5.4721 O   0  0  0  0  0  0  0  0  0  0  0  0
    4.7930   15.6119    9.0877 H   0  0  0  0  0  0  0  0  0  0  0  0
    5.1276   11.5464    6.6940 H   0  0  0  0  0  0  0  0  0  0  0  0
    3.4869   14.1510    5.2641 H   0  0  0  0  0  0  0  0  0  0  0  0
    0.2739   12.4569    7.9872 O   0  0  0  0  0  0  0  0  0  0  0  0
    0.7359   13.6242    7.3083 C   0  0  0  0  0  0  0  0  0  0  0  0
   -0.6737   12.3755    7.7847 H   0  0  0  0  0  0  0  0  0  0  0  0
    7.1525   12.8428    9.1369 C   0  0  0  0  0  0  0  0  0  0  0  0
    7.4542   12.3601   10.4376 O   0  0  0  0  0  0  0  0  0  0  0  0
    8.5224   11.4159   10.4751 C   0  0  0  0  0  0  0  0  0  0  0  0
    9.8238   12.1005   10.0524 C   0  0  0  0  0  0  0  0  0  0  0  0
   10.9109   11.1652   10.1107 O   0  0  0  0  0  0  0  0  0  0  0  0
    9.6466   12.6690    8.6336 C   0  0  0  0  0  0  0  0  0  0  0  0
   10.8395   13.3769    8.2605 O   0  0  0  0  0  0  0  0  0  0  0  0
    8.3927   13.5589    8.5345 C   0  0  0  0  0  0  0  0  0  0  0  0
    8.1862   13.9428    7.1678 O   0  0  0  0  0  0  0  0  0  0  0  0
   11.2566   11.0371    9.2084 H   0  0  0  0  0  0  0  0  0  0  0  0
   10.7616   14.3014    8.5737 H   0  0  0  0  0  0  0  0  0  0  0  0
    8.0145   13.1502    6.6325 H   0  0  0  0  0  0  0  0  0  0  0  0
    8.6234   10.8326   11.8941 C   0  0  0  0  0  0  0  0  0  0  0  0
    7.4455   10.1184   12.2658 O   0  0  0  0  0  0  0  0  0  0  0  0
    7.2297    9.5190   11.5272 H   0  0  0  0  0  0  0  0  0  0  0  0
 14 15  1  0
 14 16  1  0
  2  3  1  0
  2  9  1  0
  2 15  1  0
  3  4  1  0
  4  5  1  0
  4  6  1  0
  5 11  1  0
  6  7  1  0
  6  1  1  0
 17 18  1  0
 17 24  1  0
 17  1  1  0
 18 19  1  0
 19 20  1  0
 19 29  1  0
 29 30  1  0
 30 31  1  0
 20 21  1  0
 20 22  1  0
 21 26  1  0
 22 23  1  0
 22 24  1  0
 23 27  1  0
 24 25  1  0
 25 28  1  0
  7  8  1  0
  7  9  1  0
  8 12  1  0
  9 10  1  0
 10 13  1  0
M  END
> <minimizedAffinity>
-5.23563

> <CNNscore>
0.9482737184

> <CNNaffinity>
2.9360744953

> <CNN_VS>
2.7842023373

> <CNNaffinity_variance>
0.7423815131

$$$$



 31 32  0  0  0  0  0  0  0  0999 V2000
    3.9267   14.1802    8.3593 O   0  0  0  0  0  0  0  0  0  0  0  0
   -0.2308   13.9991    7.8126 C   0  0  0  0  0  0  0  0  0  0  0  0
    0.3044   13.7462    9.1138 O   0  0  0  0  0  0  0  0  0  0  0  0
    1.6238   14.2393    9.2828 C   0  0  0  0  0  0  0  0  0  0  0  0
    1.6431   15.6531    9.1190 O   0  0  0  0  0  0  0  0  0  0  0  0
    2.6227   13.5521    8.3153 C   0  0  0  0  0  0  0  0  0  0  0  0
    2.0902   13.6788    6.8711 C   0  0  0  0  0  0  0  0  0  0  0  0
    2.8970   12.8913    5.9764 O   0  0  0  0  0  0  0  0  0  0  0  0
    0.6049   13.2767    6.7501 C   0  0  0  0  0  0  0  0  0  0  0  0
    0.1147   13.5657    5.4347 O   0  0  0  0  0  0  0  0  0  0  0  0
    2.4858   15.8630    8.6750 H   0  0  0  0  0  0  0  0  0  0  0  0
    2.5572   11.9797    5.9759 H   0  0  0  0  0  0  0  0  0  0  0  0
    0.3861   14.4692    5.1953 H   0  0  0  0  0  0  0  0  0  0  0  0
   -1.8283   12.1770    8.1471 O   0  0  0  0  0  0  0  0  0  0  0  0
   -1.6998   13.5582    7.8113 C   0  0  0  0  0  0  0  0  0  0  0  0
   -2.7814   11.9949    8.2103 H   0  0  0  0  0  0  0  0  0  0  0  0
    4.9444   13.4220    9.0196 C   0  0  0  0  0  0  0  0  0  0  0  0
    5.2857   14.0738   10.2340 O   0  0  0  0  0  0  0  0  0  0  0  0
    6.3107   13.4187   10.9785 C   0  0  0  0  0  0  0  0  0  0  0  0
    7.6201   13.4578   10.1879 C   0  0  0  0  0  0  0  0  0  0  0  0
    8.6653   12.8230   10.9393 O   0  0  0  0  0  0  0  0  0  0  0  0
    7.4013   12.7641    8.8321 C   0  0  0  0  0  0  0  0  0  0  0  0
    8.6058   12.8630    8.0558 O   0  0  0  0  0  0  0  0  0  0  0  0
    6.1856   13.3494    8.0879 C   0  0  0  0  0  0  0  0  0  0  0  0
    5.9318   12.5771    6.9061 O   0  0  0  0  0  0  0  0  0  0  0  0
    8.9614   12.0337   10.4501 H   0  0  0  0  0  0  0  0  0  0  0  0
    8.5849   13.7060    7.5578 H   0  0  0  0  0  0  0  0  0  0  0  0
    5.6990   11.6681    7.1585 H   0  0  0  0  0  0  0  0  0  0  0  0
    6.4528   14.1079   12.3455 C   0  0  0  0  0  0  0  0  0  0  0  0
    6.8359   15.4765   12.2192 O   0  0  0  0  0  0  0  0  0  0  0  0
    6.2488   15.8772   11.5513 H   0  0  0  0  0  0  0  0  0  0  0  0
 14 15  1  0
 14 16  1  0
  2  3  1  0
  2  9  1  0
  2 15  1  0
  3  4  1  0
  4  5  1  0
  4  6  1  0
  5 11  1  0
  6  7  1  0
  6  1  1  0
 17 18  1  0
 17 24  1  0
 17  1  1  0
 18 19  1  0
 19 20  1  0
 19 29  1  0
 29 30  1  0
 30 31  1  0
 20 21  1  0
 20 22  1  0
 21 26  1  0
 22 23  1  0
 22 24  1  0
 23 27  1  0
 24 25  1  0
 25 28  1  0
  7  8  1  0
  7  9  1  0
  8 12  1  0
  9 10  1  0
 10 13  1  0
M  END
> <minimizedAffinity>
-5.23171

> <CNNscore>
0.9390208125

> <CNNaffinity>
2.8949592113

> <CNN_VS>
2.7184269428

> <CNNaffinity_variance>
0.7015495300

$$$$



 31 32  0  0  0  0  0  0  0  0999 V2000
    2.1000   14.6184    7.7067 O   0  0  0  0  0  0  0  0  0  0  0  0
   -1.9719   13.9141    6.9716 C   0  0  0  0  0  0  0  0  0  0  0  0
   -1.1963   12.8863    7.5928 O   0  0  0  0  0  0  0  0  0  0  0  0
    0.0088   13.3642    8.1688 C   0  0  0  0  0  0  0  0  0  0  0  0
   -0.2791   14.3106    9.1923 O   0  0  0  0  0  0  0  0  0  0  0  0
    0.9565   13.9691    7.1003 C   0  0  0  0  0  0  0  0  0  0  0  0
    0.1858   15.0364    6.2926 C   0  0  0  0  0  0  0  0  0  0  0  0
    0.9792   15.4795    5.1765 O   0  0  0  0  0  0  0  0  0  0  0  0
   -1.1902   14.5326    5.8073 C   0  0  0  0  0  0  0  0  0  0  0  0
   -1.9316   15.6032    5.2091 O   0  0  0  0  0  0  0  0  0  0  0  0
    0.4233   14.9856    9.1426 H   0  0  0  0  0  0  0  0  0  0  0  0
    0.8313   14.8711    4.4318 H   0  0  0  0  0  0  0  0  0  0  0  0
   -1.8866   16.3770    5.7978 H   0  0  0  0  0  0  0  0  0  0  0  0
   -3.1392   11.9441    6.1110 O   0  0  0  0  0  0  0  0  0  0  0  0
   -3.3052   13.2986    6.5292 C   0  0  0  0  0  0  0  0  0  0  0  0
   -4.0302   11.5990    5.9302 H   0  0  0  0  0  0  0  0  0  0  0  0
    3.0992   13.7332    8.2211 C   0  0  0  0  0  0  0  0  0  0  0  0
    3.7109   14.3396    9.3499 O   0  0  0  0  0  0  0  0  0  0  0  0
    4.7442   13.5561    9.9435 C   0  0  0  0  0  0  0  0  0  0  0  0
    5.9062   13.4133    8.9584 C   0  0  0  0  0  0  0  0  0  0  0  0
    6.9631   12.6472    9.5551 O   0  0  0  0  0  0  0  0  0  0  0  0
    5.3866   12.7479    7.6720 C   0  0  0  0  0  0  0  0  0  0  0  0
    6.4562   12.6787    6.7158 O   0  0  0  0  0  0  0  0  0  0  0  0
    4.1575   13.4882    7.1103 C   0  0  0  0  0  0  0  0  0  0  0  0
    3.6205   12.7507    6.0033 O   0  0  0  0  0  0  0  0  0  0  0  0
    7.0711   11.8223    9.0472 H   0  0  0  0  0  0  0  0  0  0  0  0
    6.4691   13.5139    6.2047 H   0  0  0  0  0  0  0  0  0  0  0  0
    3.3118   11.8829    6.3130 H   0  0  0  0  0  0  0  0  0  0  0  0
    5.1899   14.2274   11.2529 C   0  0  0  0  0  0  0  0  0  0  0  0
    5.6883   15.5467   11.0369 O   0  0  0  0  0  0  0  0  0  0  0  0
    5.0413   16.0075   10.4709 H   0  0  0  0  0  0  0  0  0  0  0  0
 14 15  1  0
 14 16  1  0
  2  3  1  0
  2  9  1  0
  2 15  1  0
  3  4  1  0
  4  5  1  0
  4  6  1  0
  5 11  1  0
  6  7  1  0
  6  1  1  0
 17 18  1  0
 17 24  1  0
 17  1  1  0
 18 19  1  0
 19 20  1  0
 19 29  1  0
 29 30  1  0
 30 31  1  0
 20 21  1  0
 20 22  1  0
 21 26  1  0
 22 23  1  0
 22 24  1  0
 23 27  1  0
 24 25  1  0
 25 28  1  0
  7  8  1  0
  7  9  1  0
  8 12  1  0
  9 10  1  0
 10 13  1  0
M  END
> <minimizedAffinity>
-6.04203

> <CNNscore>
0.9180203080

> <CNNaffinity>
2.8339536190

> <CNN_VS>
2.6016268730

> <CNNaffinity_variance>
0.9239459038

$$$$



 31 32  0  0  0  0  0  0  0  0999 V2000
    6.5874   14.6921    8.7348 O   0  0  0  0  0  0  0  0  0  0  0  0
    2.6209   13.9129    7.6050 C   0  0  0  0  0  0  0  0  0  0  0  0
    2.8975   14.2359    8.9699 O   0  0  0  0  0  0  0  0  0  0  0  0
    4.1480   14.8808    9.1510 C   0  0  0  0  0  0  0  0  0  0  0  0
    4.1689   16.1161    8.4440 O   0  0  0  0  0  0  0  0  0  0  0  0
    5.3305   13.9731    8.7228 C   0  0  0  0  0  0  0  0  0  0  0  0
    5.0871   13.4794    7.2797 C   0  0  0  0  0  0  0  0  0  0  0  0
    6.0693   12.4891    6.9242 O   0  0  0  0  0  0  0  0  0  0  0  0
    3.6627   12.9203    7.0773 C   0  0  0  0  0  0  0  0  0  0  0  0
    3.4322   12.6294    5.6931 O   0  0  0  0  0  0  0  0  0  0  0  0
    5.0773   16.2184    8.1040 H   0  0  0  0  0  0  0  0  0  0  0  0
    5.7554   11.6201    7.2286 H   0  0  0  0  0  0  0  0  0  0  0  0
    3.7258   13.3918    5.1640 H   0  0  0  0  0  0  0  0  0  0  0  0
    0.7782   13.1738    6.1759 O   0  0  0  0  0  0  0  0  0  0  0  0
    1.1900   13.3662    7.5289 C   0  0  0  0  0  0  0  0  0  0  0  0
   -0.0957   12.7488    6.2102 H   0  0  0  0  0  0  0  0  0  0  0  0
    7.6388   14.0654    9.4754 C   0  0  0  0  0  0  0  0  0  0  0  0
    8.5458   13.4640    8.5635 O   0  0  0  0  0  0  0  0  0  0  0  0
    9.6351   12.7866    9.1868 C   0  0  0  0  0  0  0  0  0  0  0  0
    9.1053   11.5920    9.9824 C   0  0  0  0  0  0  0  0  0  0  0  0
   10.1962   10.8878   10.5938 O   0  0  0  0  0  0  0  0  0  0  0  0
    8.1048   12.1016   11.0345 C   0  0  0  0  0  0  0  0  0  0  0  0
    7.5485   10.9776   11.7348 O   0  0  0  0  0  0  0  0  0  0  0  0
    7.0129   12.9815   10.3958 C   0  0  0  0  0  0  0  0  0  0  0  0
    6.1955   13.5523   11.4272 O   0  0  0  0  0  0  0  0  0  0  0  0
   10.1013   10.9520   11.5618 H   0  0  0  0  0  0  0  0  0  0  0  0
    6.7678   10.6584   11.2373 H   0  0  0  0  0  0  0  0  0  0  0  0
    6.7388   14.1343   11.9844 H   0  0  0  0  0  0  0  0  0  0  0  0
   10.6354   12.3485    8.1045 C   0  0  0  0  0  0  0  0  0  0  0  0
   10.9612   13.4132    7.2123 O   0  0  0  0  0  0  0  0  0  0  0  0
   11.1755   14.1905    7.7611 H   0  0  0  0  0  0  0  0  0  0  0  0
 14 15  1  0
 14 16  1  0
  2  3  1  0
  2  9  1  0
  2 15  1  0
  3  4  1  0
  4  5  1  0
  4  6  1  0
  5 11  1  0
  6  7  1  0
  6  1  1  0
 17 18  1  0
 17 24  1  0
 17  1  1  0
 18 19  1  0
 19 20  1  0
 19 29  1  0
 29 30  1  0
 30 31  1  0
 20 21  1  0
 20 22  1  0
 21 26  1  0
 22 23  1  0
 22 24  1  0
 23 27  1  0
 24 25  1  0
 25 28  1  0
  7  8  1  0
  7  9  1  0
  8 12  1  0
  9 10  1  0
 10 13  1  0
M  END
> <minimizedAffinity>
-4.93987

> <CNNscore>
0.8284465075

> <CNNaffinity>
3.0290672779

> <CNN_VS>
2.5094201565

> <CNNaffinity_variance>
0.5479056239

$$$$



 31 32  0  0  0  0  0  0  0  0999 V2000
    3.7677   13.2393    8.3885 O   0  0  0  0  0  0  0  0  0  0  0  0
    7.5353   14.2796    9.9182 C   0  0  0  0  0  0  0  0  0  0  0  0
    6.4841   15.2476    9.9591 O   0  0  0  0  0  0  0  0  0  0  0  0
    5.1919   14.6779    9.8244 C   0  0  0  0  0  0  0  0  0  0  0  0
    4.9387   13.7787   10.8984 O   0  0  0  0  0  0  0  0  0  0  0  0
    5.0139   13.9738    8.4538 C   0  0  0  0  0  0  0  0  0  0  0  0
    6.1645   12.9627    8.2559 C   0  0  0  0  0  0  0  0  0  0  0  0
    6.1314   12.4324    6.9183 O   0  0  0  0  0  0  0  0  0  0  0  0
    7.5491   13.5747    8.5572 C   0  0  0  0  0  0  0  0  0  0  0  0
    8.5620   12.5614    8.5199 O   0  0  0  0  0  0  0  0  0  0  0  0
    4.4191   13.0447   10.5205 H   0  0  0  0  0  0  0  0  0  0  0  0
    6.6203   13.0376    6.3342 H   0  0  0  0  0  0  0  0  0  0  0  0
    8.2542   11.7975    9.0385 H   0  0  0  0  0  0  0  0  0  0  0  0
    9.9328   14.0750   10.3589 O   0  0  0  0  0  0  0  0  0  0  0  0
    8.8539   14.9999   10.2256 C   0  0  0  0  0  0  0  0  0  0  0  0
   10.7408   14.6054   10.4653 H   0  0  0  0  0  0  0  0  0  0  0  0
    2.6215   14.0177    8.0320 C   0  0  0  0  0  0  0  0  0  0  0  0
    1.7278   14.0484    9.1350 O   0  0  0  0  0  0  0  0  0  0  0  0
    0.5300   14.7840    8.8937 C   0  0  0  0  0  0  0  0  0  0  0  0
   -0.2889   14.0838    7.8074 C   0  0  0  0  0  0  0  0  0  0  0  0
   -1.5093   14.8023    7.5742 O   0  0  0  0  0  0  0  0  0  0  0  0
    0.5615   13.9899    6.5286 C   0  0  0  0  0  0  0  0  0  0  0  0
   -0.1747   13.2678    5.5287 O   0  0  0  0  0  0  0  0  0  0  0  0
    1.9345   13.3492    6.8093 C   0  0  0  0  0  0  0  0  0  0  0  0
    2.7446   13.4185    5.6275 O   0  0  0  0  0  0  0  0  0  0  0  0
   -1.4973   15.1428    6.6609 H   0  0  0  0  0  0  0  0  0  0  0  0
    0.0036   12.3117    5.6431 H   0  0  0  0  0  0  0  0  0  0  0  0
    2.9070   14.3496    5.4018 H   0  0  0  0  0  0  0  0  0  0  0  0
   -0.2566   14.9023   10.2094 C   0  0  0  0  0  0  0  0  0  0  0  0
   -1.2242   13.8634   10.3514 O   0  0  0  0  0  0  0  0  0  0  0  0
   -0.7725   13.0227   10.1496 H   0  0  0  0  0  0  0  0  0  0  0  0
 14 15  1  0
 14 16  1  0
  2  3  1  0
  2  9  1  0
  2 15  1  0
  3  4  1  0
  4  5  1  0
  4  6  1  0
  5 11  1  0
  6  7  1  0
  6  1  1  0
 17 18  1  0
 17 24  1  0
 17  1  1  0
 18 19  1  0
 19 20  1  0
 19 29  1  0
 29 30  1  0
 30 31  1  0
 20 21  1  0
 20 22  1  0
 21 26  1  0
 22 23  1  0
 22 24  1  0
 23 27  1  0
 24 25  1  0
 25 28  1  0
  7  8  1  0
  7  9  1  0
  8 12  1  0
  9 10  1  0
 10 13  1  0
M  END
> <minimizedAffinity>
-5.12273

> <CNNscore>
0.8145287037

> <CNNaffinity>
3.1406428814

> <CNN_VS>
2.5581438541

> <CNNaffinity_variance>
0.3785731792

$$$$



 31 32  0  0  0  0  0  0  0  0999 V2000
    3.9905   13.1685    8.6953 O   0  0  0  0  0  0  0  0  0  0  0  0
    7.4795   14.5895    6.8447 C   0  0  0  0  0  0  0  0  0  0  0  0
    7.5389   13.3634    7.5773 O   0  0  0  0  0  0  0  0  0  0  0  0
    6.2659   12.7732    7.7866 C   0  0  0  0  0  0  0  0  0  0  0  0
    5.6625   12.4545    6.5374 O   0  0  0  0  0  0  0  0  0  0  0  0
    5.3421   13.6848    8.6359 C   0  0  0  0  0  0  0  0  0  0  0  0
    5.2809   15.0837    7.9841 C   0  0  0  0  0  0  0  0  0  0  0  0
    4.5850   16.0010    8.8478 O   0  0  0  0  0  0  0  0  0  0  0  0
    6.6789   15.6340    7.6304 C   0  0  0  0  0  0  0  0  0  0  0  0
    6.5622   16.8520    6.8841 O   0  0  0  0  0  0  0  0  0  0  0  0
    4.7077   12.6206    6.6475 H   0  0  0  0  0  0  0  0  0  0  0  0
    5.2228   16.3718    9.4820 H   0  0  0  0  0  0  0  0  0  0  0  0
    5.9080   16.7190    6.1759 H   0  0  0  0  0  0  0  0  0  0  0  0
    9.4770   14.3193    5.4586 O   0  0  0  0  0  0  0  0  0  0  0  0
    8.9173   15.0389    6.5569 C   0  0  0  0  0  0  0  0  0  0  0  0
   10.3476   14.7153    5.2830 H   0  0  0  0  0  0  0  0  0  0  0  0
    2.9874   14.0272    8.1445 C   0  0  0  0  0  0  0  0  0  0  0  0
    2.0748   14.3833    9.1724 O   0  0  0  0  0  0  0  0  0  0  0  0
    1.0107   15.2283    8.7394 C   0  0  0  0  0  0  0  0  0  0  0  0
    0.1291   14.4699    7.7450 C   0  0  0  0  0  0  0  0  0  0  0  0
   -0.9602   15.3030    7.3214 O   0  0  0  0  0  0  0  0  0  0  0  0
    0.9949   14.0271    6.5525 C   0  0  0  0  0  0  0  0  0  0  0  0
    0.1891   13.2510    5.6515 O   0  0  0  0  0  0  0  0  0  0  0  0
    2.2453   13.2563    7.0181 C   0  0  0  0  0  0  0  0  0  0  0  0
    3.0929   12.9955    5.8906 O   0  0  0  0  0  0  0  0  0  0  0  0
   -0.8682   15.4690    6.3654 H   0  0  0  0  0  0  0  0  0  0  0  0
    0.2166   12.3154    5.9393 H   0  0  0  0  0  0  0  0  0  0  0  0
    3.4017   13.8378    5.5173 H   0  0  0  0  0  0  0  0  0  0  0  0
    0.2105   15.6923    9.9675 C   0  0  0  0  0  0  0  0  0  0  0  0
    1.0400   16.3251   10.9407 O   0  0  0  0  0  0  0  0  0  0  0  0
    1.5906   16.9761   10.4670 H   0  0  0  0  0  0  0  0  0  0  0  0
 14 15  1  0
 14 16  1  0
  2  3  1  0
  2  9  1  0
  2 15  1  0
  3  4  1  0
  4  5  1  0
  4  6  1  0
  5 11  1  0
  6  7  1  0
  6  1  1  0
 17 18  1  0
 17 24  1  0
 17  1  1  0
 18 19  1  0
 19 20  1  0
 19 29  1  0
 29 30  1  0
 30 31  1  0
 20 21  1  0
 20 22  1  0
 21 26  1  0
 22 23  1  0
 22 24  1  0
 23 27  1  0
 24 25  1  0
 25 28  1  0
  7  8  1  0
  7  9  1  0
  8 12  1  0
  9 10  1  0
 10 13  1  0
M  END
> <minimizedAffinity>
-5.61026

> <CNNscore>
0.7888211012

> <CNNaffinity>
2.9148769379

> <CNN_VS>
2.2993164062

> <CNNaffinity_variance>
0.6178894043

$$$$



 31 32  0  0  0  0  0  0  0  0999 V2000
    0.9540   14.0406    7.6878 O   0  0  0  0  0  0  0  0  0  0  0  0
   -0.5993   16.3906    4.5763 C   0  0  0  0  0  0  0  0  0  0  0  0
    0.1870   15.2431    4.2462 O   0  0  0  0  0  0  0  0  0  0  0  0
    0.2936   14.3116    5.3108 C   0  0  0  0  0  0  0  0  0  0  0  0
   -0.9948   13.8168    5.6595 O   0  0  0  0  0  0  0  0  0  0  0  0
    1.0074   14.9260    6.5432 C   0  0  0  0  0  0  0  0  0  0  0  0
    0.2939   16.2391    6.9332 C   0  0  0  0  0  0  0  0  0  0  0  0
    1.0445   16.9253    7.9518 O   0  0  0  0  0  0  0  0  0  0  0  0
    0.0579   17.1671    5.7226 C   0  0  0  0  0  0  0  0  0  0  0  0
   -0.7473   18.2899    6.1033 O   0  0  0  0  0  0  0  0  0  0  0  0
   -0.9872   13.7001    6.6278 H   0  0  0  0  0  0  0  0  0  0  0  0
    1.7227   17.4726    7.5193 H   0  0  0  0  0  0  0  0  0  0  0  0
   -1.5107   17.9645    6.6118 H   0  0  0  0  0  0  0  0  0  0  0  0
    0.1302   16.8034    2.2781 O   0  0  0  0  0  0  0  0  0  0  0  0
   -0.7616   17.2342    3.3058 C   0  0  0  0  0  0  0  0  0  0  0  0
   -0.0894   17.3221    1.4855 H   0  0  0  0  0  0  0  0  0  0  0  0
    2.2256   13.6163    8.1875 C   0  0  0  0  0  0  0  0  0  0  0  0
    2.8398   14.7055    8.8602 O   0  0  0  0  0  0  0  0  0  0  0  0
    4.1304   14.4097    9.3901 C   0  0  0  0  0  0  0  0  0  0  0  0
    5.1004   14.1242    8.2418 C   0  0  0  0  0  0  0  0  0  0  0  0
    6.4093   13.8497    8.7629 O   0  0  0  0  0  0  0  0  0  0  0  0
    4.5621   12.9392    7.4212 C   0  0  0  0  0  0  0  0  0  0  0  0
    5.4298   12.7142    6.2989 O   0  0  0  0  0  0  0  0  0  0  0  0
    3.1027   13.1714    6.9847 C   0  0  0  0  0  0  0  0  0  0  0  0
    2.5979   11.9854    6.3552 O   0  0  0  0  0  0  0  0  0  0  0  0
    6.6430   12.9297    8.5414 H   0  0  0  0  0  0  0  0  0  0  0  0
    5.1321   13.2819    5.5587 H   0  0  0  0  0  0  0  0  0  0  0  0
    2.5890   11.2574    6.9988 H   0  0  0  0  0  0  0  0  0  0  0  0
    4.6011   15.5951   10.2487 C   0  0  0  0  0  0  0  0  0  0  0  0
    4.8421   15.2148   11.6026 O   0  0  0  0  0  0  0  0  0  0  0  0
    5.3883   14.4070   11.5796 H   0  0  0  0  0  0  0  0  0  0  0  0
 14 15  1  0
 14 16  1  0
  2  3  1  0
  2  9  1  0
  2 15  1  0
  3  4  1  0
  4  5  1  0
  4  6  1  0
  5 11  1  0
  6  7  1  0
  6  1  1  0
 17 18  1  0
 17 24  1  0
 17  1  1  0
 18 19  1  0
 19 20  1  0
 19 29  1  0
 29 30  1  0
 30 31  1  0
 20 21  1  0
 20 22  1  0
 21 26  1  0
 22 23  1  0
 22 24  1  0
 23 27  1  0
 24 25  1  0
 25 28  1  0
  7  8  1  0
  7  9  1  0
  8 12  1  0
  9 10  1  0
 10 13  1  0
M  END
> <minimizedAffinity>
-4.95281

> <CNNscore>
0.7664367557

> <CNNaffinity>
2.9380576611

> <CNN_VS>
2.2518353462

> <CNNaffinity_variance>
0.4425419569

$$$$



 31 32  0  0  0  0  0  0  0  0999 V2000
   -0.1328   14.7173    8.0889 O   0  0  0  0  0  0  0  0  0  0  0  0
    3.8929   13.5460    7.8913 C   0  0  0  0  0  0  0  0  0  0  0  0
    3.5730   14.8190    8.4577 O   0  0  0  0  0  0  0  0  0  0  0  0
    2.2169   14.9290    8.8595 C   0  0  0  0  0  0  0  0  0  0  0  0
    1.9253   13.9671    9.8675 O   0  0  0  0  0  0  0  0  0  0  0  0
    1.2475   14.7880    7.6569 C   0  0  0  0  0  0  0  0  0  0  0  0
    1.5700   13.4790    6.9033 C   0  0  0  0  0  0  0  0  0  0  0  0
    0.8149   13.4147    5.6796 O   0  0  0  0  0  0  0  0  0  0  0  0
    3.0776   13.3184    6.6135 C   0  0  0  0  0  0  0  0  0  0  0  0
    3.3453   12.0222    6.0638 O   0  0  0  0  0  0  0  0  0  0  0  0
    1.0111   13.6699    9.7020 H   0  0  0  0  0  0  0  0  0  0  0  0
    1.3099   13.8851    4.9866 H   0  0  0  0  0  0  0  0  0  0  0  0
    2.8897   11.3558    6.6075 H   0  0  0  0  0  0  0  0  0  0  0  0
    5.7582   12.4489    6.7507 O   0  0  0  0  0  0  0  0  0  0  0  0
    5.4059   13.5050    7.6438 C   0  0  0  0  0  0  0  0  0  0  0  0
    6.7104   12.5400    6.5760 H   0  0  0  0  0  0  0  0  0  0  0  0
   -1.0544   14.2426    7.1030 C   0  0  0  0  0  0  0  0  0  0  0  0
   -1.5591   15.3528    6.3758 O   0  0  0  0  0  0  0  0  0  0  0  0
   -2.5086   15.0068    5.3694 C   0  0  0  0  0  0  0  0  0  0  0  0
   -3.7628   14.4289    6.0282 C   0  0  0  0  0  0  0  0  0  0  0  0
   -4.7358   14.1004    5.0255 O   0  0  0  0  0  0  0  0  0  0  0  0
   -3.3647   13.1919    6.8521 C   0  0  0  0  0  0  0  0  0  0  0  0
   -4.5257   12.6890    7.5323 O   0  0  0  0  0  0  0  0  0  0  0  0
   -2.2163   13.5099    7.8290 C   0  0  0  0  0  0  0  0  0  0  0  0
   -1.7809   12.2997    8.4644 O   0  0  0  0  0  0  0  0  0  0  0  0
   -4.8781   13.1362    5.0377 H   0  0  0  0  0  0  0  0  0  0  0  0
   -4.6091   13.1560    8.3890 H   0  0  0  0  0  0  0  0  0  0  0  0
   -1.4234   11.6939    7.7940 H   0  0  0  0  0  0  0  0  0  0  0  0
   -2.8309   16.2580    4.5361 C   0  0  0  0  0  0  0  0  0  0  0  0
   -3.6141   15.9486    3.3843 O   0  0  0  0  0  0  0  0  0  0  0  0
   -4.3500   15.3822    3.6829 H   0  0  0  0  0  0  0  0  0  0  0  0
 14 15  1  0
 14 16  1  0
  2  3  1  0
  2  9  1  0
  2 15  1  0
  3  4  1  0
  4  5  1  0
  4  6  1  0
  5 11  1  0
  6  7  1  0
  6  1  1  0
 17 18  1  0
 17 24  1  0
 17  1  1  0
 18 19  1  0
 19 20  1  0
 19 29  1  0
 29 30  1  0
 30 31  1  0
 20 21  1  0
 20 22  1  0
 21 26  1  0
 22 23  1  0
 22 24  1  0
 23 27  1  0
 24 25  1  0
 25 28  1  0
  7  8  1  0
  7  9  1  0
  8 12  1  0
  9 10  1  0
 10 13  1  0
M  END
> <minimizedAffinity>
-6.27474

> <CNNscore>
0.7587790489

> <CNNaffinity>
2.9662315845

> <CNN_VS>
2.2507143021

> <CNNaffinity_variance>
0.4393284321

$$$$



 31 32  0  0  0  0  0  0  0  0999 V2000
    1.5561   13.7464    8.3197 O   0  0  0  0  0  0  0  0  0  0  0  0
    5.7391   14.0580    8.4699 C   0  0  0  0  0  0  0  0  0  0  0  0
    4.9495   15.1527    8.9411 O   0  0  0  0  0  0  0  0  0  0  0  0
    3.6109   14.7905    9.2402 C   0  0  0  0  0  0  0  0  0  0  0  0
    3.5874   13.8154   10.2769 O   0  0  0  0  0  0  0  0  0  0  0  0
    2.8571   14.2854    7.9822 C   0  0  0  0  0  0  0  0  0  0  0  0
    3.6775   13.1529    7.3267 C   0  0  0  0  0  0  0  0  0  0  0  0
    3.0989   12.7943    6.0585 O   0  0  0  0  0  0  0  0  0  0  0  0
    5.1656   13.5239    7.1526 C   0  0  0  0  0  0  0  0  0  0  0  0
    5.9132   12.3898    6.6956 O   0  0  0  0  0  0  0  0  0  0  0  0
    2.8513   13.2117   10.0644 H   0  0  0  0  0  0  0  0  0  0  0  0
    3.4564   13.3894    5.3769 H   0  0  0  0  0  0  0  0  0  0  0  0
    5.6733   11.6209    7.2421 H   0  0  0  0  0  0  0  0  0  0  0  0
    7.5110   14.8329    6.9719 O   0  0  0  0  0  0  0  0  0  0  0  0
    7.1871   14.5441    8.3316 C   0  0  0  0  0  0  0  0  0  0  0  0
    8.4058   15.2135    6.9752 H   0  0  0  0  0  0  0  0  0  0  0  0
    0.4417   14.4875    7.8139 C   0  0  0  0  0  0  0  0  0  0  0  0
   -0.3852   14.8709    8.9026 O   0  0  0  0  0  0  0  0  0  0  0  0
   -1.5472   15.6045    8.5211 C   0  0  0  0  0  0  0  0  0  0  0  0
   -2.4672   14.7077    7.6902 C   0  0  0  0  0  0  0  0  0  0  0  0
   -3.6522   15.4286    7.3218 O   0  0  0  0  0  0  0  0  0  0  0  0
   -1.6970   14.2208    6.4503 C   0  0  0  0  0  0  0  0  0  0  0  0
   -2.5309   13.3193    5.7053 O   0  0  0  0  0  0  0  0  0  0  0  0
   -0.3524   13.5758    6.8381 C   0  0  0  0  0  0  0  0  0  0  0  0
    0.3930   13.2743    5.6502 O   0  0  0  0  0  0  0  0  0  0  0  0
   -3.6705   15.5172    6.3513 H   0  0  0  0  0  0  0  0  0  0  0  0
   -2.4055   12.4157    6.0613 H   0  0  0  0  0  0  0  0  0  0  0  0
    0.5993   14.0996    5.1806 H   0  0  0  0  0  0  0  0  0  0  0  0
   -2.2503   16.1198    9.7877 C   0  0  0  0  0  0  0  0  0  0  0  0
   -3.2769   15.2332   10.2299 O   0  0  0  0  0  0  0  0  0  0  0  0
   -2.8953   14.3356   10.2382 H   0  0  0  0  0  0  0  0  0  0  0  0
 14 15  1  0
 14 16  1  0
  2  3  1  0
  2  9  1  0
  2 15  1  0
  3  4  1  0
  4  5  1  0
  4  6  1  0
  5 11  1  0
  6  7  1  0
  6  1  1  0
 17 18  1  0
 17 24  1  0
 17  1  1  0
 18 19  1  0
 19 20  1  0
 19 29  1  0
 29 30  1  0
 30 31  1  0
 20 21  1  0
 20 22  1  0
 21 26  1  0
 22 23  1  0
 22 24  1  0
 23 27  1  0
 24 25  1  0
 25 28  1  0
  7  8  1  0
  7  9  1  0
  8 12  1  0
  9 10  1  0
 10 13  1  0
M  END
> <minimizedAffinity>
-5.21625

> <CNNscore>
0.7205748558

> <CNNaffinity>
2.8059756756

> <CNN_VS>
2.0219154358

> <CNNaffinity_variance>
0.5616756678

$$$$



 31 32  0  0  0  0  0  0  0  0999 V2000
   -0.4754   14.2315    7.8501 O   0  0  0  0  0  0  0  0  0  0  0  0
    3.6825   13.6852    7.6755 C   0  0  0  0  0  0  0  0  0  0  0  0
    2.8528   12.9505    6.7725 O   0  0  0  0  0  0  0  0  0  0  0  0
    1.5566   13.5074    6.6228 C   0  0  0  0  0  0  0  0  0  0  0  0
    1.6478   14.8236    6.0885 O   0  0  0  0  0  0  0  0  0  0  0  0
    0.7704   13.5014    7.9598 C   0  0  0  0  0  0  0  0  0  0  0  0
    1.6235   14.1915    9.0467 C   0  0  0  0  0  0  0  0  0  0  0  0
    1.0023   14.0348   10.3356 O   0  0  0  0  0  0  0  0  0  0  0  0
    3.0747   13.6668    9.0824 C   0  0  0  0  0  0  0  0  0  0  0  0
    3.8657   14.4465    9.9881 O   0  0  0  0  0  0  0  0  0  0  0  0
    0.9402   15.3399    6.5177 H   0  0  0  0  0  0  0  0  0  0  0  0
    1.2860   13.1845   10.7136 H   0  0  0  0  0  0  0  0  0  0  0  0
    3.7027   15.3891    9.8080 H   0  0  0  0  0  0  0  0  0  0  0  0
    5.3143   12.3808    6.4028 O   0  0  0  0  0  0  0  0  0  0  0  0
    5.0885   13.0743    7.6296 C   0  0  0  0  0  0  0  0  0  0  0  0
    6.2450   12.0989    6.4112 H   0  0  0  0  0  0  0  0  0  0  0  0
   -1.0762   14.2162    6.5518 C   0  0  0  0  0  0  0  0  0  0  0  0
   -1.0074   15.5227    6.0001 O   0  0  0  0  0  0  0  0  0  0  0  0
   -1.5951   15.6400    4.7059 C   0  0  0  0  0  0  0  0  0  0  0  0
   -3.1010   15.3876    4.8044 C   0  0  0  0  0  0  0  0  0  0  0  0
   -3.7069   15.5279    3.5109 O   0  0  0  0  0  0  0  0  0  0  0  0
   -3.3309   13.9806    5.3833 C   0  0  0  0  0  0  0  0  0  0  0  0
   -4.7418   13.7666    5.5473 O   0  0  0  0  0  0  0  0  0  0  0  0
   -2.5597   13.7798    6.7021 C   0  0  0  0  0  0  0  0  0  0  0  0
   -2.6830   12.4144    7.1243 O   0  0  0  0  0  0  0  0  0  0  0  0
   -4.0733   14.6643    3.2463 H   0  0  0  0  0  0  0  0  0  0  0  0
   -5.0059   14.1045    6.4276 H   0  0  0  0  0  0  0  0  0  0  0  0
   -2.2704   11.8338    6.4633 H   0  0  0  0  0  0  0  0  0  0  0  0
   -1.2900   17.0383    4.1441 C   0  0  0  0  0  0  0  0  0  0  0  0
   -0.5698   16.9769    2.9140 O   0  0  0  0  0  0  0  0  0  0  0  0
   -1.0315   16.3337    2.3443 H   0  0  0  0  0  0  0  0  0  0  0  0
 14 15  1  0
 14 16  1  0
  2  3  1  0
  2  9  1  0
  2 15  1  0
  3  4  1  0
  4  5  1  0
  4  6  1  0
  5 11  1  0
  6  7  1  0
  6  1  1  0
 17 18  1  0
 17 24  1  0
 17  1  1  0
 18 19  1  0
 19 20  1  0
 19 29  1  0
 29 30  1  0
 30 31  1  0
 20 21  1  0
 20 22  1  0
 21 26  1  0
 22 23  1  0
 22 24  1  0
 23 27  1  0
 24 25  1  0
 25 28  1  0
  7  8  1  0
  7  9  1  0
  8 12  1  0
  9 10  1  0
 10 13  1  0
M  END
> <minimizedAffinity>
-6.40862

> <CNNscore>
0.6922194362

> <CNNaffinity>
2.7582118511

> <CNN_VS>
1.9092878103

> <CNNaffinity_variance>
0.6223840117

$$$$



 31 32  0  0  0  0  0  0  0  0999 V2000
    2.7263   14.1002    8.6901 O   0  0  0  0  0  0  0  0  0  0  0  0
    6.6907   13.9836   10.0638 C   0  0  0  0  0  0  0  0  0  0  0  0
    5.9395   15.1886   10.2293 O   0  0  0  0  0  0  0  0  0  0  0  0
    4.5378   14.9932   10.1326 C   0  0  0  0  0  0  0  0  0  0  0  0
    4.0944   14.1110   11.1579 O   0  0  0  0  0  0  0  0  0  0  0  0
    4.1252   14.4718    8.7312 C   0  0  0  0  0  0  0  0  0  0  0  0
    4.9545   13.2114    8.4008 C   0  0  0  0  0  0  0  0  0  0  0  0
    4.7292   12.8159    7.0353 O   0  0  0  0  0  0  0  0  0  0  0  0
    6.4629   13.4098    8.6609 C   0  0  0  0  0  0  0  0  0  0  0  0
    7.1652   12.1711    8.4982 O   0  0  0  0  0  0  0  0  0  0  0  0
    3.3831   13.5727   10.7633 H   0  0  0  0  0  0  0  0  0  0  0  0
    5.3396   13.3146    6.4650 H   0  0  0  0  0  0  0  0  0  0  0  0
    6.6841   11.4772    8.9823 H   0  0  0  0  0  0  0  0  0  0  0  0
    8.9489   13.1131   10.4197 O   0  0  0  0  0  0  0  0  0  0  0  0
    8.1648   14.3031   10.3409 C   0  0  0  0  0  0  0  0  0  0  0  0
    9.8747   13.3968   10.5094 H   0  0  0  0  0  0  0  0  0  0  0  0
    1.9879   14.6343    7.5872 C   0  0  0  0  0  0  0  0  0  0  0  0
    1.3006   15.7997    8.0178 O   0  0  0  0  0  0  0  0  0  0  0  0
    0.5086   16.4165    7.0048 C   0  0  0  0  0  0  0  0  0  0  0  0
   -0.6290   15.4757    6.6027 C   0  0  0  0  0  0  0  0  0  0  0  0
   -1.4477   16.0969    5.6009 O   0  0  0  0  0  0  0  0  0  0  0  0
   -0.0241   14.1552    6.0950 C   0  0  0  0  0  0  0  0  0  0  0  0
   -1.0880   13.2410    5.7859 O   0  0  0  0  0  0  0  0  0  0  0  0
    0.9696   13.5614    7.1120 C   0  0  0  0  0  0  0  0  0  0  0  0
    1.6164   12.4178    6.5362 O   0  0  0  0  0  0  0  0  0  0  0  0
   -1.3802   15.5755    4.7802 H   0  0  0  0  0  0  0  0  0  0  0  0
   -1.3203   12.7495    6.6005 H   0  0  0  0  0  0  0  0  0  0  0  0
    2.1345   12.6957    5.7625 H   0  0  0  0  0  0  0  0  0  0  0  0
   -0.0250   17.7572    7.5355 C   0  0  0  0  0  0  0  0  0  0  0  0
   -0.4283   18.6295    6.4810 O   0  0  0  0  0  0  0  0  0  0  0  0
   -0.9896   18.1078    5.8775 H   0  0  0  0  0  0  0  0  0  0  0  0
 14 15  1  0
 14 16  1  0
  2  3  1  0
  2  9  1  0
  2 15  1  0
  3  4  1  0
  4  5  1  0
  4  6  1  0
  5 11  1  0
  6  7  1  0
  6  1  1  0
 17 18  1  0
 17 24  1  0
 17  1  1  0
 18 19  1  0
 19 20  1  0
 19 29  1  0
 29 30  1  0
 30 31  1  0
 20 21  1  0
 20 22  1  0
 21 26  1  0
 22 23  1  0
 22 24  1  0
 23 27  1  0
 24 25  1  0
 25 28  1  0
  7  8  1  0
  7  9  1  0
  8 12  1  0
  9 10  1  0
 10 13  1  0
M  END
> <minimizedAffinity>
-4.57357

> <CNNscore>
0.6780159473

> <CNNaffinity>
2.7997779846

> <CNN_VS>
1.8982940912

> <CNNaffinity_variance>
0.6353086233

$$$$



 31 32  0  0  0  0  0  0  0  0999 V2000
    1.9681   15.3430    7.4677 O   0  0  0  0  0  0  0  0  0  0  0  0
   -1.6821   13.4334    6.6638 C   0  0  0  0  0  0  0  0  0  0  0  0
   -1.4689   14.7531    6.1571 O   0  0  0  0  0  0  0  0  0  0  0  0
   -0.0999   15.1224    6.1133 C   0  0  0  0  0  0  0  0  0  0  0  0
    0.6155   14.2492    5.2461 O   0  0  0  0  0  0  0  0  0  0  0  0
    0.5348   15.1461    7.5284 C   0  0  0  0  0  0  0  0  0  0  0  0
    0.2774   13.7875    8.2166 C   0  0  0  0  0  0  0  0  0  0  0  0
    0.6893   13.8459    9.5945 O   0  0  0  0  0  0  0  0  0  0  0  0
   -1.1969   13.3419    8.1148 C   0  0  0  0  0  0  0  0  0  0  0  0
   -1.3521   12.0096    8.6196 O   0  0  0  0  0  0  0  0  0  0  0  0
    1.4946   14.1262    5.6504 H   0  0  0  0  0  0  0  0  0  0  0  0
   -0.0462   14.2035   10.1214 H   0  0  0  0  0  0  0  0  0  0  0  0
   -0.6560   11.4497    8.2332 H   0  0  0  0  0  0  0  0  0  0  0  0
   -3.3824   11.7031    6.3493 O   0  0  0  0  0  0  0  0  0  0  0  0
   -3.1729   13.1050    6.5160 C   0  0  0  0  0  0  0  0  0  0  0  0
   -4.3449   11.5649    6.3496 H   0  0  0  0  0  0  0  0  0  0  0  0
    2.7505   14.2937    8.0454 C   0  0  0  0  0  0  0  0  0  0  0  0
    3.4498   14.8092    9.1685 O   0  0  0  0  0  0  0  0  0  0  0  0
    4.2849   13.8558    9.8224 C   0  0  0  0  0  0  0  0  0  0  0  0
    5.4134   13.4338    8.8792 C   0  0  0  0  0  0  0  0  0  0  0  0
    6.2750   12.4927    9.5363 O   0  0  0  0  0  0  0  0  0  0  0  0
    4.7954   12.8350    7.6037 C   0  0  0  0  0  0  0  0  0  0  0  0
    5.8480   12.5052    6.6837 O   0  0  0  0  0  0  0  0  0  0  0  0
    3.7591   13.7878    6.9773 C   0  0  0  0  0  0  0  0  0  0  0  0
    3.1052   13.1298    5.8831 O   0  0  0  0  0  0  0  0  0  0  0  0
    6.2207   11.6421    9.0634 H   0  0  0  0  0  0  0  0  0  0  0  0
    6.0451   13.2969    6.1421 H   0  0  0  0  0  0  0  0  0  0  0  0
    2.6166   12.3586    6.2159 H   0  0  0  0  0  0  0  0  0  0  0  0
    4.8314   14.4767   11.1184 C   0  0  0  0  0  0  0  0  0  0  0  0
    3.9817   14.2212   12.2357 O   0  0  0  0  0  0  0  0  0  0  0  0
    3.7734   13.2684   12.2243 H   0  0  0  0  0  0  0  0  0  0  0  0
 14 15  1  0
 14 16  1  0
  2  3  1  0
  2  9  1  0
  2 15  1  0
  3  4  1  0
  4  5  1  0
  4  6  1  0
  5 11  1  0
  6  7  1  0
  6  1  1  0
 17 18  1  0
 17 24  1  0
 17  1  1  0
 18 19  1  0
 19 20  1  0
 19 29  1  0
 29 30  1  0
 30 31  1  0
 20 21  1  0
 20 22  1  0
 21 26  1  0
 22 23  1  0
 22 24  1  0
 23 27  1  0
 24 25  1  0
 25 28  1  0
  7  8  1  0
  7  9  1  0
  8 12  1  0
  9 10  1  0
 10 13  1  0
M  END
> <minimizedAffinity>
-5.72179

> <CNNscore>
0.6721277833

> <CNNaffinity>
2.7590758801

> <CNN_VS>
1.8544515371

> <CNNaffinity_variance>
0.8781971931

$$$$



 31 32  0  0  0  0  0  0  0  0999 V2000
    0.1709   13.3938    7.0014 O   0  0  0  0  0  0  0  0  0  0  0  0
   -2.8462   15.2830    4.7776 C   0  0  0  0  0  0  0  0  0  0  0  0
   -1.7505   16.0665    5.2567 O   0  0  0  0  0  0  0  0  0  0  0  0
   -0.6162   15.2894    5.6061 C   0  0  0  0  0  0  0  0  0  0  0  0
   -0.1298   14.5921    4.4645 O   0  0  0  0  0  0  0  0  0  0  0  0
   -0.9262   14.3097    6.7680 C   0  0  0  0  0  0  0  0  0  0  0  0
   -2.1675   13.4688    6.3976 C   0  0  0  0  0  0  0  0  0  0  0  0
   -2.5895   12.6860    7.5294 O   0  0  0  0  0  0  0  0  0  0  0  0
   -3.3352   14.3338    5.8773 C   0  0  0  0  0  0  0  0  0  0  0  0
   -4.3974   13.5014    5.3948 O   0  0  0  0  0  0  0  0  0  0  0  0
    0.1831   13.7269    4.7885 H   0  0  0  0  0  0  0  0  0  0  0  0
   -3.1769   13.2318    8.0803 H   0  0  0  0  0  0  0  0  0  0  0  0
   -4.0158   12.8169    4.8176 H   0  0  0  0  0  0  0  0  0  0  0  0
   -4.2059   16.0722    2.9035 O   0  0  0  0  0  0  0  0  0  0  0  0
   -3.9397   16.2440    4.2952 C   0  0  0  0  0  0  0  0  0  0  0  0
   -4.9611   16.6475    2.6929 H   0  0  0  0  0  0  0  0  0  0  0  0
    1.3528   13.9879    7.5465 C   0  0  0  0  0  0  0  0  0  0  0  0
    2.4760   13.2093    7.1614 O   0  0  0  0  0  0  0  0  0  0  0  0
    3.7200   13.6936    7.6634 C   0  0  0  0  0  0  0  0  0  0  0  0
    3.7324   13.5829    9.1894 C   0  0  0  0  0  0  0  0  0  0  0  0
    4.9902   14.0444    9.7039 O   0  0  0  0  0  0  0  0  0  0  0  0
    2.5590   14.4017    9.7552 C   0  0  0  0  0  0  0  0  0  0  0  0
    2.5213   14.2414   11.1822 O   0  0  0  0  0  0  0  0  0  0  0  0
    1.2241   14.0063    9.0947 C   0  0  0  0  0  0  0  0  0  0  0  0
    0.1888   14.8926    9.5421 O   0  0  0  0  0  0  0  0  0  0  0  0
    4.8288   14.8356   10.2499 H   0  0  0  0  0  0  0  0  0  0  0  0
    1.9869   13.4477   11.3905 H   0  0  0  0  0  0  0  0  0  0  0  0
    0.3914   15.7977    9.2523 H   0  0  0  0  0  0  0  0  0  0  0  0
    4.8633   12.8863    7.0269 C   0  0  0  0  0  0  0  0  0  0  0  0
    4.4820   12.3075    5.7798 O   0  0  0  0  0  0  0  0  0  0  0  0
    4.0578   13.0122    5.2555 H   0  0  0  0  0  0  0  0  0  0  0  0
 14 15  1  0
 14 16  1  0
  2  3  1  0
  2  9  1  0
  2 15  1  0
  3  4  1  0
  4  5  1  0
  4  6  1  0
  5 11  1  0
  6  7  1  0
  6  1  1  0
 17 18  1  0
 17 24  1  0
 17  1  1  0
 18 19  1  0
 19 20  1  0
 19 29  1  0
 29 30  1  0
 30 31  1  0
 20 21  1  0
 20 22  1  0
 21 26  1  0
 22 23  1  0
 22 24  1  0
 23 27  1  0
 24 25  1  0
 25 28  1  0
  7  8  1  0
  7  9  1  0
  8 12  1  0
  9 10  1  0
 10 13  1  0
M  END
> <minimizedAffinity>
-6.23887

> <CNNscore>
0.6574982405

> <CNNaffinity>
2.7182319164

> <CNN_VS>
1.7872327566

> <CNNaffinity_variance>
0.7535243034

$$$$



 31 32  0  0  0  0  0  0  0  0999 V2000
    0.2774   13.0177    6.5118 O   0  0  0  0  0  0  0  0  0  0  0  0
   -2.5029   15.4403    4.5073 C   0  0  0  0  0  0  0  0  0  0  0  0
   -1.2973   16.0340    4.9949 O   0  0  0  0  0  0  0  0  0  0  0  0
   -0.2736   15.0881    5.2590 C   0  0  0  0  0  0  0  0  0  0  0  0
    0.0823   14.4045    4.0622 O   0  0  0  0  0  0  0  0  0  0  0  0
   -0.6873   14.0884    6.3704 C   0  0  0  0  0  0  0  0  0  0  0  0
   -2.0424   13.4509    5.9928 C   0  0  0  0  0  0  0  0  0  0  0  0
   -2.5404   12.6631    7.0897 O   0  0  0  0  0  0  0  0  0  0  0  0
   -3.0912   14.4992    5.5645 C   0  0  0  0  0  0  0  0  0  0  0  0
   -4.2706   13.8527    5.0696 O   0  0  0  0  0  0  0  0  0  0  0  0
    0.2800   13.4858    4.3235 H   0  0  0  0  0  0  0  0  0  0  0  0
   -3.0321   13.2483    7.6916 H   0  0  0  0  0  0  0  0  0  0  0  0
   -4.0025   13.1603    4.4402 H   0  0  0  0  0  0  0  0  0  0  0  0
   -4.3169   16.1823    3.0435 O   0  0  0  0  0  0  0  0  0  0  0  0
   -3.4641   16.5708    4.1200 C   0  0  0  0  0  0  0  0  0  0  0  0
   -4.9484   16.9103    2.9139 H   0  0  0  0  0  0  0  0  0  0  0  0
    1.2048   13.1739    7.5900 C   0  0  0  0  0  0  0  0  0  0  0  0
    0.7682   14.2412    8.4184 O   0  0  0  0  0  0  0  0  0  0  0  0
    1.6269   14.5081    9.5254 C   0  0  0  0  0  0  0  0  0  0  0  0
    2.9811   15.0027    9.0132 C   0  0  0  0  0  0  0  0  0  0  0  0
    3.8454   15.2985   10.1202 O   0  0  0  0  0  0  0  0  0  0  0  0
    3.5885   13.9253    8.0978 C   0  0  0  0  0  0  0  0  0  0  0  0
    4.8251   14.4148    7.5552 O   0  0  0  0  0  0  0  0  0  0  0  0
    2.6015   13.5010    6.9932 C   0  0  0  0  0  0  0  0  0  0  0  0
    3.1502   12.3963    6.2609 O   0  0  0  0  0  0  0  0  0  0  0  0
    4.6056   14.6892   10.0896 H   0  0  0  0  0  0  0  0  0  0  0  0
    4.6279   14.9122    6.7350 H   0  0  0  0  0  0  0  0  0  0  0  0
    3.2547   11.6350    6.8556 H   0  0  0  0  0  0  0  0  0  0  0  0
    0.9540   15.5440   10.4408 C   0  0  0  0  0  0  0  0  0  0  0  0
    1.2527   15.3180   11.8175 O   0  0  0  0  0  0  0  0  0  0  0  0
    2.2175   15.1912   11.8835 H   0  0  0  0  0  0  0  0  0  0  0  0
 14 15  1  0
 14 16  1  0
  2  3  1  0
  2  9  1  0
  2 15  1  0
  3  4  1  0
  4  5  1  0
  4  6  1  0
  5 11  1  0
  6  7  1  0
  6  1  1  0
 17 18  1  0
 17 24  1  0
 17  1  1  0
 18 19  1  0
 19 20  1  0
 19 29  1  0
 29 30  1  0
 30 31  1  0
 20 21  1  0
 20 22  1  0
 21 26  1  0
 22 23  1  0
 22 24  1  0
 23 27  1  0
 24 25  1  0
 25 28  1  0
  7  8  1  0
  7  9  1  0
  8 12  1  0
  9 10  1  0
 10 13  1  0
M  END
> <minimizedAffinity>
-5.93772

> <CNNscore>
0.6048938036

> <CNNaffinity>
2.7384233475

> <CNN_VS>
1.6564552784

> <CNNaffinity_variance>
0.6659948230

$$$$



 31 32  0  0  0  0  0  0  0  0999 V2000
    1.5324   13.5606    7.9535 O   0  0  0  0  0  0  0  0  0  0  0  0
    5.6461   14.2148    8.4701 C   0  0  0  0  0  0  0  0  0  0  0  0
    4.7392   15.2868    8.7382 O   0  0  0  0  0  0  0  0  0  0  0  0
    3.4044   14.8533    8.9456 C   0  0  0  0  0  0  0  0  0  0  0  0
    3.3392   13.9925   10.0773 O   0  0  0  0  0  0  0  0  0  0  0  0
    2.8219   14.1624    7.6850 C   0  0  0  0  0  0  0  0  0  0  0  0
    3.7812   13.0361    7.2417 C   0  0  0  0  0  0  0  0  0  0  0  0
    3.3636   12.5031    5.9715 O   0  0  0  0  0  0  0  0  0  0  0  0
    5.2507   13.5031    7.1714 C   0  0  0  0  0  0  0  0  0  0  0  0
    6.1171   12.3901    6.9177 O   0  0  0  0  0  0  0  0  0  0  0  0
    2.6720   13.3139    9.8635 H   0  0  0  0  0  0  0  0  0  0  0  0
    3.7489   13.0504    5.2655 H   0  0  0  0  0  0  0  0  0  0  0  0
    5.8743   11.6657    7.5207 H   0  0  0  0  0  0  0  0  0  0  0  0
    7.9127   14.0236    7.5702 O   0  0  0  0  0  0  0  0  0  0  0  0
    7.0642   14.7964    8.4186 C   0  0  0  0  0  0  0  0  0  0  0  0
    8.7603   14.4977    7.5200 H   0  0  0  0  0  0  0  0  0  0  0  0
    0.6082   13.5919    6.8618 C   0  0  0  0  0  0  0  0  0  0  0  0
    0.9867   14.6308    5.9711 O   0  0  0  0  0  0  0  0  0  0  0  0
    0.1244   14.7748    4.8443 C   0  0  0  0  0  0  0  0  0  0  0  0
   -1.2628   15.2152    5.3161 C   0  0  0  0  0  0  0  0  0  0  0  0
   -2.1324   15.3876    4.1873 O   0  0  0  0  0  0  0  0  0  0  0  0
   -1.8119   14.1609    6.2930 C   0  0  0  0  0  0  0  0  0  0  0  0
   -3.0818   14.6053    6.7963 O   0  0  0  0  0  0  0  0  0  0  0  0
   -0.8120   13.8680    7.4282 C   0  0  0  0  0  0  0  0  0  0  0  0
   -1.2990   12.7788    8.2246 O   0  0  0  0  0  0  0  0  0  0  0  0
   -2.8539   14.7353    4.2511 H   0  0  0  0  0  0  0  0  0  0  0  0
   -2.9240   15.1639    7.5850 H   0  0  0  0  0  0  0  0  0  0  0  0
   -1.3504   11.9771    7.6779 H   0  0  0  0  0  0  0  0  0  0  0  0
    0.7416   15.7918    3.8702 C   0  0  0  0  0  0  0  0  0  0  0  0
    0.3010   15.5857    2.5289 O   0  0  0  0  0  0  0  0  0  0  0  0
   -0.6697   15.4942    2.5578 H   0  0  0  0  0  0  0  0  0  0  0  0
 14 15  1  0
 14 16  1  0
  2  3  1  0
  2  9  1  0
  2 15  1  0
  3  4  1  0
  4  5  1  0
  4  6  1  0
  5 11  1  0
  6  7  1  0
  6  1  1  0
 17 18  1  0
 17 24  1  0
 17  1  1  0
 18 19  1  0
 19 20  1  0
 19 29  1  0
 29 30  1  0
 30 31  1  0
 20 21  1  0
 20 22  1  0
 21 26  1  0
 22 23  1  0
 22 24  1  0
 23 27  1  0
 24 25  1  0
 25 28  1  0
  7  8  1  0
  7  9  1  0
  8 12  1  0
  9 10  1  0
 10 13  1  0
M  END
> <minimizedAffinity>
-6.07611

> <CNNscore>
0.5519331098

> <CNNaffinity>
2.5423893929

> <CNN_VS>
1.4032288790

> <CNNaffinity_variance>
0.9122953415

$$$$



 31 32  0  0  0  0  0  0  0  0999 V2000
    1.9133   14.2779    6.8887 O   0  0  0  0  0  0  0  0  0  0  0  0
   -1.6729   15.1595    4.8940 C   0  0  0  0  0  0  0  0  0  0  0  0
   -0.8009   16.2347    5.2508 O   0  0  0  0  0  0  0  0  0  0  0  0
    0.5273   15.8141    5.5181 C   0  0  0  0  0  0  0  0  0  0  0  0
    1.0953   15.2177    4.3571 O   0  0  0  0  0  0  0  0  0  0  0  0
    0.5917   14.8479    6.7298 C   0  0  0  0  0  0  0  0  0  0  0  0
   -0.3956   13.6834    6.4958 C   0  0  0  0  0  0  0  0  0  0  0  0
   -0.4951   12.8745    7.6822 O   0  0  0  0  0  0  0  0  0  0  0  0
   -1.7935   14.1708    6.0589 C   0  0  0  0  0  0  0  0  0  0  0  0
   -2.6202   13.0574    5.6971 O   0  0  0  0  0  0  0  0  0  0  0  0
    1.6587   14.4880    4.6754 H   0  0  0  0  0  0  0  0  0  0  0  0
   -1.1647   13.2676    8.2684 H   0  0  0  0  0  0  0  0  0  0  0  0
   -2.1117   12.4737    5.1071 H   0  0  0  0  0  0  0  0  0  0  0  0
   -3.6639   16.3986    5.5901 O   0  0  0  0  0  0  0  0  0  0  0  0
   -3.0232   15.7611    4.4855 C   0  0  0  0  0  0  0  0  0  0  0  0
   -4.4631   16.8259    5.2377 H   0  0  0  0  0  0  0  0  0  0  0  0
    2.2366   13.8545    8.2165 C   0  0  0  0  0  0  0  0  0  0  0  0
    1.5897   14.7153    9.1419 O   0  0  0  0  0  0  0  0  0  0  0  0
    1.8523   14.4040   10.5087 C   0  0  0  0  0  0  0  0  0  0  0  0
    3.3356   14.6307   10.8079 C   0  0  0  0  0  0  0  0  0  0  0  0
    3.6065   14.3443   12.1879 O   0  0  0  0  0  0  0  0  0  0  0  0
    4.1716   13.7383    9.8739 C   0  0  0  0  0  0  0  0  0  0  0  0
    5.5657   14.0014   10.0989 O   0  0  0  0  0  0  0  0  0  0  0  0
    3.7773   13.9400    8.3980 C   0  0  0  0  0  0  0  0  0  0  0  0
    4.4729   12.9862    7.5831 O   0  0  0  0  0  0  0  0  0  0  0  0
    4.2151   13.5842   12.2318 H   0  0  0  0  0  0  0  0  0  0  0  0
    5.8362   14.7481    9.5260 H   0  0  0  0  0  0  0  0  0  0  0  0
    4.1963   12.0881    7.8303 H   0  0  0  0  0  0  0  0  0  0  0  0
    0.9541   15.2764   11.4008 C   0  0  0  0  0  0  0  0  0  0  0  0
   -0.4238   14.9263   11.2807 O   0  0  0  0  0  0  0  0  0  0  0  0
   -0.4806   13.9562   11.3649 H   0  0  0  0  0  0  0  0  0  0  0  0
 14 15  1  0
 14 16  1  0
  2  3  1  0
  2  9  1  0
  2 15  1  0
  3  4  1  0
  4  5  1  0
  4  6  1  0
  5 11  1  0
  6  7  1  0
  6  1  1  0
 17 18  1  0
 17 24  1  0
 17  1  1  0
 18 19  1  0
 19 20  1  0
 19 29  1  0
 29 30  1  0
 30 31  1  0
 20 21  1  0
 20 22  1  0
 21 26  1  0
 22 23  1  0
 22 24  1  0
 23 27  1  0
 24 25  1  0
 25 28  1  0
  7  8  1  0
  7  9  1  0
  8 12  1  0
  9 10  1  0
 10 13  1  0
M  END
> <minimizedAffinity>
-4.63582

> <CNNscore>
0.5454403758

> <CNNaffinity>
2.7290966511

> <CNN_VS>
1.4885594845

> <CNNaffinity_variance>
0.5679792762

$$$$



 31 32  0  0  0  0  0  0  0  0999 V2000
   -1.4693   13.8918    5.8725 O   0  0  0  0  0  0  0  0  0  0  0  0
    2.0855   13.4846    8.0667 C   0  0  0  0  0  0  0  0  0  0  0  0
    0.9997   14.2140    8.6436 O   0  0  0  0  0  0  0  0  0  0  0  0
   -0.2503   13.9342    8.0339 C   0  0  0  0  0  0  0  0  0  0  0  0
   -0.5751   12.5574    8.1923 O   0  0  0  0  0  0  0  0  0  0  0  0
   -0.2644   14.3421    6.5375 C   0  0  0  0  0  0  0  0  0  0  0  0
    0.9374   13.6823    5.8263 C   0  0  0  0  0  0  0  0  0  0  0  0
    1.0576   14.1908    4.4852 O   0  0  0  0  0  0  0  0  0  0  0  0
    2.2612   13.8778    6.5957 C   0  0  0  0  0  0  0  0  0  0  0  0
    3.3102   13.1140    5.9872 O   0  0  0  0  0  0  0  0  0  0  0  0
   -1.0265   12.2892    7.3702 H   0  0  0  0  0  0  0  0  0  0  0  0
    1.5791   15.0116    4.5119 H   0  0  0  0  0  0  0  0  0  0  0  0
    2.9813   12.2127    5.8237 H   0  0  0  0  0  0  0  0  0  0  0  0
    4.4798   13.0876    8.3728 O   0  0  0  0  0  0  0  0  0  0  0  0
    3.3389   13.7586    8.9069 C   0  0  0  0  0  0  0  0  0  0  0  0
    5.2433   13.3756    8.9016 H   0  0  0  0  0  0  0  0  0  0  0  0
   -2.1821   14.9042    5.1557 C   0  0  0  0  0  0  0  0  0  0  0  0
   -1.2454   15.7978    4.5725 O   0  0  0  0  0  0  0  0  0  0  0  0
   -1.8394   16.8691    3.8421 C   0  0  0  0  0  0  0  0  0  0  0  0
   -2.6213   17.7690    4.8011 C   0  0  0  0  0  0  0  0  0  0  0  0
   -3.2029   18.8652    4.0801 O   0  0  0  0  0  0  0  0  0  0  0  0
   -3.6979   16.9252    5.5058 C   0  0  0  0  0  0  0  0  0  0  0  0
   -4.3862   17.7476    6.4614 O   0  0  0  0  0  0  0  0  0  0  0  0
   -3.0923   15.6671    6.1575 C   0  0  0  0  0  0  0  0  0  0  0  0
   -4.1464   14.8401    6.6701 O   0  0  0  0  0  0  0  0  0  0  0  0
   -4.1732   18.7905    4.1346 H   0  0  0  0  0  0  0  0  0  0  0  0
   -3.8951   17.7155    7.3081 H   0  0  0  0  0  0  0  0  0  0  0  0
   -4.7055   14.5377    5.9352 H   0  0  0  0  0  0  0  0  0  0  0  0
   -0.7339   17.6466    3.1090 C   0  0  0  0  0  0  0  0  0  0  0  0
    0.1028   16.7885    2.3351 O   0  0  0  0  0  0  0  0  0  0  0  0
   -0.4850   16.2084    1.8159 H   0  0  0  0  0  0  0  0  0  0  0  0
 14 15  1  0
 14 16  1  0
  2  3  1  0
  2  9  1  0
  2 15  1  0
  3  4  1  0
  4  5  1  0
  4  6  1  0
  5 11  1  0
  6  7  1  0
  6  1  1  0
 17 18  1  0
 17 24  1  0
 17  1  1  0
 18 19  1  0
 19 20  1  0
 19 29  1  0
 29 30  1  0
 30 31  1  0
 20 21  1  0
 20 22  1  0
 21 26  1  0
 22 23  1  0
 22 24  1  0
 23 27  1  0
 24 25  1  0
 25 28  1  0
  7  8  1  0
  7  9  1  0
  8 12  1  0
  9 10  1  0
 10 13  1  0
M  END
> <minimizedAffinity>
-5.50829

> <CNNscore>
0.5375772119

> <CNNaffinity>
3.0288460255

> <CNN_VS>
1.6282385588

> <CNNaffinity_variance>
0.2487855703

$$$$



 31 32  0  0  0  0  0  0  0  0999 V2000
    1.8737   14.0125    8.5942 O   0  0  0  0  0  0  0  0  0  0  0  0
   -0.9033   14.9814    5.5998 C   0  0  0  0  0  0  0  0  0  0  0  0
    0.4777   14.8691    5.2481 O   0  0  0  0  0  0  0  0  0  0  0  0
    1.2408   14.1424    6.1979 C   0  0  0  0  0  0  0  0  0  0  0  0
    0.7529   12.8091    6.3012 O   0  0  0  0  0  0  0  0  0  0  0  0
    1.2517   14.8412    7.5826 C   0  0  0  0  0  0  0  0  0  0  0  0
   -0.2050   15.1043    8.0233 C   0  0  0  0  0  0  0  0  0  0  0  0
   -0.2224   15.9164    9.2116 O   0  0  0  0  0  0  0  0  0  0  0  0
   -1.0508   15.7606    6.9115 C   0  0  0  0  0  0  0  0  0  0  0  0
   -2.4263   15.8336    7.3074 O   0  0  0  0  0  0  0  0  0  0  0  0
    0.8416   12.5601    7.2401 H   0  0  0  0  0  0  0  0  0  0  0  0
   -0.1790   16.8515    8.9468 H   0  0  0  0  0  0  0  0  0  0  0  0
   -2.6924   14.9670    7.6615 H   0  0  0  0  0  0  0  0  0  0  0  0
   -0.7767   15.8119    3.3024 O   0  0  0  0  0  0  0  0  0  0  0  0
   -1.6370   15.6477    4.4294 C   0  0  0  0  0  0  0  0  0  0  0  0
   -1.3292   16.1567    2.5802 H   0  0  0  0  0  0  0  0  0  0  0  0
    3.2149   14.3746    8.9359 C   0  0  0  0  0  0  0  0  0  0  0  0
    4.1119   13.5729    8.1818 O   0  0  0  0  0  0  0  0  0  0  0  0
    5.4889   13.8294    8.4503 C   0  0  0  0  0  0  0  0  0  0  0  0
    5.8089   13.4376    9.8943 C   0  0  0  0  0  0  0  0  0  0  0  0
    7.1988   13.6682   10.1680 O   0  0  0  0  0  0  0  0  0  0  0  0
    4.9072   14.2502   10.8399 C   0  0  0  0  0  0  0  0  0  0  0  0
    5.1510   13.8331   12.1926 O   0  0  0  0  0  0  0  0  0  0  0  0
    3.4211   14.1188   10.4545 C   0  0  0  0  0  0  0  0  0  0  0  0
    2.6373   15.0057   11.2649 O   0  0  0  0  0  0  0  0  0  0  0  0
    7.2681   14.3567   10.8545 H   0  0  0  0  0  0  0  0  0  0  0  0
    4.5681   13.0717   12.3916 H   0  0  0  0  0  0  0  0  0  0  0  0
    2.8974   15.9240   11.0826 H   0  0  0  0  0  0  0  0  0  0  0  0
    6.3480   13.0441    7.4458 C   0  0  0  0  0  0  0  0  0  0  0  0
    5.5516   12.3092    6.5178 O   0  0  0  0  0  0  0  0  0  0  0  0
    4.8731   12.9211    6.1762 H   0  0  0  0  0  0  0  0  0  0  0  0
 14 15  1  0
 14 16  1  0
  2  3  1  0
  2  9  1  0
  2 15  1  0
  3  4  1  0
  4  5  1  0
  4  6  1  0
  5 11  1  0
  6  7  1  0
  6  1  1  0
 17 18  1  0
 17 24  1  0
 17  1  1  0
 18 19  1  0
 19 20  1  0
 19 29  1  0
 29 30  1  0
 30 31  1  0
 20 21  1  0
 20 22  1  0
 21 26  1  0
 22 23  1  0
 22 24  1  0
 23 27  1  0
 24 25  1  0
 25 28  1  0
  7  8  1  0
  7  9  1  0
  8 12  1  0
  9 10  1  0
 10 13  1  0
M  END
> <minimizedAffinity>
-5.11841

> <CNNscore>
0.5358956456

> <CNNaffinity>
2.7921497822

> <CNN_VS>
1.4963009357

> <CNNaffinity_variance>
0.6797663569

$$$$



 31 32  0  0  0  0  0  0  0  0999 V2000
   -0.0368   14.5856    8.5317 O   0  0  0  0  0  0  0  0  0  0  0  0
    0.5458   16.2730    4.7330 C   0  0  0  0  0  0  0  0  0  0  0  0
   -0.5595   16.7187    5.5224 O   0  0  0  0  0  0  0  0  0  0  0  0
   -0.4209   16.4174    6.9017 C   0  0  0  0  0  0  0  0  0  0  0  0
    0.7279   17.0693    7.4324 O   0  0  0  0  0  0  0  0  0  0  0  0
   -0.3602   14.8880    7.1529 C   0  0  0  0  0  0  0  0  0  0  0  0
    0.7482   14.2777    6.2673 C   0  0  0  0  0  0  0  0  0  0  0  0
    0.7024   12.8409    6.3387 O   0  0  0  0  0  0  0  0  0  0  0  0
    0.6582   14.7458    4.7992 C   0  0  0  0  0  0  0  0  0  0  0  0
    1.7958   14.2872    4.0580 O   0  0  0  0  0  0  0  0  0  0  0  0
    1.1100   16.4550    8.0866 H   0  0  0  0  0  0  0  0  0  0  0  0
    0.0604   12.5196    5.6821 H   0  0  0  0  0  0  0  0  0  0  0  0
    2.5988   14.4810    4.5728 H   0  0  0  0  0  0  0  0  0  0  0  0
    0.0835   15.7214    2.3950 O   0  0  0  0  0  0  0  0  0  0  0  0
    0.3454   16.7907    3.3033 C   0  0  0  0  0  0  0  0  0  0  0  0
   -0.1163   16.1305    1.5358 H   0  0  0  0  0  0  0  0  0  0  0  0
   -1.1589   14.2865    9.3673 C   0  0  0  0  0  0  0  0  0  0  0  0
   -0.9827   14.9330   10.6192 O   0  0  0  0  0  0  0  0  0  0  0  0
   -2.0349   14.6934   11.5516 C   0  0  0  0  0  0  0  0  0  0  0  0
   -2.0538   13.2111   11.9301 C   0  0  0  0  0  0  0  0  0  0  0  0
   -3.0936   12.9631   12.8879 O   0  0  0  0  0  0  0  0  0  0  0  0
   -2.2544   12.3760   10.6535 C   0  0  0  0  0  0  0  0  0  0  0  0
   -2.1988   10.9813   10.9927 O   0  0  0  0  0  0  0  0  0  0  0  0
   -1.2254   12.7474    9.5683 C   0  0  0  0  0  0  0  0  0  0  0  0
   -1.5424   12.0552    8.3526 O   0  0  0  0  0  0  0  0  0  0  0  0
   -3.7498   12.3665   12.4835 H   0  0  0  0  0  0  0  0  0  0  0  0
   -1.2638   10.6920   10.9606 H   0  0  0  0  0  0  0  0  0  0  0  0
   -2.4115   12.3484    8.0315 H   0  0  0  0  0  0  0  0  0  0  0  0
   -1.8249   15.5905   12.7825 C   0  0  0  0  0  0  0  0  0  0  0  0
   -1.1173   14.9174   13.8226 O   0  0  0  0  0  0  0  0  0  0  0  0
   -0.3395   14.4953   13.4123 H   0  0  0  0  0  0  0  0  0  0  0  0
 14 15  1  0
 14 16  1  0
  2  3  1  0
  2  9  1  0
  2 15  1  0
  3  4  1  0
  4  5  1  0
  4  6  1  0
  5 11  1  0
  6  7  1  0
  6  1  1  0
 17 18  1  0
 17 24  1  0
 17  1  1  0
 18 19  1  0
 19 20  1  0
 19 29  1  0
 29 30  1  0
 30 31  1  0
 20 21  1  0
 20 22  1  0
 21 26  1  0
 22 23  1  0
 22 24  1  0
 23 27  1  0
 24 25  1  0
 25 28  1  0
  7  8  1  0
  7  9  1  0
  8 12  1  0
  9 10  1  0
 10 13  1  0
M  END
> <minimizedAffinity>
-5.33635

> <CNNscore>
0.4944791198

> <CNNaffinity>
2.7719781399

> <CNN_VS>
1.3706853390

> <CNNaffinity_variance>
0.5376201272

$$$$



 31 32  0  0  0  0  0  0  0  0999 V2000
    0.3734   13.3739    6.6959 O   0  0  0  0  0  0  0  0  0  0  0  0
    3.4264   14.4929    9.3499 C   0  0  0  0  0  0  0  0  0  0  0  0
    2.3207   15.3787    9.1591 O   0  0  0  0  0  0  0  0  0  0  0  0
    1.1818   14.7420    8.6023 C   0  0  0  0  0  0  0  0  0  0  0  0
    0.7175   13.7180    9.4753 O   0  0  0  0  0  0  0  0  0  0  0  0
    1.4727   14.1786    7.1867 C   0  0  0  0  0  0  0  0  0  0  0  0
    2.7222   13.2734    7.2539 C   0  0  0  0  0  0  0  0  0  0  0  0
    3.1252   12.8884    5.9269 O   0  0  0  0  0  0  0  0  0  0  0  0
    3.8974   13.9403    8.0000 C   0  0  0  0  0  0  0  0  0  0  0  0
    4.9698   13.0066    8.1792 O   0  0  0  0  0  0  0  0  0  0  0  0
    0.4005   12.9958    8.9014 H   0  0  0  0  0  0  0  0  0  0  0  0
    3.7014   13.5839    5.5654 H   0  0  0  0  0  0  0  0  0  0  0  0
    4.6000   12.1727    8.5187 H   0  0  0  0  0  0  0  0  0  0  0  0
    4.5854   16.6237    9.6668 O   0  0  0  0  0  0  0  0  0  0  0  0
    4.5266   15.2623   10.0914 C   0  0  0  0  0  0  0  0  0  0  0  0
    5.2397   17.0633   10.2362 H   0  0  0  0  0  0  0  0  0  0  0  0
   -0.3155   13.9123    5.5635 C   0  0  0  0  0  0  0  0  0  0  0  0
    0.3090   15.1297    5.1840 O   0  0  0  0  0  0  0  0  0  0  0  0
   -0.3037   15.7760    4.0700 C   0  0  0  0  0  0  0  0  0  0  0  0
   -1.7174   16.2196    4.4515 C   0  0  0  0  0  0  0  0  0  0  0  0
   -2.3347   16.8940    3.3451 O   0  0  0  0  0  0  0  0  0  0  0  0
   -2.5268   14.9826    4.8785 C   0  0  0  0  0  0  0  0  0  0  0  0
   -3.8316   15.4023    5.3083 O   0  0  0  0  0  0  0  0  0  0  0  0
   -1.7927   14.1756    5.9666 C   0  0  0  0  0  0  0  0  0  0  0  0
   -2.5091   12.9598    6.2246 O   0  0  0  0  0  0  0  0  0  0  0  0
   -3.1035   16.3701    3.0543 H   0  0  0  0  0  0  0  0  0  0  0  0
   -3.7870   15.6251    6.2608 H   0  0  0  0  0  0  0  0  0  0  0  0
   -2.5156   12.4126    5.4216 H   0  0  0  0  0  0  0  0  0  0  0  0
    0.5687   16.9676    3.6426 C   0  0  0  0  0  0  0  0  0  0  0  0
    0.3989   17.2895    2.2630 O   0  0  0  0  0  0  0  0  0  0  0  0
   -0.5611   17.3274    2.0945 H   0  0  0  0  0  0  0  0  0  0  0  0
 14 15  1  0
 14 16  1  0
  2  3  1  0
  2  9  1  0
  2 15  1  0
  3  4  1  0
  4  5  1  0
  4  6  1  0
  5 11  1  0
  6  7  1  0
  6  1  1  0
 17 18  1  0
 17 24  1  0
 17  1  1  0
 18 19  1  0
 19 20  1  0
 19 29  1  0
 29 30  1  0
 30 31  1  0
 20 21  1  0
 20 22  1  0
 21 26  1  0
 22 23  1  0
 22 24  1  0
 23 27  1  0
 24 25  1  0
 25 28  1  0
  7  8  1  0
  7  9  1  0
  8 12  1  0
  9 10  1  0
 10 13  1  0
M  END
> <minimizedAffinity>
-5.65214

> <CNNscore>
0.4646765292

> <CNNaffinity>
2.6406171322

> <CNN_VS>
1.2270327806

> <CNNaffinity_variance>
0.7294611931

$$$$
