


 31 32  0  0  0  0  0  0  0  0999 V2000
  -16.6930    4.0306   -9.1253 O   0  0  0  0  0  0  0  0  0  0  0  0
  -16.9843    1.1832   -6.0554 C   0  0  0  0  0  0  0  0  0  0  0  0
  -17.5734    2.4708   -5.8587 O   0  0  0  0  0  0  0  0  0  0  0  0
  -17.7905    3.1787   -7.0687 C   0  0  0  0  0  0  0  0  0  0  0  0
  -18.6918    2.4586   -7.9025 O   0  0  0  0  0  0  0  0  0  0  0  0
  -16.4598    3.4731   -7.8093 C   0  0  0  0  0  0  0  0  0  0  0  0
  -15.6839    2.1503   -7.9918 C   0  0  0  0  0  0  0  0  0  0  0  0
  -14.3662    2.4174   -8.5059 O   0  0  0  0  0  0  0  0  0  0  0  0
  -15.5955    1.3305   -6.6870 C   0  0  0  0  0  0  0  0  0  0  0  0
  -15.0144    0.0456   -6.9425 O   0  0  0  0  0  0  0  0  0  0  0  0
  -18.3853    2.5991   -8.8178 H   0  0  0  0  0  0  0  0  0  0  0  0
  -13.7761    2.6103   -7.7569 H   0  0  0  0  0  0  0  0  0  0  0  0
  -15.4511   -0.3417   -7.7214 H   0  0  0  0  0  0  0  0  0  0  0  0
  -16.8144   -0.9438   -4.8590 O   0  0  0  0  0  0  0  0  0  0  0  0
  -16.9454    0.4685   -4.6990 C   0  0  0  0  0  0  0  0  0  0  0  0
  -16.7103   -1.3151   -3.9663 H   0  0  0  0  0  0  0  0  0  0  0  0
  -16.1763    5.3493   -9.3268 C   0  0  0  0  0  0  0  0  0  0  0  0
  -16.7831    6.2269   -8.3899 O   0  0  0  0  0  0  0  0  0  0  0  0
  -16.3598    7.5840   -8.5043 C   0  0  0  0  0  0  0  0  0  0  0  0
  -16.8167    8.1495   -9.8506 C   0  0  0  0  0  0  0  0  0  0  0  0
  -16.4176    9.5233   -9.9659 O   0  0  0  0  0  0  0  0  0  0  0  0
  -16.2150    7.2926  -10.9780 C   0  0  0  0  0  0  0  0  0  0  0  0
  -16.7003    7.7736  -12.2416 O   0  0  0  0  0  0  0  0  0  0  0  0
  -16.5207    5.7962  -10.7744 C   0  0  0  0  0  0  0  0  0  0  0  0
  -15.8186    5.0267  -11.7607 O   0  0  0  0  0  0  0  0  0  0  0  0
  -15.7829    9.5996  -10.7017 H   0  0  0  0  0  0  0  0  0  0  0  0
  -17.5486    7.3258  -12.4382 H   0  0  0  0  0  0  0  0  0  0  0  0
  -14.8614    5.1400  -11.6370 H   0  0  0  0  0  0  0  0  0  0  0  0
  -16.9357    8.3875   -7.3268 C   0  0  0  0  0  0  0  0  0  0  0  0
  -15.9352    8.7260   -6.3677 O   0  0  0  0  0  0  0  0  0  0  0  0
  -15.1793    9.0952   -6.8615 H   0  0  0  0  0  0  0  0  0  0  0  0
 14 15  1  0
 14 16  1  0
  2  3  1  0
  2  9  1  0
  2 15  1  0
  3  4  1  0
  4  5  1  0
  4  6  1  0
  5 11  1  0
  6  7  1  0
  6  1  1  0
 17 18  1  0
 17 24  1  0
 17  1  1  0
 18 19  1  0
 19 20  1  0
 19 29  1  0
 29 30  1  0
 30 31  1  0
 20 21  1  0
 20 22  1  0
 21 26  1  0
 22 23  1  0
 22 24  1  0
 23 27  1  0
 24 25  1  0
 25 28  1  0
  7  8  1  0
  7  9  1  0
  8 12  1  0
  9 10  1  0
 10 13  1  0
M  END
> <minimizedAffinity>
-4.87439

> <CNNscore>
0.9385886192

> <CNNaffinity>
2.7993171215

> <CNN_VS>
2.6274070740

> <CNNaffinity_variance>
0.7796171308

$$$$



 31 32  0  0  0  0  0  0  0  0999 V2000
  -15.5179    3.7360   -8.2885 O   0  0  0  0  0  0  0  0  0  0  0  0
  -15.7891    6.5881  -11.3559 C   0  0  0  0  0  0  0  0  0  0  0  0
  -16.8795    6.4547  -10.4410 O   0  0  0  0  0  0  0  0  0  0  0  0
  -16.5223    5.7988   -9.2349 C   0  0  0  0  0  0  0  0  0  0  0  0
  -15.5238    6.5456   -8.5484 O   0  0  0  0  0  0  0  0  0  0  0  0
  -16.0530    4.3425   -9.4896 C   0  0  0  0  0  0  0  0  0  0  0  0
  -14.9288    4.3555  -10.5485 C   0  0  0  0  0  0  0  0  0  0  0  0
  -14.6046    3.0093  -10.9414 O   0  0  0  0  0  0  0  0  0  0  0  0
  -15.2906    5.2040  -11.7861 C   0  0  0  0  0  0  0  0  0  0  0  0
  -14.1608    5.3198  -12.6602 O   0  0  0  0  0  0  0  0  0  0  0  0
  -14.9316    5.8901   -8.1347 H   0  0  0  0  0  0  0  0  0  0  0  0
  -15.2121    2.7405  -11.6521 H   0  0  0  0  0  0  0  0  0  0  0  0
  -13.3817    5.5590  -12.1282 H   0  0  0  0  0  0  0  0  0  0  0  0
  -16.0418    8.8298  -12.3020 O   0  0  0  0  0  0  0  0  0  0  0  0
  -16.2655    7.4402  -12.5388 C   0  0  0  0  0  0  0  0  0  0  0  0
  -16.2861    9.2931  -13.1213 H   0  0  0  0  0  0  0  0  0  0  0  0
  -16.2306    2.5881   -7.8182 C   0  0  0  0  0  0  0  0  0  0  0  0
  -17.3401    3.0227   -7.0460 O   0  0  0  0  0  0  0  0  0  0  0  0
  -18.1229    1.9616   -6.5026 C   0  0  0  0  0  0  0  0  0  0  0  0
  -17.2862    1.1767   -5.4902 C   0  0  0  0  0  0  0  0  0  0  0  0
  -18.0725    0.1211   -4.9182 O   0  0  0  0  0  0  0  0  0  0  0  0
  -16.0372    0.6260   -6.2003 C   0  0  0  0  0  0  0  0  0  0  0  0
  -15.2110   -0.0487   -5.2384 O   0  0  0  0  0  0  0  0  0  0  0  0
  -15.2705    1.7398   -6.9391 C   0  0  0  0  0  0  0  0  0  0  0  0
  -14.2052    1.1596   -7.7047 O   0  0  0  0  0  0  0  0  0  0  0  0
  -17.6759   -0.7321   -5.1728 H   0  0  0  0  0  0  0  0  0  0  0  0
  -14.6121    0.6091   -4.8290 H   0  0  0  0  0  0  0  0  0  0  0  0
  -14.5782    0.5734   -8.3840 H   0  0  0  0  0  0  0  0  0  0  0  0
  -19.3863    2.5536   -5.8567 C   0  0  0  0  0  0  0  0  0  0  0  0
  -19.4823    3.9627   -6.0586 O   0  0  0  0  0  0  0  0  0  0  0  0
  -19.3195    4.1273   -7.0062 H   0  0  0  0  0  0  0  0  0  0  0  0
 14 15  1  0
 14 16  1  0
  2  3  1  0
  2  9  1  0
  2 15  1  0
  3  4  1  0
  4  5  1  0
  4  6  1  0
  5 11  1  0
  6  7  1  0
  6  1  1  0
 17 18  1  0
 17 24  1  0
 17  1  1  0
 18 19  1  0
 19 20  1  0
 19 29  1  0
 29 30  1  0
 30 31  1  0
 20 21  1  0
 20 22  1  0
 21 26  1  0
 22 23  1  0
 22 24  1  0
 23 27  1  0
 24 25  1  0
 25 28  1  0
  7  8  1  0
  7  9  1  0
  8 12  1  0
  9 10  1  0
 10 13  1  0
M  END
> <minimizedAffinity>
-4.83718

> <CNNscore>
0.9335058331

> <CNNaffinity>
3.2895929813

> <CNN_VS>
3.0708541870

> <CNNaffinity_variance>
0.3189315498

$$$$



 31 32  0  0  0  0  0  0  0  0999 V2000
  -16.5019    1.4690  -10.1041 O   0  0  0  0  0  0  0  0  0  0  0  0
  -17.5194    0.1239   -6.2606 C   0  0  0  0  0  0  0  0  0  0  0  0
  -18.2201    1.2442   -6.8062 O   0  0  0  0  0  0  0  0  0  0  0  0
  -18.1090    1.3419   -8.2171 C   0  0  0  0  0  0  0  0  0  0  0  0
  -18.6722    0.1892   -8.8337 O   0  0  0  0  0  0  0  0  0  0  0  0
  -16.6389    1.5520   -8.6649 C   0  0  0  0  0  0  0  0  0  0  0  0
  -15.7623    0.4411   -8.0462 C   0  0  0  0  0  0  0  0  0  0  0  0
  -14.3708    0.7168   -8.2897 O   0  0  0  0  0  0  0  0  0  0  0  0
  -16.0174    0.2580   -6.5349 C   0  0  0  0  0  0  0  0  0  0  0  0
  -15.3068   -0.8853   -6.0432 O   0  0  0  0  0  0  0  0  0  0  0  0
  -18.1151   -0.0016   -9.6113 H   0  0  0  0  0  0  0  0  0  0  0  0
  -14.0453    1.3055   -7.5868 H   0  0  0  0  0  0  0  0  0  0  0  0
  -15.4649   -1.6312   -6.6481 H   0  0  0  0  0  0  0  0  0  0  0  0
  -16.7161    0.4116   -3.9680 O   0  0  0  0  0  0  0  0  0  0  0  0
  -17.8435    0.0466   -4.7635 C   0  0  0  0  0  0  0  0  0  0  0  0
  -17.0207    0.4224   -3.0445 H   0  0  0  0  0  0  0  0  0  0  0  0
  -15.8349    2.5770  -10.7158 C   0  0  0  0  0  0  0  0  0  0  0  0
  -16.0145    3.7260   -9.9012 O   0  0  0  0  0  0  0  0  0  0  0  0
  -15.4068    4.9078  -10.4190 C   0  0  0  0  0  0  0  0  0  0  0  0
  -16.0940    5.3037  -11.7275 C   0  0  0  0  0  0  0  0  0  0  0  0
  -15.5067    6.5067  -12.2449 O   0  0  0  0  0  0  0  0  0  0  0  0
  -15.9654    4.1405  -12.7265 C   0  0  0  0  0  0  0  0  0  0  0  0
  -16.6725    4.4772  -13.9307 O   0  0  0  0  0  0  0  0  0  0  0  0
  -16.4622    2.8153  -12.1171 C   0  0  0  0  0  0  0  0  0  0  0  0
  -16.1863    1.7392  -13.0246 O   0  0  0  0  0  0  0  0  0  0  0  0
  -15.0827    6.3011  -13.0981 H   0  0  0  0  0  0  0  0  0  0  0  0
  -17.6071    4.2038  -13.8276 H   0  0  0  0  0  0  0  0  0  0  0  0
  -15.2254    1.6546  -13.1422 H   0  0  0  0  0  0  0  0  0  0  0  0
  -15.5072    6.0232   -9.3657 C   0  0  0  0  0  0  0  0  0  0  0  0
  -16.0934    5.5618   -8.1495 O   0  0  0  0  0  0  0  0  0  0  0  0
  -15.6404    4.7315   -7.9110 H   0  0  0  0  0  0  0  0  0  0  0  0
 14 15  1  0
 14 16  1  0
  2  3  1  0
  2  9  1  0
  2 15  1  0
  3  4  1  0
  4  5  1  0
  4  6  1  0
  5 11  1  0
  6  7  1  0
  6  1  1  0
 17 18  1  0
 17 24  1  0
 17  1  1  0
 18 19  1  0
 19 20  1  0
 19 29  1  0
 29 30  1  0
 30 31  1  0
 20 21  1  0
 20 22  1  0
 21 26  1  0
 22 23  1  0
 22 24  1  0
 23 27  1  0
 24 25  1  0
 25 28  1  0
  7  8  1  0
  7  9  1  0
  8 12  1  0
  9 10  1  0
 10 13  1  0
M  END
> <minimizedAffinity>
-4.56853

> <CNNscore>
0.8290179372

> <CNNaffinity>
3.4365231991

> <CNN_VS>
2.8489394188

> <CNNaffinity_variance>
0.2233816534

$$$$



 31 32  0  0  0  0  0  0  0  0999 V2000
  -15.8200    3.5166   -7.8853 O   0  0  0  0  0  0  0  0  0  0  0  0
  -15.5866   -0.5807   -7.0052 C   0  0  0  0  0  0  0  0  0  0  0  0
  -15.5301   -0.1655   -8.3720 O   0  0  0  0  0  0  0  0  0  0  0  0
  -15.1919    1.2033   -8.5286 C   0  0  0  0  0  0  0  0  0  0  0  0
  -13.8984    1.4530   -7.9894 O   0  0  0  0  0  0  0  0  0  0  0  0
  -16.2531    2.1349   -7.8867 C   0  0  0  0  0  0  0  0  0  0  0  0
  -16.4702    1.7107   -6.4176 C   0  0  0  0  0  0  0  0  0  0  0  0
  -17.5802    2.4330   -5.8538 O   0  0  0  0  0  0  0  0  0  0  0  0
  -16.6862    0.1899   -6.2659 C   0  0  0  0  0  0  0  0  0  0  0  0
  -16.7184   -0.1745   -4.8802 O   0  0  0  0  0  0  0  0  0  0  0  0
  -13.9385    2.3418   -7.5896 H   0  0  0  0  0  0  0  0  0  0  0  0
  -18.4001    1.9551   -6.0679 H   0  0  0  0  0  0  0  0  0  0  0  0
  -15.9648    0.2481   -4.4319 H   0  0  0  0  0  0  0  0  0  0  0  0
  -16.0499   -2.6097   -8.2906 O   0  0  0  0  0  0  0  0  0  0  0  0
  -15.8076   -2.0981   -6.9804 C   0  0  0  0  0  0  0  0  0  0  0  0
  -16.0934   -3.5775   -8.2063 H   0  0  0  0  0  0  0  0  0  0  0  0
  -16.4948    4.3658   -8.8182 C   0  0  0  0  0  0  0  0  0  0  0  0
  -15.5629    4.8038   -9.7959 O   0  0  0  0  0  0  0  0  0  0  0  0
  -16.1161    5.6780  -10.7775 C   0  0  0  0  0  0  0  0  0  0  0  0
  -16.5529    6.9836  -10.1101 C   0  0  0  0  0  0  0  0  0  0  0  0
  -17.0886    7.8813  -11.0935 O   0  0  0  0  0  0  0  0  0  0  0  0
  -17.5895    6.6604   -9.0199 C   0  0  0  0  0  0  0  0  0  0  0  0
  -17.9480    7.8739   -8.3401 O   0  0  0  0  0  0  0  0  0  0  0  0
  -17.0685    5.5859   -8.0462 C   0  0  0  0  0  0  0  0  0  0  0  0
  -18.1177    5.2110   -7.1426 O   0  0  0  0  0  0  0  0  0  0  0  0
  -18.0302    8.0332  -10.8925 H   0  0  0  0  0  0  0  0  0  0  0  0
  -17.3140    8.0173   -7.6076 H   0  0  0  0  0  0  0  0  0  0  0  0
  -18.8471    4.8097   -7.6439 H   0  0  0  0  0  0  0  0  0  0  0  0
  -15.0671    5.9248  -11.8740 C   0  0  0  0  0  0  0  0  0  0  0  0
  -14.3041    4.7537  -12.1602 O   0  0  0  0  0  0  0  0  0  0  0  0
  -14.9375    4.0208  -12.2743 H   0  0  0  0  0  0  0  0  0  0  0  0
 14 15  1  0
 14 16  1  0
  2  3  1  0
  2  9  1  0
  2 15  1  0
  3  4  1  0
  4  5  1  0
  4  6  1  0
  5 11  1  0
  6  7  1  0
  6  1  1  0
 17 18  1  0
 17 24  1  0
 17  1  1  0
 18 19  1  0
 19 20  1  0
 19 29  1  0
 29 30  1  0
 30 31  1  0
 20 21  1  0
 20 22  1  0
 21 26  1  0
 22 23  1  0
 22 24  1  0
 23 27  1  0
 24 25  1  0
 25 28  1  0
  7  8  1  0
  7  9  1  0
  8 12  1  0
  9 10  1  0
 10 13  1  0
M  END
> <minimizedAffinity>
-4.80826

> <CNNscore>
0.8209508657

> <CNNaffinity>
3.0987212658

> <CNN_VS>
2.5438978672

> <CNNaffinity_variance>
0.3221853971

$$$$



 31 32  0  0  0  0  0  0  0  0999 V2000
  -16.0114    0.9481  -10.1072 O   0  0  0  0  0  0  0  0  0  0  0  0
  -16.5248   -2.9356   -8.6006 C   0  0  0  0  0  0  0  0  0  0  0  0
  -17.6350   -2.2869   -9.2254 O   0  0  0  0  0  0  0  0  0  0  0  0
  -17.2553   -1.1988  -10.0527 C   0  0  0  0  0  0  0  0  0  0  0  0
  -16.4218   -1.6564  -11.1120 O   0  0  0  0  0  0  0  0  0  0  0  0
  -16.5595   -0.0749   -9.2412 C   0  0  0  0  0  0  0  0  0  0  0  0
  -15.3895   -0.6859   -8.4393 C   0  0  0  0  0  0  0  0  0  0  0  0
  -14.8452    0.2936   -7.5359 O   0  0  0  0  0  0  0  0  0  0  0  0
  -15.8006   -1.9582   -7.6681 C   0  0  0  0  0  0  0  0  0  0  0  0
  -14.6513   -2.5771   -7.0766 O   0  0  0  0  0  0  0  0  0  0  0  0
  -15.7638   -0.9523  -11.2625 H   0  0  0  0  0  0  0  0  0  0  0  0
  -15.3628    0.2751   -6.7124 H   0  0  0  0  0  0  0  0  0  0  0  0
  -13.9493   -2.6317   -7.7486 H   0  0  0  0  0  0  0  0  0  0  0  0
  -15.9872   -5.0373   -7.4701 O   0  0  0  0  0  0  0  0  0  0  0  0
  -17.0527   -4.1741   -7.8660 C   0  0  0  0  0  0  0  0  0  0  0  0
  -16.3884   -5.7476   -6.9408 H   0  0  0  0  0  0  0  0  0  0  0  0
  -15.7000    2.1868   -9.4626 C   0  0  0  0  0  0  0  0  0  0  0  0
  -16.7346    2.4960   -8.5407 O   0  0  0  0  0  0  0  0  0  0  0  0
  -16.5458    3.7264   -7.8445 C   0  0  0  0  0  0  0  0  0  0  0  0
  -16.6110    4.8893   -8.8366 C   0  0  0  0  0  0  0  0  0  0  0  0
  -16.4472    6.1350   -8.1428 O   0  0  0  0  0  0  0  0  0  0  0  0
  -15.5200    4.6923   -9.9036 C   0  0  0  0  0  0  0  0  0  0  0  0
  -15.6243    5.7414  -10.8792 O   0  0  0  0  0  0  0  0  0  0  0  0
  -15.6056    3.2951  -10.5474 C   0  0  0  0  0  0  0  0  0  0  0  0
  -14.4854    3.1029  -11.4226 O   0  0  0  0  0  0  0  0  0  0  0  0
  -15.6246    6.5556   -8.4535 H   0  0  0  0  0  0  0  0  0  0  0  0
  -16.2615    5.4613  -11.5681 H   0  0  0  0  0  0  0  0  0  0  0  0
  -13.6635    3.1266  -10.9046 H   0  0  0  0  0  0  0  0  0  0  0  0
  -17.6206    3.8518   -6.7523 C   0  0  0  0  0  0  0  0  0  0  0  0
  -18.5063    2.7333   -6.7399 O   0  0  0  0  0  0  0  0  0  0  0  0
  -17.9529    1.9304   -6.7626 H   0  0  0  0  0  0  0  0  0  0  0  0
 14 15  1  0
 14 16  1  0
  2  3  1  0
  2  9  1  0
  2 15  1  0
  3  4  1  0
  4  5  1  0
  4  6  1  0
  5 11  1  0
  6  7  1  0
  6  1  1  0
 17 18  1  0
 17 24  1  0
 17  1  1  0
 18 19  1  0
 19 20  1  0
 19 29  1  0
 29 30  1  0
 30 31  1  0
 20 21  1  0
 20 22  1  0
 21 26  1  0
 22 23  1  0
 22 24  1  0
 23 27  1  0
 24 25  1  0
 25 28  1  0
  7  8  1  0
  7  9  1  0
  8 12  1  0
  9 10  1  0
 10 13  1  0
M  END
> <minimizedAffinity>
-5.18281

> <CNNscore>
0.7980909944

> <CNNaffinity>
2.9091055393

> <CNN_VS>
2.3217308521

> <CNNaffinity_variance>
0.4871481359

$$$$



 31 32  0  0  0  0  0  0  0  0999 V2000
  -16.1017    3.4684   -7.8289 O   0  0  0  0  0  0  0  0  0  0  0  0
  -15.0004    3.9950  -11.8447 C   0  0  0  0  0  0  0  0  0  0  0  0
  -14.5760    2.8119  -11.1636 O   0  0  0  0  0  0  0  0  0  0  0  0
  -15.3332    2.5350   -9.9963 C   0  0  0  0  0  0  0  0  0  0  0  0
  -16.6987    2.3224  -10.3373 O   0  0  0  0  0  0  0  0  0  0  0  0
  -15.1911    3.6603   -8.9384 C   0  0  0  0  0  0  0  0  0  0  0  0
  -15.5343    5.0144   -9.5971 C   0  0  0  0  0  0  0  0  0  0  0  0
  -15.2310    6.0937   -8.6944 O   0  0  0  0  0  0  0  0  0  0  0  0
  -14.8073    5.2194  -10.9432 C   0  0  0  0  0  0  0  0  0  0  0  0
  -15.2806    6.4071  -11.5907 O   0  0  0  0  0  0  0  0  0  0  0  0
  -17.2226    2.7055   -9.6093 H   0  0  0  0  0  0  0  0  0  0  0  0
  -14.2929    6.3293   -8.7992 H   0  0  0  0  0  0  0  0  0  0  0  0
  -16.2536    6.4043  -11.5689 H   0  0  0  0  0  0  0  0  0  0  0  0
  -13.0882    4.9651  -13.0222 O   0  0  0  0  0  0  0  0  0  0  0  0
  -14.2114    4.0947  -13.1561 C   0  0  0  0  0  0  0  0  0  0  0  0
  -12.5940    4.9100  -13.8578 H   0  0  0  0  0  0  0  0  0  0  0  0
  -16.6596    2.1554   -7.7210 C   0  0  0  0  0  0  0  0  0  0  0  0
  -18.0563    2.2687   -7.4920 O   0  0  0  0  0  0  0  0  0  0  0  0
  -18.7261    1.0180   -7.3471 C   0  0  0  0  0  0  0  0  0  0  0  0
  -18.2268    0.3151   -6.0831 C   0  0  0  0  0  0  0  0  0  0  0  0
  -18.9128   -0.9341   -5.9137 O   0  0  0  0  0  0  0  0  0  0  0  0
  -16.7061    0.1104   -6.1977 C   0  0  0  0  0  0  0  0  0  0  0  0
  -16.2205   -0.4820   -4.9826 O   0  0  0  0  0  0  0  0  0  0  0  0
  -15.9818    1.4303   -6.5256 C   0  0  0  0  0  0  0  0  0  0  0  0
  -14.5932    1.1655   -6.7691 O   0  0  0  0  0  0  0  0  0  0  0  0
  -18.2616   -1.6560   -5.9840 H   0  0  0  0  0  0  0  0  0  0  0  0
  -16.0138    0.2357   -4.3493 H   0  0  0  0  0  0  0  0  0  0  0  0
  -14.5059    0.5927   -7.5492 H   0  0  0  0  0  0  0  0  0  0  0  0
  -20.2425    1.2668   -7.2962 C   0  0  0  0  0  0  0  0  0  0  0  0
  -20.9884    0.1194   -7.6996 O   0  0  0  0  0  0  0  0  0  0  0  0
  -20.6225   -0.6441   -7.2153 H   0  0  0  0  0  0  0  0  0  0  0  0
 14 15  1  0
 14 16  1  0
  2  3  1  0
  2  9  1  0
  2 15  1  0
  3  4  1  0
  4  5  1  0
  4  6  1  0
  5 11  1  0
  6  7  1  0
  6  1  1  0
 17 18  1  0
 17 24  1  0
 17  1  1  0
 18 19  1  0
 19 20  1  0
 19 29  1  0
 29 30  1  0
 30 31  1  0
 20 21  1  0
 20 22  1  0
 21 26  1  0
 22 23  1  0
 22 24  1  0
 23 27  1  0
 24 25  1  0
 25 28  1  0
  7  8  1  0
  7  9  1  0
  8 12  1  0
  9 10  1  0
 10 13  1  0
M  END
> <minimizedAffinity>
-4.65151

> <CNNscore>
0.7886272669

> <CNNaffinity>
3.2794210911

> <CNN_VS>
2.5862410069

> <CNNaffinity_variance>
0.3114338219

$$$$



 31 32  0  0  0  0  0  0  0  0999 V2000
  -16.6038    3.4901   -9.8626 O   0  0  0  0  0  0  0  0  0  0  0  0
  -16.7239    1.1107   -6.4071 C   0  0  0  0  0  0  0  0  0  0  0  0
  -17.1315    2.4780   -6.3164 O   0  0  0  0  0  0  0  0  0  0  0  0
  -17.4552    3.0510   -7.5731 C   0  0  0  0  0  0  0  0  0  0  0  0
  -18.5480    2.3545   -8.1621 O   0  0  0  0  0  0  0  0  0  0  0  0
  -16.2314    3.0764   -8.5258 C   0  0  0  0  0  0  0  0  0  0  0  0
  -15.6420    1.6522   -8.6235 C   0  0  0  0  0  0  0  0  0  0  0  0
  -14.3989    1.6807   -9.3485 O   0  0  0  0  0  0  0  0  0  0  0  0
  -15.4422    0.9976   -7.2400 C   0  0  0  0  0  0  0  0  0  0  0  0
  -15.0513   -0.3733   -7.3876 O   0  0  0  0  0  0  0  0  0  0  0  0
  -18.3737    2.3386   -9.1216 H   0  0  0  0  0  0  0  0  0  0  0  0
  -13.6822    1.8881   -8.7241 H   0  0  0  0  0  0  0  0  0  0  0  0
  -15.6430   -0.7954   -8.0349 H   0  0  0  0  0  0  0  0  0  0  0  0
  -15.1780    0.3488   -4.6711 O   0  0  0  0  0  0  0  0  0  0  0  0
  -16.5531    0.5724   -4.9812 C   0  0  0  0  0  0  0  0  0  0  0  0
  -15.1435    0.0939   -3.7333 H   0  0  0  0  0  0  0  0  0  0  0  0
  -15.8742    4.6077  -10.3780 C   0  0  0  0  0  0  0  0  0  0  0  0
  -16.7317    5.7389  -10.4099 O   0  0  0  0  0  0  0  0  0  0  0  0
  -16.1198    6.9192  -10.9261 C   0  0  0  0  0  0  0  0  0  0  0  0
  -15.7718    6.7104  -12.4013 C   0  0  0  0  0  0  0  0  0  0  0  0
  -15.1778    7.9016  -12.9381 O   0  0  0  0  0  0  0  0  0  0  0  0
  -14.8222    5.5056  -12.5208 C   0  0  0  0  0  0  0  0  0  0  0  0
  -14.5511    5.2591  -13.9097 O   0  0  0  0  0  0  0  0  0  0  0  0
  -15.3965    4.2619  -11.8154 C   0  0  0  0  0  0  0  0  0  0  0  0
  -14.4175    3.2134  -11.8237 O   0  0  0  0  0  0  0  0  0  0  0  0
  -14.2602    7.6993  -13.1971 H   0  0  0  0  0  0  0  0  0  0  0  0
  -15.2472    4.6664  -14.2606 H   0  0  0  0  0  0  0  0  0  0  0  0
  -13.6394    3.4945  -11.3140 H   0  0  0  0  0  0  0  0  0  0  0  0
  -17.0794    8.1047  -10.7321 C   0  0  0  0  0  0  0  0  0  0  0  0
  -16.4256    9.3597  -10.9143 O   0  0  0  0  0  0  0  0  0  0  0  0
  -15.9175    9.2994  -11.7447 H   0  0  0  0  0  0  0  0  0  0  0  0
 14 15  1  0
 14 16  1  0
  2  3  1  0
  2  9  1  0
  2 15  1  0
  3  4  1  0
  4  5  1  0
  4  6  1  0
  5 11  1  0
  6  7  1  0
  6  1  1  0
 17 18  1  0
 17 24  1  0
 17  1  1  0
 18 19  1  0
 19 20  1  0
 19 29  1  0
 29 30  1  0
 30 31  1  0
 20 21  1  0
 20 22  1  0
 21 26  1  0
 22 23  1  0
 22 24  1  0
 23 27  1  0
 24 25  1  0
 25 28  1  0
  7  8  1  0
  7  9  1  0
  8 12  1  0
  9 10  1  0
 10 13  1  0
M  END
> <minimizedAffinity>
-4.59678

> <CNNscore>
0.7728227377

> <CNNaffinity>
3.0033245087

> <CNN_VS>
2.3210375309

> <CNNaffinity_variance>
0.5776631236

$$$$



 31 32  0  0  0  0  0  0  0  0999 V2000
  -16.2443    3.2430   -7.3520 O   0  0  0  0  0  0  0  0  0  0  0  0
  -15.2459   -0.7149   -8.3295 C   0  0  0  0  0  0  0  0  0  0  0  0
  -15.7507    0.1419   -9.3566 O   0  0  0  0  0  0  0  0  0  0  0  0
  -15.6496    1.5203   -9.0367 C   0  0  0  0  0  0  0  0  0  0  0  0
  -14.2846    1.8831   -8.8593 O   0  0  0  0  0  0  0  0  0  0  0  0
  -16.4904    1.8832   -7.7848 C   0  0  0  0  0  0  0  0  0  0  0  0
  -16.0944    0.9436   -6.6248 C   0  0  0  0  0  0  0  0  0  0  0  0
  -16.9861    1.1314   -5.5107 O   0  0  0  0  0  0  0  0  0  0  0  0
  -16.0679   -0.5407   -7.0475 C   0  0  0  0  0  0  0  0  0  0  0  0
  -15.5394   -1.3518   -5.9907 O   0  0  0  0  0  0  0  0  0  0  0  0
  -14.2707    2.5427   -8.1409 H   0  0  0  0  0  0  0  0  0  0  0  0
  -17.7681    0.5680   -5.6430 H   0  0  0  0  0  0  0  0  0  0  0  0
  -14.7248   -0.9349   -5.6590 H   0  0  0  0  0  0  0  0  0  0  0  0
  -14.2700   -2.9560   -8.2339 O   0  0  0  0  0  0  0  0  0  0  0  0
  -15.2719   -2.1541   -8.8587 C   0  0  0  0  0  0  0  0  0  0  0  0
  -14.4038   -3.8647   -8.5530 H   0  0  0  0  0  0  0  0  0  0  0  0
  -17.2538    4.1888   -7.7169 C   0  0  0  0  0  0  0  0  0  0  0  0
  -16.6553    5.4698   -7.8474 O   0  0  0  0  0  0  0  0  0  0  0  0
  -17.5705    6.5078   -8.1925 C   0  0  0  0  0  0  0  0  0  0  0  0
  -18.5679    6.7094   -7.0499 C   0  0  0  0  0  0  0  0  0  0  0  0
  -19.4788    7.7695   -7.3761 O   0  0  0  0  0  0  0  0  0  0  0  0
  -19.3117    5.3855   -6.8018 C   0  0  0  0  0  0  0  0  0  0  0  0
  -20.1962    5.5482   -5.6818 O   0  0  0  0  0  0  0  0  0  0  0  0
  -18.3296    4.2161   -6.5962 C   0  0  0  0  0  0  0  0  0  0  0  0
  -19.0621    2.9853   -6.5180 O   0  0  0  0  0  0  0  0  0  0  0  0
  -20.3765    7.3956   -7.4429 H   0  0  0  0  0  0  0  0  0  0  0  0
  -19.6979    5.3501   -4.8624 H   0  0  0  0  0  0  0  0  0  0  0  0
  -19.5186    2.8273   -7.3612 H   0  0  0  0  0  0  0  0  0  0  0  0
  -16.7795    7.7926   -8.4882 C   0  0  0  0  0  0  0  0  0  0  0  0
  -15.8955    8.1359   -7.4223 O   0  0  0  0  0  0  0  0  0  0  0  0
  -15.4039    7.3269   -7.1869 H   0  0  0  0  0  0  0  0  0  0  0  0
 14 15  1  0
 14 16  1  0
  2  3  1  0
  2  9  1  0
  2 15  1  0
  3  4  1  0
  4  5  1  0
  4  6  1  0
  5 11  1  0
  6  7  1  0
  6  1  1  0
 17 18  1  0
 17 24  1  0
 17  1  1  0
 18 19  1  0
 19 20  1  0
 19 29  1  0
 29 30  1  0
 30 31  1  0
 20 21  1  0
 20 22  1  0
 21 26  1  0
 22 23  1  0
 22 24  1  0
 23 27  1  0
 24 25  1  0
 25 28  1  0
  7  8  1  0
  7  9  1  0
  8 12  1  0
  9 10  1  0
 10 13  1  0
M  END
> <minimizedAffinity>
-5.14853

> <CNNscore>
0.7713283896

> <CNNaffinity>
3.2064495087

> <CNN_VS>
2.4732255936

> <CNNaffinity_variance>
0.4247226715

$$$$



 31 32  0  0  0  0  0  0  0  0999 V2000
  -15.1128    1.9214   -9.9368 O   0  0  0  0  0  0  0  0  0  0  0  0
  -17.4495   -0.7467   -7.6922 C   0  0  0  0  0  0  0  0  0  0  0  0
  -18.1067    0.2235   -8.5111 O   0  0  0  0  0  0  0  0  0  0  0  0
  -17.2691    0.7656   -9.5196 C   0  0  0  0  0  0  0  0  0  0  0  0
  -16.8362   -0.2637  -10.4024 O   0  0  0  0  0  0  0  0  0  0  0  0
  -16.0604    1.5271   -8.9153 C   0  0  0  0  0  0  0  0  0  0  0  0
  -15.3238    0.5959   -7.9275 C   0  0  0  0  0  0  0  0  0  0  0  0
  -14.3142    1.3326   -7.2137 O   0  0  0  0  0  0  0  0  0  0  0  0
  -16.2846   -0.0964   -6.9375 C   0  0  0  0  0  0  0  0  0  0  0  0
  -15.5802   -1.0685   -6.1547 O   0  0  0  0  0  0  0  0  0  0  0  0
  -15.9204   -0.0392  -10.6519 H   0  0  0  0  0  0  0  0  0  0  0  0
  -14.7283    1.7540   -6.4408 H   0  0  0  0  0  0  0  0  0  0  0  0
  -15.0371   -1.6118   -6.7523 H   0  0  0  0  0  0  0  0  0  0  0  0
  -19.6825   -1.7179   -7.4594 O   0  0  0  0  0  0  0  0  0  0  0  0
  -18.4954   -1.3594   -6.7527 C   0  0  0  0  0  0  0  0  0  0  0  0
  -20.2577   -2.1737   -6.8214 H   0  0  0  0  0  0  0  0  0  0  0  0
  -15.0288    3.3293  -10.1765 C   0  0  0  0  0  0  0  0  0  0  0  0
  -15.8864    4.0009   -9.2657 O   0  0  0  0  0  0  0  0  0  0  0  0
  -15.9039    5.4187   -9.4196 C   0  0  0  0  0  0  0  0  0  0  0  0
  -16.5014    5.7769  -10.7818 C   0  0  0  0  0  0  0  0  0  0  0  0
  -16.5470    7.2030  -10.9371 O   0  0  0  0  0  0  0  0  0  0  0  0
  -15.6533    5.1182  -11.8838 C   0  0  0  0  0  0  0  0  0  0  0  0
  -16.2523    5.3897  -13.1608 O   0  0  0  0  0  0  0  0  0  0  0  0
  -15.4816    3.6070  -11.6366 C   0  0  0  0  0  0  0  0  0  0  0  0
  -14.5665    3.0664  -12.6000 O   0  0  0  0  0  0  0  0  0  0  0  0
  -15.9606    7.4521  -11.6747 H   0  0  0  0  0  0  0  0  0  0  0  0
  -16.9181    4.6955  -13.3444 H   0  0  0  0  0  0  0  0  0  0  0  0
  -13.6928    3.4745  -12.4796 H   0  0  0  0  0  0  0  0  0  0  0  0
  -16.7113    6.0360   -8.2660 C   0  0  0  0  0  0  0  0  0  0  0  0
  -16.1682    7.2841   -7.8385 O   0  0  0  0  0  0  0  0  0  0  0  0
  -16.0133    7.8179   -8.6401 H   0  0  0  0  0  0  0  0  0  0  0  0
 14 15  1  0
 14 16  1  0
  2  3  1  0
  2  9  1  0
  2 15  1  0
  3  4  1  0
  4  5  1  0
  4  6  1  0
  5 11  1  0
  6  7  1  0
  6  1  1  0
 17 18  1  0
 17 24  1  0
 17  1  1  0
 18 19  1  0
 19 20  1  0
 19 29  1  0
 29 30  1  0
 30 31  1  0
 20 21  1  0
 20 22  1  0
 21 26  1  0
 22 23  1  0
 22 24  1  0
 23 27  1  0
 24 25  1  0
 25 28  1  0
  7  8  1  0
  7  9  1  0
  8 12  1  0
  9 10  1  0
 10 13  1  0
M  END
> <minimizedAffinity>
-4.63048

> <CNNscore>
0.7424197197

> <CNNaffinity>
4.0232796669

> <CNN_VS>
2.9869620800

> <CNNaffinity_variance>
0.5786728263

$$$$



 31 32  0  0  0  0  0  0  0  0999 V2000
  -15.3759   -0.3055   -6.2300 O   0  0  0  0  0  0  0  0  0  0  0  0
  -16.8100   -3.9629   -7.7078 C   0  0  0  0  0  0  0  0  0  0  0  0
  -16.1254   -3.0804   -8.6001 O   0  0  0  0  0  0  0  0  0  0  0  0
  -15.3335   -2.1112   -7.9321 C   0  0  0  0  0  0  0  0  0  0  0  0
  -14.3223   -2.7516   -7.1617 O   0  0  0  0  0  0  0  0  0  0  0  0
  -16.1969   -1.1726   -7.0492 C   0  0  0  0  0  0  0  0  0  0  0  0
  -17.0622   -2.0313   -6.1010 C   0  0  0  0  0  0  0  0  0  0  0  0
  -18.0066   -1.1983   -5.4039 O   0  0  0  0  0  0  0  0  0  0  0  0
  -17.7943   -3.1728   -6.8381 C   0  0  0  0  0  0  0  0  0  0  0  0
  -18.4484   -4.0354   -5.8989 O   0  0  0  0  0  0  0  0  0  0  0  0
  -14.2190   -2.2171   -6.3524 H   0  0  0  0  0  0  0  0  0  0  0  0
  -18.7970   -1.0946   -5.9616 H   0  0  0  0  0  0  0  0  0  0  0  0
  -17.8197   -4.2517   -5.1881 H   0  0  0  0  0  0  0  0  0  0  0  0
  -18.9042   -4.8140   -8.6426 O   0  0  0  0  0  0  0  0  0  0  0  0
  -17.4989   -5.0449   -8.5485 C   0  0  0  0  0  0  0  0  0  0  0  0
  -19.2545   -5.4833   -9.2550 H   0  0  0  0  0  0  0  0  0  0  0  0
  -15.6537    1.0922   -6.3571 C   0  0  0  0  0  0  0  0  0  0  0  0
  -17.0389    1.3062   -6.1302 O   0  0  0  0  0  0  0  0  0  0  0  0
  -17.4449    2.6682   -6.2487 C   0  0  0  0  0  0  0  0  0  0  0  0
  -17.2580    3.1325   -7.6946 C   0  0  0  0  0  0  0  0  0  0  0  0
  -17.6873    4.4953   -7.8310 O   0  0  0  0  0  0  0  0  0  0  0  0
  -15.7776    2.9681   -8.0805 C   0  0  0  0  0  0  0  0  0  0  0  0
  -15.6100    3.3326   -9.4598 O   0  0  0  0  0  0  0  0  0  0  0  0
  -15.2752    1.5395   -7.7961 C   0  0  0  0  0  0  0  0  0  0  0  0
  -13.8614    1.4749   -8.0295 O   0  0  0  0  0  0  0  0  0  0  0  0
  -16.9151    5.0397   -8.0707 H   0  0  0  0  0  0  0  0  0  0  0  0
  -15.7776    2.5412  -10.0117 H   0  0  0  0  0  0  0  0  0  0  0  0
  -13.4044    2.0653   -7.4075 H   0  0  0  0  0  0  0  0  0  0  0  0
  -18.9093    2.7936   -5.7976 C   0  0  0  0  0  0  0  0  0  0  0  0
  -19.1014    2.3278   -4.4628 O   0  0  0  0  0  0  0  0  0  0  0  0
  -18.4058    2.7364   -3.9146 H   0  0  0  0  0  0  0  0  0  0  0  0
 14 15  1  0
 14 16  1  0
  2  3  1  0
  2  9  1  0
  2 15  1  0
  3  4  1  0
  4  5  1  0
  4  6  1  0
  5 11  1  0
  6  7  1  0
  6  1  1  0
 17 18  1  0
 17 24  1  0
 17  1  1  0
 18 19  1  0
 19 20  1  0
 19 29  1  0
 29 30  1  0
 30 31  1  0
 20 21  1  0
 20 22  1  0
 21 26  1  0
 22 23  1  0
 22 24  1  0
 23 27  1  0
 24 25  1  0
 25 28  1  0
  7  8  1  0
  7  9  1  0
  8 12  1  0
  9 10  1  0
 10 13  1  0
M  END
> <minimizedAffinity>
-5.51002

> <CNNscore>
0.7198110819

> <CNNaffinity>
3.1626510620

> <CNN_VS>
2.2765111923

> <CNNaffinity_variance>
0.1713989377

$$$$



 31 32  0  0  0  0  0  0  0  0999 V2000
  -16.8525    0.8199   -8.9097 O   0  0  0  0  0  0  0  0  0  0  0  0
  -16.2190   -2.8811   -7.0341 C   0  0  0  0  0  0  0  0  0  0  0  0
  -15.5689   -1.7219   -6.5075 O   0  0  0  0  0  0  0  0  0  0  0  0
  -16.1662   -0.5053   -6.9267 C   0  0  0  0  0  0  0  0  0  0  0  0
  -17.5137   -0.4392   -6.4727 O   0  0  0  0  0  0  0  0  0  0  0  0
  -16.0866   -0.3258   -8.4653 C   0  0  0  0  0  0  0  0  0  0  0  0
  -16.6788   -1.5784   -9.1478 C   0  0  0  0  0  0  0  0  0  0  0  0
  -16.4483   -1.5227  -10.5675 O   0  0  0  0  0  0  0  0  0  0  0  0
  -16.1179   -2.8923   -8.5635 C   0  0  0  0  0  0  0  0  0  0  0  0
  -16.8135   -4.0195   -9.1107 O   0  0  0  0  0  0  0  0  0  0  0  0
  -18.0159    0.0082   -7.1790 H   0  0  0  0  0  0  0  0  0  0  0  0
  -15.5672   -1.8917  -10.7518 H   0  0  0  0  0  0  0  0  0  0  0  0
  -17.7700   -3.8454   -9.0630 H   0  0  0  0  0  0  0  0  0  0  0  0
  -14.7246   -4.7985   -7.3070 O   0  0  0  0  0  0  0  0  0  0  0  0
  -15.5788   -4.1166   -6.3892 C   0  0  0  0  0  0  0  0  0  0  0  0
  -14.2929   -5.5115   -6.8061 H   0  0  0  0  0  0  0  0  0  0  0  0
  -16.4605    2.0715   -8.3382 C   0  0  0  0  0  0  0  0  0  0  0  0
  -17.6150    2.8817   -8.1744 O   0  0  0  0  0  0  0  0  0  0  0  0
  -17.3486    4.1712   -7.6264 C   0  0  0  0  0  0  0  0  0  0  0  0
  -16.4994    4.9784   -8.6105 C   0  0  0  0  0  0  0  0  0  0  0  0
  -16.2463    6.2877   -8.0799 O   0  0  0  0  0  0  0  0  0  0  0  0
  -15.1894    4.2162   -8.8758 C   0  0  0  0  0  0  0  0  0  0  0  0
  -14.4210    4.9327   -9.8554 O   0  0  0  0  0  0  0  0  0  0  0  0
  -15.4596    2.7614   -9.3058 C   0  0  0  0  0  0  0  0  0  0  0  0
  -14.2165    2.0514   -9.3966 O   0  0  0  0  0  0  0  0  0  0  0  0
  -15.2873    6.3806   -7.9318 H   0  0  0  0  0  0  0  0  0  0  0  0
  -14.7012    4.6365  -10.7457 H   0  0  0  0  0  0  0  0  0  0  0  0
  -13.8008    2.0152   -8.5190 H   0  0  0  0  0  0  0  0  0  0  0  0
  -18.6840    4.8703   -7.3235 C   0  0  0  0  0  0  0  0  0  0  0  0
  -18.5034    6.0702   -6.5730 O   0  0  0  0  0  0  0  0  0  0  0  0
  -17.7974    6.5793   -7.0135 H   0  0  0  0  0  0  0  0  0  0  0  0
 14 15  1  0
 14 16  1  0
  2  3  1  0
  2  9  1  0
  2 15  1  0
  3  4  1  0
  4  5  1  0
  4  6  1  0
  5 11  1  0
  6  7  1  0
  6  1  1  0
 17 18  1  0
 17 24  1  0
 17  1  1  0
 18 19  1  0
 19 20  1  0
 19 29  1  0
 29 30  1  0
 30 31  1  0
 20 21  1  0
 20 22  1  0
 21 26  1  0
 22 23  1  0
 22 24  1  0
 23 27  1  0
 24 25  1  0
 25 28  1  0
  7  8  1  0
  7  9  1  0
  8 12  1  0
  9 10  1  0
 10 13  1  0
M  END
> <minimizedAffinity>
-5.37533

> <CNNscore>
0.6901645064

> <CNNaffinity>
2.5081756115

> <CNN_VS>
1.7310538292

> <CNNaffinity_variance>
0.8910056949

$$$$



 31 32  0  0  0  0  0  0  0  0999 V2000
  -17.6484    1.5507   -5.3538 O   0  0  0  0  0  0  0  0  0  0  0  0
  -17.3374   -2.2191   -7.1728 C   0  0  0  0  0  0  0  0  0  0  0  0
  -18.5460   -1.8827   -6.4874 O   0  0  0  0  0  0  0  0  0  0  0  0
  -18.7098   -0.4872   -6.2920 C   0  0  0  0  0  0  0  0  0  0  0  0
  -18.7732    0.1791   -7.5482 O   0  0  0  0  0  0  0  0  0  0  0  0
  -17.5853    0.1048   -5.4027 C   0  0  0  0  0  0  0  0  0  0  0  0
  -16.2155   -0.2842   -6.0008 C   0  0  0  0  0  0  0  0  0  0  0  0
  -15.1584    0.0898   -5.0984 O   0  0  0  0  0  0  0  0  0  0  0  0
  -16.1236   -1.7865   -6.3428 C   0  0  0  0  0  0  0  0  0  0  0  0
  -14.9041   -2.0661   -7.0417 O   0  0  0  0  0  0  0  0  0  0  0  0
  -18.3173    1.0326   -7.4255 H   0  0  0  0  0  0  0  0  0  0  0  0
  -15.0333   -0.6290   -4.4549 H   0  0  0  0  0  0  0  0  0  0  0  0
  -14.7959   -1.4075   -7.7501 H   0  0  0  0  0  0  0  0  0  0  0  0
  -16.4452   -4.4249   -6.6046 O   0  0  0  0  0  0  0  0  0  0  0  0
  -17.3563   -3.7269   -7.4530 C   0  0  0  0  0  0  0  0  0  0  0  0
  -16.5755   -5.3727   -6.7786 H   0  0  0  0  0  0  0  0  0  0  0  0
  -17.6197    2.2034   -6.6266 C   0  0  0  0  0  0  0  0  0  0  0  0
  -16.2893    2.1820   -7.1222 O   0  0  0  0  0  0  0  0  0  0  0  0
  -16.1280    2.8239   -8.3855 C   0  0  0  0  0  0  0  0  0  0  0  0
  -16.4157    4.3195   -8.2384 C   0  0  0  0  0  0  0  0  0  0  0  0
  -16.2318    4.9801   -9.4992 O   0  0  0  0  0  0  0  0  0  0  0  0
  -17.8509    4.4989   -7.7137 C   0  0  0  0  0  0  0  0  0  0  0  0
  -18.1011    5.8976   -7.5034 O   0  0  0  0  0  0  0  0  0  0  0  0
  -18.0929    3.6711   -6.4368 C   0  0  0  0  0  0  0  0  0  0  0  0
  -19.4776    3.7511   -6.0709 O   0  0  0  0  0  0  0  0  0  0  0  0
  -17.0905    5.3405   -9.7870 H   0  0  0  0  0  0  0  0  0  0  0  0
  -17.8074    6.1321   -6.5991 H   0  0  0  0  0  0  0  0  0  0  0  0
  -20.0202    3.3548   -6.7729 H   0  0  0  0  0  0  0  0  0  0  0  0
  -14.7006    2.5685   -8.8965 C   0  0  0  0  0  0  0  0  0  0  0  0
  -14.6417    2.5177  -10.3211 O   0  0  0  0  0  0  0  0  0  0  0  0
  -15.1267    3.2953  -10.6551 H   0  0  0  0  0  0  0  0  0  0  0  0
 14 15  1  0
 14 16  1  0
  2  3  1  0
  2  9  1  0
  2 15  1  0
  3  4  1  0
  4  5  1  0
  4  6  1  0
  5 11  1  0
  6  7  1  0
  6  1  1  0
 17 18  1  0
 17 24  1  0
 17  1  1  0
 18 19  1  0
 19 20  1  0
 19 29  1  0
 29 30  1  0
 30 31  1  0
 20 21  1  0
 20 22  1  0
 21 26  1  0
 22 23  1  0
 22 24  1  0
 23 27  1  0
 24 25  1  0
 25 28  1  0
  7  8  1  0
  7  9  1  0
  8 12  1  0
  9 10  1  0
 10 13  1  0
M  END
> <minimizedAffinity>
-4.96831

> <CNNscore>
0.6699069738

> <CNNaffinity>
3.0329313278

> <CNN_VS>
2.0317819118

> <CNNaffinity_variance>
0.3397248089

$$$$



 31 32  0  0  0  0  0  0  0  0999 V2000
  -17.0018    0.1380   -7.6983 O   0  0  0  0  0  0  0  0  0  0  0  0
  -15.3000    3.7054   -9.1105 C   0  0  0  0  0  0  0  0  0  0  0  0
  -14.4727    2.5450   -8.9978 O   0  0  0  0  0  0  0  0  0  0  0  0
  -15.2103    1.3351   -8.9300 C   0  0  0  0  0  0  0  0  0  0  0  0
  -15.9726    1.1589  -10.1191 O   0  0  0  0  0  0  0  0  0  0  0  0
  -16.1177    1.2846   -7.6731 C   0  0  0  0  0  0  0  0  0  0  0  0
  -16.9974    2.5536   -7.6380 C   0  0  0  0  0  0  0  0  0  0  0  0
  -17.7117    2.6250   -6.3905 O   0  0  0  0  0  0  0  0  0  0  0  0
  -16.1833    3.8451   -7.8658 C   0  0  0  0  0  0  0  0  0  0  0  0
  -17.0593    4.9727   -7.9880 O   0  0  0  0  0  0  0  0  0  0  0  0
  -16.8110    0.7429   -9.8444 H   0  0  0  0  0  0  0  0  0  0  0  0
  -17.1398    3.0554   -5.7316 H   0  0  0  0  0  0  0  0  0  0  0  0
  -17.7741    4.7431   -8.6074 H   0  0  0  0  0  0  0  0  0  0  0  0
  -15.0951    6.0011   -9.9303 O   0  0  0  0  0  0  0  0  0  0  0  0
  -14.3868    4.9182   -9.3279 C   0  0  0  0  0  0  0  0  0  0  0  0
  -14.4801    6.7539   -9.9562 H   0  0  0  0  0  0  0  0  0  0  0  0
  -16.7751   -0.8268   -6.6665 C   0  0  0  0  0  0  0  0  0  0  0  0
  -16.2998   -2.0268   -7.2582 O   0  0  0  0  0  0  0  0  0  0  0  0
  -16.0534   -3.0778   -6.3261 C   0  0  0  0  0  0  0  0  0  0  0  0
  -17.3730   -3.5106   -5.6842 C   0  0  0  0  0  0  0  0  0  0  0  0
  -17.1401   -4.5857   -4.7623 O   0  0  0  0  0  0  0  0  0  0  0  0
  -18.0051   -2.2956   -4.9830 C   0  0  0  0  0  0  0  0  0  0  0  0
  -19.2796   -2.6778   -4.4420 O   0  0  0  0  0  0  0  0  0  0  0  0
  -18.1209   -1.0906   -5.9363 C   0  0  0  0  0  0  0  0  0  0  0  0
  -18.5739    0.0564   -5.2036 O   0  0  0  0  0  0  0  0  0  0  0  0
  -17.3683   -4.2785   -3.8658 H   0  0  0  0  0  0  0  0  0  0  0  0
  -19.9601   -2.5536   -5.1352 H   0  0  0  0  0  0  0  0  0  0  0  0
  -17.9139    0.2902   -4.5299 H   0  0  0  0  0  0  0  0  0  0  0  0
  -15.3695   -4.2440   -7.0583 C   0  0  0  0  0  0  0  0  0  0  0  0
  -16.3042   -5.0506   -7.7734 O   0  0  0  0  0  0  0  0  0  0  0  0
  -16.8718   -4.4445   -8.2852 H   0  0  0  0  0  0  0  0  0  0  0  0
 14 15  1  0
 14 16  1  0
  2  3  1  0
  2  9  1  0
  2 15  1  0
  3  4  1  0
  4  5  1  0
  4  6  1  0
  5 11  1  0
  6  7  1  0
  6  1  1  0
 17 18  1  0
 17 24  1  0
 17  1  1  0
 18 19  1  0
 19 20  1  0
 19 29  1  0
 29 30  1  0
 30 31  1  0
 20 21  1  0
 20 22  1  0
 21 26  1  0
 22 23  1  0
 22 24  1  0
 23 27  1  0
 24 25  1  0
 25 28  1  0
  7  8  1  0
  7  9  1  0
  8 12  1  0
  9 10  1  0
 10 13  1  0
M  END
> <minimizedAffinity>
-4.43719

> <CNNscore>
0.6452003717

> <CNNaffinity>
2.5989587307

> <CNN_VS>
1.6768491268

> <CNNaffinity_variance>
0.8136604428

$$$$



 31 32  0  0  0  0  0  0  0  0999 V2000
  -15.9894    3.5233   -7.6930 O   0  0  0  0  0  0  0  0  0  0  0  0
  -15.4927   -0.6232   -7.2721 C   0  0  0  0  0  0  0  0  0  0  0  0
  -15.5188   -0.0625   -8.5869 O   0  0  0  0  0  0  0  0  0  0  0  0
  -15.2635    1.3328   -8.6065 C   0  0  0  0  0  0  0  0  0  0  0  0
  -13.9635    1.6002   -8.0921 O   0  0  0  0  0  0  0  0  0  0  0  0
  -16.3454    2.1262   -7.8281 C   0  0  0  0  0  0  0  0  0  0  0  0
  -16.4747    1.5362   -6.4066 C   0  0  0  0  0  0  0  0  0  0  0  0
  -17.5971    2.1274   -5.7267 O   0  0  0  0  0  0  0  0  0  0  0  0
  -16.5998   -0.0022   -6.4130 C   0  0  0  0  0  0  0  0  0  0  0  0
  -16.5515   -0.5129   -5.0748 O   0  0  0  0  0  0  0  0  0  0  0  0
  -14.0350    2.4375   -7.5970 H   0  0  0  0  0  0  0  0  0  0  0  0
  -18.3980    1.6271   -5.9607 H   0  0  0  0  0  0  0  0  0  0  0  0
  -15.8036   -0.0963   -4.6118 H   0  0  0  0  0  0  0  0  0  0  0  0
  -14.3855   -2.8014   -7.1568 O   0  0  0  0  0  0  0  0  0  0  0  0
  -15.6286   -2.1451   -7.4039 C   0  0  0  0  0  0  0  0  0  0  0  0
  -14.5685   -3.7563   -7.1727 H   0  0  0  0  0  0  0  0  0  0  0  0
  -16.8350    4.4368   -8.3981 C   0  0  0  0  0  0  0  0  0  0  0  0
  -17.8575    3.7013   -9.0536 O   0  0  0  0  0  0  0  0  0  0  0  0
  -18.7594    4.5057   -9.8109 C   0  0  0  0  0  0  0  0  0  0  0  0
  -18.0080    5.1594  -10.9724 C   0  0  0  0  0  0  0  0  0  0  0  0
  -18.9119    5.9518  -11.7566 O   0  0  0  0  0  0  0  0  0  0  0  0
  -16.8610    6.0126  -10.4032 C   0  0  0  0  0  0  0  0  0  0  0  0
  -16.1068    6.5692  -11.4916 O   0  0  0  0  0  0  0  0  0  0  0  0
  -15.9732    5.1971   -9.4436 C   0  0  0  0  0  0  0  0  0  0  0  0
  -15.0135    6.0661   -8.8260 O   0  0  0  0  0  0  0  0  0  0  0  0
  -18.6378    6.8852  -11.6943 H   0  0  0  0  0  0  0  0  0  0  0  0
  -15.4162    5.9252  -11.7510 H   0  0  0  0  0  0  0  0  0  0  0  0
  -15.4777    6.7292   -8.2883 H   0  0  0  0  0  0  0  0  0  0  0  0
  -19.9168    3.6244  -10.3085 C   0  0  0  0  0  0  0  0  0  0  0  0
  -19.7002    3.1544  -11.6381 O   0  0  0  0  0  0  0  0  0  0  0  0
  -18.7927    2.7984  -11.6710 H   0  0  0  0  0  0  0  0  0  0  0  0
 14 15  1  0
 14 16  1  0
  2  3  1  0
  2  9  1  0
  2 15  1  0
  3  4  1  0
  4  5  1  0
  4  6  1  0
  5 11  1  0
  6  7  1  0
  6  1  1  0
 17 18  1  0
 17 24  1  0
 17  1  1  0
 18 19  1  0
 19 20  1  0
 19 29  1  0
 29 30  1  0
 30 31  1  0
 20 21  1  0
 20 22  1  0
 21 26  1  0
 22 23  1  0
 22 24  1  0
 23 27  1  0
 24 25  1  0
 25 28  1  0
  7  8  1  0
  7  9  1  0
  8 12  1  0
  9 10  1  0
 10 13  1  0
M  END
> <minimizedAffinity>
-5.21164

> <CNNscore>
0.6444600821

> <CNNaffinity>
3.6170108318

> <CNN_VS>
2.3310191631

> <CNNaffinity_variance>
0.3659042120

$$$$



 31 32  0  0  0  0  0  0  0  0999 V2000
  -15.7121   -0.0524   -7.5691 O   0  0  0  0  0  0  0  0  0  0  0  0
  -16.8300    3.9895   -7.7422 C   0  0  0  0  0  0  0  0  0  0  0  0
  -17.8535    2.9915   -7.7370 O   0  0  0  0  0  0  0  0  0  0  0  0
  -17.4072    1.7334   -7.2569 C   0  0  0  0  0  0  0  0  0  0  0  0
  -16.9682    1.8515   -5.9080 O   0  0  0  0  0  0  0  0  0  0  0  0
  -16.2926    1.1373   -8.1560 C   0  0  0  0  0  0  0  0  0  0  0  0
  -15.1643    2.1800   -8.3141 C   0  0  0  0  0  0  0  0  0  0  0  0
  -14.2083    1.7289   -9.2910 O   0  0  0  0  0  0  0  0  0  0  0  0
  -15.6984    3.5783   -8.6907 C   0  0  0  0  0  0  0  0  0  0  0  0
  -14.6379    4.5419   -8.6647 O   0  0  0  0  0  0  0  0  0  0  0  0
  -16.2056    1.2501   -5.8176 H   0  0  0  0  0  0  0  0  0  0  0  0
  -14.5196    1.9955  -10.1733 H   0  0  0  0  0  0  0  0  0  0  0  0
  -14.1375    4.4285   -7.8376 H   0  0  0  0  0  0  0  0  0  0  0  0
  -16.6487    6.4290   -7.7603 O   0  0  0  0  0  0  0  0  0  0  0  0
  -17.4740    5.3256   -8.1326 C   0  0  0  0  0  0  0  0  0  0  0  0
  -17.0773    7.2270   -8.1138 H   0  0  0  0  0  0  0  0  0  0  0  0
  -16.0273   -1.2764   -8.2393 C   0  0  0  0  0  0  0  0  0  0  0  0
  -17.3944   -1.2501   -8.6218 O   0  0  0  0  0  0  0  0  0  0  0  0
  -17.8360   -2.4319   -9.2869 C   0  0  0  0  0  0  0  0  0  0  0  0
  -17.7726   -3.6158   -8.3197 C   0  0  0  0  0  0  0  0  0  0  0  0
  -18.2389   -4.8064   -8.9714 O   0  0  0  0  0  0  0  0  0  0  0  0
  -16.3241   -3.7755   -7.8260 C   0  0  0  0  0  0  0  0  0  0  0  0
  -16.2728   -4.8384   -6.8611 O   0  0  0  0  0  0  0  0  0  0  0  0
  -15.7721   -2.4537   -7.2581 C   0  0  0  0  0  0  0  0  0  0  0  0
  -14.3799   -2.6106   -6.9501 O   0  0  0  0  0  0  0  0  0  0  0  0
  -17.4991   -5.4389   -9.0251 H   0  0  0  0  0  0  0  0  0  0  0  0
  -16.4672   -4.4640   -5.9774 H   0  0  0  0  0  0  0  0  0  0  0  0
  -13.8876   -2.7957   -7.7672 H   0  0  0  0  0  0  0  0  0  0  0  0
  -19.2627   -2.2051   -9.8130 C   0  0  0  0  0  0  0  0  0  0  0  0
  -20.2531   -2.5730   -8.8541 O   0  0  0  0  0  0  0  0  0  0  0  0
  -19.9959   -2.1645   -8.0065 H   0  0  0  0  0  0  0  0  0  0  0  0
 14 15  1  0
 14 16  1  0
  2  3  1  0
  2  9  1  0
  2 15  1  0
  3  4  1  0
  4  5  1  0
  4  6  1  0
  5 11  1  0
  6  7  1  0
  6  1  1  0
 17 18  1  0
 17 24  1  0
 17  1  1  0
 18 19  1  0
 19 20  1  0
 19 29  1  0
 29 30  1  0
 30 31  1  0
 20 21  1  0
 20 22  1  0
 21 26  1  0
 22 23  1  0
 22 24  1  0
 23 27  1  0
 24 25  1  0
 25 28  1  0
  7  8  1  0
  7  9  1  0
  8 12  1  0
  9 10  1  0
 10 13  1  0
M  END
> <minimizedAffinity>
-4.60169

> <CNNscore>
0.6225318313

> <CNNaffinity>
3.0035676956

> <CNN_VS>
1.8698165417

> <CNNaffinity_variance>
0.5670962930

$$$$



 31 32  0  0  0  0  0  0  0  0999 V2000
  -16.2095    1.4338   -7.3263 O   0  0  0  0  0  0  0  0  0  0  0  0
  -16.7862    5.2947   -8.8683 C   0  0  0  0  0  0  0  0  0  0  0  0
  -17.8711    4.3649   -8.9158 O   0  0  0  0  0  0  0  0  0  0  0  0
  -17.7190    3.2795   -8.0151 C   0  0  0  0  0  0  0  0  0  0  0  0
  -17.6711    3.7579   -6.6753 O   0  0  0  0  0  0  0  0  0  0  0  0
  -16.4666    2.4272   -8.3481 C   0  0  0  0  0  0  0  0  0  0  0  0
  -15.2335    3.3543   -8.4206 C   0  0  0  0  0  0  0  0  0  0  0  0
  -14.0943    2.6236   -8.9106 O   0  0  0  0  0  0  0  0  0  0  0  0
  -15.4835    4.6055   -9.2893 C   0  0  0  0  0  0  0  0  0  0  0  0
  -14.3759    5.5099   -9.1932 O   0  0  0  0  0  0  0  0  0  0  0  0
  -17.0357    3.1858   -6.2058 H   0  0  0  0  0  0  0  0  0  0  0  0
  -14.1113    2.6414   -9.8831 H   0  0  0  0  0  0  0  0  0  0  0  0
  -14.1464    5.6187   -8.2536 H   0  0  0  0  0  0  0  0  0  0  0  0
  -16.2926    7.6023   -9.5127 O   0  0  0  0  0  0  0  0  0  0  0  0
  -17.1437    6.4851   -9.7668 C   0  0  0  0  0  0  0  0  0  0  0  0
  -16.5204    8.2796  -10.1722 H   0  0  0  0  0  0  0  0  0  0  0  0
  -15.8663    0.1339   -7.8155 C   0  0  0  0  0  0  0  0  0  0  0  0
  -16.5784   -0.1046   -9.0206 O   0  0  0  0  0  0  0  0  0  0  0  0
  -16.3325   -1.3849   -9.5987 C   0  0  0  0  0  0  0  0  0  0  0  0
  -16.8612   -2.4763   -8.6657 C   0  0  0  0  0  0  0  0  0  0  0  0
  -16.6415   -3.7688   -9.2496 O   0  0  0  0  0  0  0  0  0  0  0  0
  -16.1573   -2.3476   -7.3035 C   0  0  0  0  0  0  0  0  0  0  0  0
  -16.7030   -3.3224   -6.4006 O   0  0  0  0  0  0  0  0  0  0  0  0
  -16.2684   -0.9164   -6.7435 C   0  0  0  0  0  0  0  0  0  0  0  0
  -15.4758   -0.8065   -5.5529 O   0  0  0  0  0  0  0  0  0  0  0  0
  -16.0234   -4.2635   -8.6808 H   0  0  0  0  0  0  0  0  0  0  0  0
  -17.4875   -2.9333   -5.9622 H   0  0  0  0  0  0  0  0  0  0  0  0
  -14.5408   -0.9531   -5.7731 H   0  0  0  0  0  0  0  0  0  0  0  0
  -17.0039   -1.4459  -10.9805 C   0  0  0  0  0  0  0  0  0  0  0  0
  -16.6804   -0.3126  -11.7847 O   0  0  0  0  0  0  0  0  0  0  0  0
  -15.7131   -0.1963  -11.7387 H   0  0  0  0  0  0  0  0  0  0  0  0
 14 15  1  0
 14 16  1  0
  2  3  1  0
  2  9  1  0
  2 15  1  0
  3  4  1  0
  4  5  1  0
  4  6  1  0
  5 11  1  0
  6  7  1  0
  6  1  1  0
 17 18  1  0
 17 24  1  0
 17  1  1  0
 18 19  1  0
 19 20  1  0
 19 29  1  0
 29 30  1  0
 30 31  1  0
 20 21  1  0
 20 22  1  0
 21 26  1  0
 22 23  1  0
 22 24  1  0
 23 27  1  0
 24 25  1  0
 25 28  1  0
  7  8  1  0
  7  9  1  0
  8 12  1  0
  9 10  1  0
 10 13  1  0
M  END
> <minimizedAffinity>
-4.98313

> <CNNscore>
0.5933545828

> <CNNaffinity>
2.9242095947

> <CNN_VS>
1.7350931168

> <CNNaffinity_variance>
0.4475780427

$$$$



 31 32  0  0  0  0  0  0  0  0999 V2000
  -15.4717   -0.3137   -6.1682 O   0  0  0  0  0  0  0  0  0  0  0  0
  -15.8491    3.1885   -8.4504 C   0  0  0  0  0  0  0  0  0  0  0  0
  -14.5399    2.7237   -8.1134 O   0  0  0  0  0  0  0  0  0  0  0  0
  -14.5111    1.3580   -7.7309 C   0  0  0  0  0  0  0  0  0  0  0  0
  -14.9528    0.5383   -8.8075 O   0  0  0  0  0  0  0  0  0  0  0  0
  -15.3517    1.1010   -6.4529 C   0  0  0  0  0  0  0  0  0  0  0  0
  -16.7760    1.6577   -6.6689 C   0  0  0  0  0  0  0  0  0  0  0  0
  -17.5198    1.6024   -5.4379 O   0  0  0  0  0  0  0  0  0  0  0  0
  -16.7711    3.0959   -7.2295 C   0  0  0  0  0  0  0  0  0  0  0  0
  -18.1026    3.5055   -7.5658 O   0  0  0  0  0  0  0  0  0  0  0  0
  -15.4542   -0.1938   -8.4027 H   0  0  0  0  0  0  0  0  0  0  0  0
  -17.3293    2.4073   -4.9258 H   0  0  0  0  0  0  0  0  0  0  0  0
  -18.5245    2.7942   -8.0789 H   0  0  0  0  0  0  0  0  0  0  0  0
  -16.2863    5.5672   -8.0838 O   0  0  0  0  0  0  0  0  0  0  0  0
  -15.7196    4.6191   -8.9877 C   0  0  0  0  0  0  0  0  0  0  0  0
  -16.0910    6.4477   -8.4475 H   0  0  0  0  0  0  0  0  0  0  0  0
  -16.0099   -1.1041   -7.2323 C   0  0  0  0  0  0  0  0  0  0  0  0
  -17.4237   -0.9736   -7.2299 O   0  0  0  0  0  0  0  0  0  0  0  0
  -18.0807   -1.7354   -8.2408 C   0  0  0  0  0  0  0  0  0  0  0  0
  -17.8731   -3.2272   -7.9716 C   0  0  0  0  0  0  0  0  0  0  0  0
  -18.5515   -4.0043   -8.9694 O   0  0  0  0  0  0  0  0  0  0  0  0
  -16.3632   -3.5232   -7.9590 C   0  0  0  0  0  0  0  0  0  0  0  0
  -16.1601   -4.9073   -7.6333 O   0  0  0  0  0  0  0  0  0  0  0  0
  -15.6123   -2.5868   -6.9926 C   0  0  0  0  0  0  0  0  0  0  0  0
  -14.1995   -2.7974   -7.1247 O   0  0  0  0  0  0  0  0  0  0  0  0
  -17.8858   -4.5021   -9.4784 H   0  0  0  0  0  0  0  0  0  0  0  0
  -16.1222   -4.9937   -6.6585 H   0  0  0  0  0  0  0  0  0  0  0  0
  -13.9206   -2.5591   -8.0246 H   0  0  0  0  0  0  0  0  0  0  0  0
  -19.5725   -1.3640   -8.2554 C   0  0  0  0  0  0  0  0  0  0  0  0
  -19.7777    0.0392   -8.0988 O   0  0  0  0  0  0  0  0  0  0  0  0
  -19.1773    0.4873   -8.7234 H   0  0  0  0  0  0  0  0  0  0  0  0
 14 15  1  0
 14 16  1  0
  2  3  1  0
  2  9  1  0
  2 15  1  0
  3  4  1  0
  4  5  1  0
  4  6  1  0
  5 11  1  0
  6  7  1  0
  6  1  1  0
 17 18  1  0
 17 24  1  0
 17  1  1  0
 18 19  1  0
 19 20  1  0
 19 29  1  0
 29 30  1  0
 30 31  1  0
 20 21  1  0
 20 22  1  0
 21 26  1  0
 22 23  1  0
 22 24  1  0
 23 27  1  0
 24 25  1  0
 25 28  1  0
  7  8  1  0
  7  9  1  0
  8 12  1  0
  9 10  1  0
 10 13  1  0
M  END
> <minimizedAffinity>
-5.60768

> <CNNscore>
0.5235291123

> <CNNaffinity>
2.5779726505

> <CNN_VS>
1.3496437073

> <CNNaffinity_variance>
0.8710899353

$$$$



 31 32  0  0  0  0  0  0  0  0999 V2000
  -15.4511   -0.2958   -8.7372 O   0  0  0  0  0  0  0  0  0  0  0  0
  -16.0803    3.8533   -8.6578 C   0  0  0  0  0  0  0  0  0  0  0  0
  -15.8932    3.1612   -7.4210 O   0  0  0  0  0  0  0  0  0  0  0  0
  -15.2805    1.8912   -7.5763 C   0  0  0  0  0  0  0  0  0  0  0  0
  -13.9830    2.0394   -8.1427 O   0  0  0  0  0  0  0  0  0  0  0  0
  -16.1538    0.9316   -8.4262 C   0  0  0  0  0  0  0  0  0  0  0  0
  -16.5036    1.6224   -9.7625 C   0  0  0  0  0  0  0  0  0  0  0  0
  -17.4641    0.8345  -10.4893 O   0  0  0  0  0  0  0  0  0  0  0  0
  -17.0271    3.0612   -9.5663 C   0  0  0  0  0  0  0  0  0  0  0  0
  -17.1809    3.7140  -10.8328 O   0  0  0  0  0  0  0  0  0  0  0  0
  -13.8570    1.2747   -8.7350 H   0  0  0  0  0  0  0  0  0  0  0  0
  -18.3555    1.0739  -10.1817 H   0  0  0  0  0  0  0  0  0  0  0  0
  -16.3739    3.5666  -11.3565 H   0  0  0  0  0  0  0  0  0  0  0  0
  -15.5983    6.2493   -8.5535 O   0  0  0  0  0  0  0  0  0  0  0  0
  -16.6036    5.2592   -8.3388 C   0  0  0  0  0  0  0  0  0  0  0  0
  -16.0254    7.1120   -8.4158 H   0  0  0  0  0  0  0  0  0  0  0  0
  -16.1147   -1.4958   -8.3294 C   0  0  0  0  0  0  0  0  0  0  0  0
  -16.8248   -1.2403   -7.1266 O   0  0  0  0  0  0  0  0  0  0  0  0
  -17.5168   -2.3738   -6.6068 C   0  0  0  0  0  0  0  0  0  0  0  0
  -16.5045   -3.4419   -6.1878 C   0  0  0  0  0  0  0  0  0  0  0  0
  -17.1893   -4.5778   -5.6396 O   0  0  0  0  0  0  0  0  0  0  0  0
  -15.6599   -3.8321   -7.4133 C   0  0  0  0  0  0  0  0  0  0  0  0
  -14.6591   -4.7801   -7.0095 O   0  0  0  0  0  0  0  0  0  0  0  0
  -15.0417   -2.5938   -8.0905 C   0  0  0  0  0  0  0  0  0  0  0  0
  -14.3908   -2.9891   -9.3061 O   0  0  0  0  0  0  0  0  0  0  0  0
  -17.0255   -5.3455   -6.2174 H   0  0  0  0  0  0  0  0  0  0  0  0
  -13.8715   -4.2864   -6.7013 H   0  0  0  0  0  0  0  0  0  0  0  0
  -15.0499   -3.3500   -9.9224 H   0  0  0  0  0  0  0  0  0  0  0  0
  -18.3908   -1.9257   -5.4240 C   0  0  0  0  0  0  0  0  0  0  0  0
  -17.6625   -1.9017   -4.1974 O   0  0  0  0  0  0  0  0  0  0  0  0
  -16.8282   -1.4266   -4.3697 H   0  0  0  0  0  0  0  0  0  0  0  0
 14 15  1  0
 14 16  1  0
  2  3  1  0
  2  9  1  0
  2 15  1  0
  3  4  1  0
  4  5  1  0
  4  6  1  0
  5 11  1  0
  6  7  1  0
  6  1  1  0
 17 18  1  0
 17 24  1  0
 17  1  1  0
 18 19  1  0
 19 20  1  0
 19 29  1  0
 29 30  1  0
 30 31  1  0
 20 21  1  0
 20 22  1  0
 21 26  1  0
 22 23  1  0
 22 24  1  0
 23 27  1  0
 24 25  1  0
 25 28  1  0
  7  8  1  0
  7  9  1  0
  8 12  1  0
  9 10  1  0
 10 13  1  0
M  END
> <minimizedAffinity>
-6.14526

> <CNNscore>
0.4830496609

> <CNNaffinity>
2.8324992657

> <CNN_VS>
1.3682378531

> <CNNaffinity_variance>
0.6452877522

$$$$



 31 32  0  0  0  0  0  0  0  0999 V2000
  -15.4353    2.4744   -7.2615 O   0  0  0  0  0  0  0  0  0  0  0  0
  -16.7316    3.8985  -10.9908 C   0  0  0  0  0  0  0  0  0  0  0  0
  -15.5058    4.3982  -10.4509 O   0  0  0  0  0  0  0  0  0  0  0  0
  -14.9601    3.5685   -9.4378 C   0  0  0  0  0  0  0  0  0  0  0  0
  -14.6595    2.2820   -9.9675 O   0  0  0  0  0  0  0  0  0  0  0  0
  -15.9048    3.4604   -8.2124 C   0  0  0  0  0  0  0  0  0  0  0  0
  -17.3034    3.0170   -8.6947 C   0  0  0  0  0  0  0  0  0  0  0  0
  -18.2460    3.0894   -7.6093 O   0  0  0  0  0  0  0  0  0  0  0  0
  -17.8047    3.8439   -9.8978 C   0  0  0  0  0  0  0  0  0  0  0  0
  -19.0243    3.2922  -10.4098 O   0  0  0  0  0  0  0  0  0  0  0  0
  -14.8585    1.6434   -9.2576 H   0  0  0  0  0  0  0  0  0  0  0  0
  -18.5961    3.9961   -7.5646 H   0  0  0  0  0  0  0  0  0  0  0  0
  -18.9122    2.3300  -10.5049 H   0  0  0  0  0  0  0  0  0  0  0  0
  -16.4693    4.4024  -13.3702 O   0  0  0  0  0  0  0  0  0  0  0  0
  -17.1308    4.7964  -12.1684 C   0  0  0  0  0  0  0  0  0  0  0  0
  -16.8344    4.9558  -14.0815 H   0  0  0  0  0  0  0  0  0  0  0  0
  -16.2856    1.3356   -7.0972 C   0  0  0  0  0  0  0  0  0  0  0  0
  -16.8342    1.3589   -5.7878 O   0  0  0  0  0  0  0  0  0  0  0  0
  -17.6904    0.2565   -5.4953 C   0  0  0  0  0  0  0  0  0  0  0  0
  -16.8758   -1.0387   -5.5035 C   0  0  0  0  0  0  0  0  0  0  0  0
  -17.7233   -2.1525   -5.1855 O   0  0  0  0  0  0  0  0  0  0  0  0
  -16.2238   -1.2054   -6.8872 C   0  0  0  0  0  0  0  0  0  0  0  0
  -15.3982   -2.3808   -6.8772 O   0  0  0  0  0  0  0  0  0  0  0  0
  -15.4318    0.0525   -7.2934 C   0  0  0  0  0  0  0  0  0  0  0  0
  -14.9694   -0.0896   -8.6438 O   0  0  0  0  0  0  0  0  0  0  0  0
  -17.7588   -2.7442   -5.9593 H   0  0  0  0  0  0  0  0  0  0  0  0
  -14.5075   -2.1308   -6.5562 H   0  0  0  0  0  0  0  0  0  0  0  0
  -15.7330   -0.1493   -9.2418 H   0  0  0  0  0  0  0  0  0  0  0  0
  -18.3633    0.4947   -4.1336 C   0  0  0  0  0  0  0  0  0  0  0  0
  -17.6633   -0.1479   -3.0694 O   0  0  0  0  0  0  0  0  0  0  0  0
  -16.7196    0.0769   -3.1713 H   0  0  0  0  0  0  0  0  0  0  0  0
 14 15  1  0
 14 16  1  0
  2  3  1  0
  2  9  1  0
  2 15  1  0
  3  4  1  0
  4  5  1  0
  4  6  1  0
  5 11  1  0
  6  7  1  0
  6  1  1  0
 17 18  1  0
 17 24  1  0
 17  1  1  0
 18 19  1  0
 19 20  1  0
 19 29  1  0
 29 30  1  0
 30 31  1  0
 20 21  1  0
 20 22  1  0
 21 26  1  0
 22 23  1  0
 22 24  1  0
 23 27  1  0
 24 25  1  0
 25 28  1  0
  7  8  1  0
  7  9  1  0
  8 12  1  0
  9 10  1  0
 10 13  1  0
M  END
> <minimizedAffinity>
-4.49227

> <CNNscore>
0.4414857924

> <CNNaffinity>
2.9639132023

> <CNN_VS>
1.3085255623

> <CNNaffinity_variance>
0.6271623373

$$$$



 31 32  0  0  0  0  0  0  0  0999 V2000
  -16.6102    1.3535   -9.2797 O   0  0  0  0  0  0  0  0  0  0  0  0
  -15.9127    5.0786  -11.0836 C   0  0  0  0  0  0  0  0  0  0  0  0
  -16.3176    3.9807  -11.9048 O   0  0  0  0  0  0  0  0  0  0  0  0
  -16.9235    2.9270  -11.1732 C   0  0  0  0  0  0  0  0  0  0  0  0
  -18.1054    3.3930  -10.5312 O   0  0  0  0  0  0  0  0  0  0  0  0
  -15.9423    2.3001  -10.1485 C   0  0  0  0  0  0  0  0  0  0  0  0
  -15.3606    3.4215   -9.2600 C   0  0  0  0  0  0  0  0  0  0  0  0
  -14.3101    2.8971   -8.4274 O   0  0  0  0  0  0  0  0  0  0  0  0
  -14.8457    4.6218  -10.0825 C   0  0  0  0  0  0  0  0  0  0  0  0
  -14.4696    5.6980   -9.2141 O   0  0  0  0  0  0  0  0  0  0  0  0
  -18.1480    2.9308   -9.6734 H   0  0  0  0  0  0  0  0  0  0  0  0
  -13.4771    2.9217   -8.9295 H   0  0  0  0  0  0  0  0  0  0  0  0
  -15.1815    5.8342   -8.5645 H   0  0  0  0  0  0  0  0  0  0  0  0
  -15.4862    5.8154  -13.3768 O   0  0  0  0  0  0  0  0  0  0  0  0
  -15.4191    6.2013  -12.0044 C   0  0  0  0  0  0  0  0  0  0  0  0
  -15.2423    6.5998  -13.8973 H   0  0  0  0  0  0  0  0  0  0  0  0
  -15.9616    0.0848   -9.1508 C   0  0  0  0  0  0  0  0  0  0  0  0
  -16.7542   -0.9022   -9.7939 O   0  0  0  0  0  0  0  0  0  0  0  0
  -16.2177   -2.2213   -9.7165 C   0  0  0  0  0  0  0  0  0  0  0  0
  -16.2092   -2.6842   -8.2582 C   0  0  0  0  0  0  0  0  0  0  0  0
  -15.6942   -4.0210   -8.1715 O   0  0  0  0  0  0  0  0  0  0  0  0
  -15.3630   -1.7008   -7.4310 C   0  0  0  0  0  0  0  0  0  0  0  0
  -15.4124   -2.0886   -6.0487 O   0  0  0  0  0  0  0  0  0  0  0  0
  -15.8245   -0.2454   -7.6388 C   0  0  0  0  0  0  0  0  0  0  0  0
  -14.9185    0.6431   -6.9699 O   0  0  0  0  0  0  0  0  0  0  0  0
  -14.8650   -3.9998   -7.6595 H   0  0  0  0  0  0  0  0  0  0  0  0
  -16.1939   -1.6663   -5.6365 H   0  0  0  0  0  0  0  0  0  0  0  0
  -14.0362    0.5654   -7.3698 H   0  0  0  0  0  0  0  0  0  0  0  0
  -17.0583   -3.1548  -10.6030 C   0  0  0  0  0  0  0  0  0  0  0  0
  -17.2340   -4.4415  -10.0122 O   0  0  0  0  0  0  0  0  0  0  0  0
  -17.5123   -4.2963   -9.0887 H   0  0  0  0  0  0  0  0  0  0  0  0
 14 15  1  0
 14 16  1  0
  2  3  1  0
  2  9  1  0
  2 15  1  0
  3  4  1  0
  4  5  1  0
  4  6  1  0
  5 11  1  0
  6  7  1  0
  6  1  1  0
 17 18  1  0
 17 24  1  0
 17  1  1  0
 18 19  1  0
 19 20  1  0
 19 29  1  0
 29 30  1  0
 30 31  1  0
 20 21  1  0
 20 22  1  0
 21 26  1  0
 22 23  1  0
 22 24  1  0
 23 27  1  0
 24 25  1  0
 25 28  1  0
  7  8  1  0
  7  9  1  0
  8 12  1  0
  9 10  1  0
 10 13  1  0
M  END
> <minimizedAffinity>
-4.88108

> <CNNscore>
0.4328075051

> <CNNaffinity>
3.5293176174

> <CNN_VS>
1.5275151730

> <CNNaffinity_variance>
0.3712711632

$$$$
