


 31 32  0  0  0  0  0  0  0  0999 V2000
   -0.9345  -16.6655    8.2517 O   0  0  0  0  0  0  0  0  0  0  0  0
   -0.2578  -12.9673   10.1176 C   0  0  0  0  0  0  0  0  0  0  0  0
   -1.3971  -13.7375   10.5080 O   0  0  0  0  0  0  0  0  0  0  0  0
   -1.2988  -15.1060   10.1477 C   0  0  0  0  0  0  0  0  0  0  0  0
   -0.1810  -15.7039   10.7952 O   0  0  0  0  0  0  0  0  0  0  0  0
   -1.2174  -15.2913    8.6099 C   0  0  0  0  0  0  0  0  0  0  0  0
   -0.0687  -14.4179    8.0594 C   0  0  0  0  0  0  0  0  0  0  0  0
   -0.0896  -14.4241    6.6202 O   0  0  0  0  0  0  0  0  0  0  0  0
   -0.1186  -12.9697    8.5912 C   0  0  0  0  0  0  0  0  0  0  0  0
    1.0516  -12.2482    8.1863 O   0  0  0  0  0  0  0  0  0  0  0  0
    0.1908  -16.3430   10.1589 H   0  0  0  0  0  0  0  0  0  0  0  0
   -0.7031  -13.7324    6.3175 H   0  0  0  0  0  0  0  0  0  0  0  0
    1.8331  -12.7982    8.3709 H   0  0  0  0  0  0  0  0  0  0  0  0
   -0.2502  -10.5590    9.6881 O   0  0  0  0  0  0  0  0  0  0  0  0
   -0.4203  -11.5559   10.6953 C   0  0  0  0  0  0  0  0  0  0  0  0
   -0.4513   -9.7049   10.1071 H   0  0  0  0  0  0  0  0  0  0  0  0
   -2.0798  -17.5182    8.1622 C   0  0  0  0  0  0  0  0  0  0  0  0
   -3.2035  -16.7372    7.7834 O   0  0  0  0  0  0  0  0  0  0  0  0
   -4.4183  -17.4771    7.6786 C   0  0  0  0  0  0  0  0  0  0  0  0
   -4.8157  -18.0039    9.0589 C   0  0  0  0  0  0  0  0  0  0  0  0
   -6.0509  -18.7293    8.9695 O   0  0  0  0  0  0  0  0  0  0  0  0
   -3.6799  -18.8919    9.5965 C   0  0  0  0  0  0  0  0  0  0  0  0
   -4.0152  -19.3292   10.9230 O   0  0  0  0  0  0  0  0  0  0  0  0
   -2.3241  -18.1608    9.5554 C   0  0  0  0  0  0  0  0  0  0  0  0
   -1.2788  -19.0719    9.9229 O   0  0  0  0  0  0  0  0  0  0  0  0
   -5.8798  -19.6602    9.2023 H   0  0  0  0  0  0  0  0  0  0  0  0
   -3.7044  -18.6531   11.5596 H   0  0  0  0  0  0  0  0  0  0  0  0
   -1.2333  -19.7907    9.2706 H   0  0  0  0  0  0  0  0  0  0  0  0
   -5.5063  -16.5683    7.0835 C   0  0  0  0  0  0  0  0  0  0  0  0
   -5.1759  -16.1263    5.7678 O   0  0  0  0  0  0  0  0  0  0  0  0
   -4.8955  -16.9131    5.2640 H   0  0  0  0  0  0  0  0  0  0  0  0
 14 15  1  0
 14 16  1  0
  2  3  1  0
  2  9  1  0
  2 15  1  0
  3  4  1  0
  4  5  1  0
  4  6  1  0
  5 11  1  0
  6  7  1  0
  6  1  1  0
 17 18  1  0
 17 24  1  0
 17  1  1  0
 18 19  1  0
 19 20  1  0
 19 29  1  0
 29 30  1  0
 30 31  1  0
 20 21  1  0
 20 22  1  0
 21 26  1  0
 22 23  1  0
 22 24  1  0
 23 27  1  0
 24 25  1  0
 25 28  1  0
  7  8  1  0
  7  9  1  0
  8 12  1  0
  9 10  1  0
 10 13  1  0
M  END
> <minimizedAffinity>
-5.01735

> <CNNscore>
0.9659200311

> <CNNaffinity>
3.0455310345

> <CNN_VS>
2.9417393208

> <CNNaffinity_variance>
0.7093184590

$$$$



 31 32  0  0  0  0  0  0  0  0999 V2000
   -0.9148  -16.0678    7.9611 O   0  0  0  0  0  0  0  0  0  0  0  0
   -0.3510  -12.7216   10.4313 C   0  0  0  0  0  0  0  0  0  0  0  0
   -1.5762  -13.4517   10.5295 O   0  0  0  0  0  0  0  0  0  0  0  0
   -1.4933  -14.7612    9.9903 C   0  0  0  0  0  0  0  0  0  0  0  0
   -0.5246  -15.5235   10.7021 O   0  0  0  0  0  0  0  0  0  0  0  0
   -1.1791  -14.7387    8.4715 C   0  0  0  0  0  0  0  0  0  0  0  0
    0.0860  -13.8854    8.2334 C   0  0  0  0  0  0  0  0  0  0  0  0
    0.2930  -13.6921    6.8222 O   0  0  0  0  0  0  0  0  0  0  0  0
    0.0277  -12.5244    8.9592 C   0  0  0  0  0  0  0  0  0  0  0  0
    1.2831  -11.8428    8.8443 O   0  0  0  0  0  0  0  0  0  0  0  0
   -0.0905  -16.0948   10.0413 H   0  0  0  0  0  0  0  0  0  0  0  0
   -0.2281  -12.9218    6.5365 H   0  0  0  0  0  0  0  0  0  0  0  0
    1.9959  -12.4693    9.0603 H   0  0  0  0  0  0  0  0  0  0  0  0
   -1.5427  -11.4946   12.1801 O   0  0  0  0  0  0  0  0  0  0  0  0
   -0.5295  -11.3950   11.1798 C   0  0  0  0  0  0  0  0  0  0  0  0
   -1.5377  -10.6513   12.6643 H   0  0  0  0  0  0  0  0  0  0  0  0
   -1.7343  -16.4697    6.8594 C   0  0  0  0  0  0  0  0  0  0  0  0
   -3.0430  -16.7425    7.3379 O   0  0  0  0  0  0  0  0  0  0  0  0
   -3.9540  -17.1736    6.3288 C   0  0  0  0  0  0  0  0  0  0  0  0
   -3.5011  -18.5268    5.7768 C   0  0  0  0  0  0  0  0  0  0  0  0
   -4.4251  -18.9824    4.7775 O   0  0  0  0  0  0  0  0  0  0  0  0
   -2.0810  -18.3781    5.2034 C   0  0  0  0  0  0  0  0  0  0  0  0
   -1.6219  -19.6618    4.7509 O   0  0  0  0  0  0  0  0  0  0  0  0
   -1.1197  -17.7512    6.2316 C   0  0  0  0  0  0  0  0  0  0  0  0
    0.1464  -17.4955    5.6078 O   0  0  0  0  0  0  0  0  0  0  0  0
   -3.9583  -19.0272    3.9230 H   0  0  0  0  0  0  0  0  0  0  0  0
   -1.2021  -20.1240    5.5053 H   0  0  0  0  0  0  0  0  0  0  0  0
    0.0297  -16.8450    4.8954 H   0  0  0  0  0  0  0  0  0  0  0  0
   -5.3663  -17.2508    6.9314 C   0  0  0  0  0  0  0  0  0  0  0  0
   -6.1166  -16.0606    6.6946 O   0  0  0  0  0  0  0  0  0  0  0  0
   -6.0224  -15.8472    5.7474 H   0  0  0  0  0  0  0  0  0  0  0  0
 14 15  1  0
 14 16  1  0
  2  3  1  0
  2  9  1  0
  2 15  1  0
  3  4  1  0
  4  5  1  0
  4  6  1  0
  5 11  1  0
  6  7  1  0
  6  1  1  0
 17 18  1  0
 17 24  1  0
 17  1  1  0
 18 19  1  0
 19 20  1  0
 19 29  1  0
 29 30  1  0
 30 31  1  0
 20 21  1  0
 20 22  1  0
 21 26  1  0
 22 23  1  0
 22 24  1  0
 23 27  1  0
 24 25  1  0
 25 28  1  0
  7  8  1  0
  7  9  1  0
  8 12  1  0
  9 10  1  0
 10 13  1  0
M  END
> <minimizedAffinity>
-5.11771

> <CNNscore>
0.9597171545

> <CNNaffinity>
2.9290874004

> <CNN_VS>
2.8110954762

> <CNNaffinity_variance>
0.6737772822

$$$$



 31 32  0  0  0  0  0  0  0  0999 V2000
    0.1635  -15.1686    7.9754 O   0  0  0  0  0  0  0  0  0  0  0  0
   -0.3441  -12.2878   10.9854 C   0  0  0  0  0  0  0  0  0  0  0  0
   -1.3038  -13.3412   10.8713 O   0  0  0  0  0  0  0  0  0  0  0  0
   -0.8264  -14.4573   10.1373 C   0  0  0  0  0  0  0  0  0  0  0  0
    0.3037  -15.0257   10.7899 O   0  0  0  0  0  0  0  0  0  0  0  0
   -0.4922  -14.0804    8.6703 C   0  0  0  0  0  0  0  0  0  0  0  0
    0.4732  -12.8749    8.6695 C   0  0  0  0  0  0  0  0  0  0  0  0
    0.6521  -12.3863    7.3275 O   0  0  0  0  0  0  0  0  0  0  0  0
   -0.0006  -11.7360    9.5973 C   0  0  0  0  0  0  0  0  0  0  0  0
    1.0026  -10.7166    9.6895 O   0  0  0  0  0  0  0  0  0  0  0  0
    0.9037  -15.3249   10.0814 H   0  0  0  0  0  0  0  0  0  0  0  0
   -0.0640  -11.7581    7.1298 H   0  0  0  0  0  0  0  0  0  0  0  0
    1.8617  -11.1426    9.8563 H   0  0  0  0  0  0  0  0  0  0  0  0
    0.1108  -10.4604   12.5467 O   0  0  0  0  0  0  0  0  0  0  0  0
   -0.9233  -11.2193   11.9208 C   0  0  0  0  0  0  0  0  0  0  0  0
   -0.3297   -9.7551   13.0508 H   0  0  0  0  0  0  0  0  0  0  0  0
   -0.6844  -16.2683    7.6313 C   0  0  0  0  0  0  0  0  0  0  0  0
   -0.1877  -17.4425    8.2562 O   0  0  0  0  0  0  0  0  0  0  0  0
   -0.9433  -18.6180    7.9713 C   0  0  0  0  0  0  0  0  0  0  0  0
   -0.8313  -18.9482    6.4816 C   0  0  0  0  0  0  0  0  0  0  0  0
   -1.5680  -20.1445    6.1881 O   0  0  0  0  0  0  0  0  0  0  0  0
   -1.3548  -17.7517    5.6680 C   0  0  0  0  0  0  0  0  0  0  0  0
   -1.1834  -18.0263    4.2685 O   0  0  0  0  0  0  0  0  0  0  0  0
   -0.6654  -16.4390    6.0871 C   0  0  0  0  0  0  0  0  0  0  0  0
   -1.2870  -15.3364    5.4122 O   0  0  0  0  0  0  0  0  0  0  0  0
   -2.2980  -19.9171    5.5836 H   0  0  0  0  0  0  0  0  0  0  0  0
   -0.2869  -17.7349    4.0034 H   0  0  0  0  0  0  0  0  0  0  0  0
   -2.2158  -15.2702    5.6901 H   0  0  0  0  0  0  0  0  0  0  0  0
   -0.4245  -19.7696    8.8480 C   0  0  0  0  0  0  0  0  0  0  0  0
    0.9339  -19.5762    9.2392 O   0  0  0  0  0  0  0  0  0  0  0  0
    1.0078  -18.6628    9.5736 H   0  0  0  0  0  0  0  0  0  0  0  0
 14 15  1  0
 14 16  1  0
  2  3  1  0
  2  9  1  0
  2 15  1  0
  3  4  1  0
  4  5  1  0
  4  6  1  0
  5 11  1  0
  6  7  1  0
  6  1  1  0
 17 18  1  0
 17 24  1  0
 17  1  1  0
 18 19  1  0
 19 20  1  0
 19 29  1  0
 29 30  1  0
 30 31  1  0
 20 21  1  0
 20 22  1  0
 21 26  1  0
 22 23  1  0
 22 24  1  0
 23 27  1  0
 24 25  1  0
 25 28  1  0
  7  8  1  0
  7  9  1  0
  8 12  1  0
  9 10  1  0
 10 13  1  0
M  END
> <minimizedAffinity>
-4.32120

> <CNNscore>
0.9539954662

> <CNNaffinity>
3.3576862812

> <CNN_VS>
3.2032175064

> <CNNaffinity_variance>
0.2865709364

$$$$



 31 32  0  0  0  0  0  0  0  0999 V2000
   -2.9215  -15.5159   10.1696 O   0  0  0  0  0  0  0  0  0  0  0  0
   -1.8688  -19.1110   12.0626 C   0  0  0  0  0  0  0  0  0  0  0  0
   -3.1796  -18.9835   11.5066 O   0  0  0  0  0  0  0  0  0  0  0  0
   -3.2836  -17.9416   10.5495 C   0  0  0  0  0  0  0  0  0  0  0  0
   -2.4151  -18.1971    9.4510 O   0  0  0  0  0  0  0  0  0  0  0  0
   -2.9950  -16.5530   11.1775 C   0  0  0  0  0  0  0  0  0  0  0  0
   -1.6303  -16.6025   11.8989 C   0  0  0  0  0  0  0  0  0  0  0  0
   -1.4230  -15.3905   12.6471 O   0  0  0  0  0  0  0  0  0  0  0  0
   -1.4917  -17.8331   12.8203 C   0  0  0  0  0  0  0  0  0  0  0  0
   -0.1578  -17.9231   13.3365 O   0  0  0  0  0  0  0  0  0  0  0  0
   -2.0735  -17.3284    9.1680 H   0  0  0  0  0  0  0  0  0  0  0  0
   -1.8398  -15.4918   13.5203 H   0  0  0  0  0  0  0  0  0  0  0  0
    0.4673  -17.8050   12.5998 H   0  0  0  0  0  0  0  0  0  0  0  0
   -1.6896  -20.0074   14.3316 O   0  0  0  0  0  0  0  0  0  0  0  0
   -1.8535  -20.3565   12.9574 C   0  0  0  0  0  0  0  0  0  0  0  0
   -1.7759  -20.8324   14.8391 H   0  0  0  0  0  0  0  0  0  0  0  0
   -1.6208  -14.9548    9.9689 C   0  0  0  0  0  0  0  0  0  0  0  0
   -1.6173  -13.6212   10.4563 O   0  0  0  0  0  0  0  0  0  0  0  0
   -0.3721  -12.9451   10.2940 C   0  0  0  0  0  0  0  0  0  0  0  0
   -0.0788  -12.7667    8.8030 C   0  0  0  0  0  0  0  0  0  0  0  0
    1.1608  -12.0646    8.6280 O   0  0  0  0  0  0  0  0  0  0  0  0
   -0.0388  -14.1528    8.1363 C   0  0  0  0  0  0  0  0  0  0  0  0
    0.1625  -13.9874    6.7237 O   0  0  0  0  0  0  0  0  0  0  0  0
   -1.3107  -14.9655    8.4465 C   0  0  0  0  0  0  0  0  0  0  0  0
   -1.1642  -16.2966    7.9325 O   0  0  0  0  0  0  0  0  0  0  0  0
    1.7918  -12.6588    8.1823 H   0  0  0  0  0  0  0  0  0  0  0  0
   -0.7120  -13.8760    6.2973 H   0  0  0  0  0  0  0  0  0  0  0  0
   -0.4275  -16.7386    8.3866 H   0  0  0  0  0  0  0  0  0  0  0  0
   -0.4388  -11.5940   11.0246 C   0  0  0  0  0  0  0  0  0  0  0  0
   -1.4111  -11.5959   12.0687 O   0  0  0  0  0  0  0  0  0  0  0  0
   -1.2656  -12.4054   12.5932 H   0  0  0  0  0  0  0  0  0  0  0  0
 14 15  1  0
 14 16  1  0
  2  3  1  0
  2  9  1  0
  2 15  1  0
  3  4  1  0
  4  5  1  0
  4  6  1  0
  5 11  1  0
  6  7  1  0
  6  1  1  0
 17 18  1  0
 17 24  1  0
 17  1  1  0
 18 19  1  0
 19 20  1  0
 19 29  1  0
 29 30  1  0
 30 31  1  0
 20 21  1  0
 20 22  1  0
 21 26  1  0
 22 23  1  0
 22 24  1  0
 23 27  1  0
 24 25  1  0
 25 28  1  0
  7  8  1  0
  7  9  1  0
  8 12  1  0
  9 10  1  0
 10 13  1  0
M  END
> <minimizedAffinity>
-3.95628

> <CNNscore>
0.9470538497

> <CNNaffinity>
3.5365102291

> <CNN_VS>
3.3492655754

> <CNNaffinity_variance>
0.0892815813

$$$$



 31 32  0  0  0  0  0  0  0  0999 V2000
   -1.3096  -16.6472    8.0152 O   0  0  0  0  0  0  0  0  0  0  0  0
   -0.2974  -13.0591    9.9434 C   0  0  0  0  0  0  0  0  0  0  0  0
   -1.5219  -13.7081   10.2945 O   0  0  0  0  0  0  0  0  0  0  0  0
   -1.5588  -15.0759    9.9201 C   0  0  0  0  0  0  0  0  0  0  0  0
   -0.5284  -15.7948   10.5891 O   0  0  0  0  0  0  0  0  0  0  0  0
   -1.4555  -15.2542    8.3827 C   0  0  0  0  0  0  0  0  0  0  0  0
   -0.2065  -14.5021    7.8732 C   0  0  0  0  0  0  0  0  0  0  0  0
   -0.1887  -14.4924    6.4340 O   0  0  0  0  0  0  0  0  0  0  0  0
   -0.1178  -13.0618    8.4213 C   0  0  0  0  0  0  0  0  0  0  0  0
    1.1326  -12.4644    8.0559 O   0  0  0  0  0  0  0  0  0  0  0  0
   -0.2089  -16.4636    9.9550 H   0  0  0  0  0  0  0  0  0  0  0  0
   -0.7173  -13.7368    6.1239 H   0  0  0  0  0  0  0  0  0  0  0  0
    1.8464  -13.0958    8.2540 H   0  0  0  0  0  0  0  0  0  0  0  0
   -0.1020  -10.6563    9.5283 O   0  0  0  0  0  0  0  0  0  0  0  0
   -0.3258  -11.6440   10.5340 C   0  0  0  0  0  0  0  0  0  0  0  0
   -0.2196   -9.7920    9.9580 H   0  0  0  0  0  0  0  0  0  0  0  0
   -2.3791  -17.1840    7.2311 C   0  0  0  0  0  0  0  0  0  0  0  0
   -2.4263  -16.4967    5.9896 O   0  0  0  0  0  0  0  0  0  0  0  0
   -3.4708  -16.9326    5.1219 C   0  0  0  0  0  0  0  0  0  0  0  0
   -4.8267  -16.6021    5.7492 C   0  0  0  0  0  0  0  0  0  0  0  0
   -5.8857  -17.0140    4.8724 O   0  0  0  0  0  0  0  0  0  0  0  0
   -4.9242  -17.3018    7.1161 C   0  0  0  0  0  0  0  0  0  0  0  0
   -6.1638  -16.9353    7.7423 O   0  0  0  0  0  0  0  0  0  0  0  0
   -3.7094  -16.9745    8.0058 C   0  0  0  0  0  0  0  0  0  0  0  0
   -3.7688  -17.7615    9.2037 O   0  0  0  0  0  0  0  0  0  0  0  0
   -6.3994  -17.7135    5.3162 H   0  0  0  0  0  0  0  0  0  0  0  0
   -6.0235  -16.1071    8.2457 H   0  0  0  0  0  0  0  0  0  0  0  0
   -3.7066  -18.7037    8.9741 H   0  0  0  0  0  0  0  0  0  0  0  0
   -3.2986  -16.2538    3.7532 C   0  0  0  0  0  0  0  0  0  0  0  0
   -4.3209  -15.2915    3.4990 O   0  0  0  0  0  0  0  0  0  0  0  0
   -4.3900  -14.7311    4.2944 H   0  0  0  0  0  0  0  0  0  0  0  0
 14 15  1  0
 14 16  1  0
  2  3  1  0
  2  9  1  0
  2 15  1  0
  3  4  1  0
  4  5  1  0
  4  6  1  0
  5 11  1  0
  6  7  1  0
  6  1  1  0
 17 18  1  0
 17 24  1  0
 17  1  1  0
 18 19  1  0
 19 20  1  0
 19 29  1  0
 29 30  1  0
 30 31  1  0
 20 21  1  0
 20 22  1  0
 21 26  1  0
 22 23  1  0
 22 24  1  0
 23 27  1  0
 24 25  1  0
 25 28  1  0
  7  8  1  0
  7  9  1  0
  8 12  1  0
  9 10  1  0
 10 13  1  0
M  END
> <minimizedAffinity>
-5.77085

> <CNNscore>
0.9456062913

> <CNNaffinity>
3.0880229473

> <CNN_VS>
2.9200539589

> <CNNaffinity_variance>
0.7018659711

$$$$



 31 32  0  0  0  0  0  0  0  0999 V2000
   -1.4528  -14.0620   12.0403 O   0  0  0  0  0  0  0  0  0  0  0  0
   -4.8315  -14.9990   14.3475 C   0  0  0  0  0  0  0  0  0  0  0  0
   -5.0110  -14.6536   12.9719 O   0  0  0  0  0  0  0  0  0  0  0  0
   -3.8244  -14.7750   12.2040 C   0  0  0  0  0  0  0  0  0  0  0  0
   -3.3708  -16.1242   12.2134 O   0  0  0  0  0  0  0  0  0  0  0  0
   -2.7162  -13.8106   12.7017 C   0  0  0  0  0  0  0  0  0  0  0  0
   -2.5038  -14.0292   14.2158 C   0  0  0  0  0  0  0  0  0  0  0  0
   -1.6187  -13.0228   14.7407 O   0  0  0  0  0  0  0  0  0  0  0  0
   -3.8307  -14.0418   15.0043 C   0  0  0  0  0  0  0  0  0  0  0  0
   -3.5970  -14.4093   16.3697 O   0  0  0  0  0  0  0  0  0  0  0  0
   -2.3964  -16.0825   12.2274 H   0  0  0  0  0  0  0  0  0  0  0  0
   -2.1457  -12.2383   14.9716 H   0  0  0  0  0  0  0  0  0  0  0  0
   -3.0250  -15.1967   16.3843 H   0  0  0  0  0  0  0  0  0  0  0  0
   -6.8354  -13.7006   14.8792 O   0  0  0  0  0  0  0  0  0  0  0  0
   -6.2072  -14.9739   15.0249 C   0  0  0  0  0  0  0  0  0  0  0  0
   -7.7284  -13.7879   15.2541 H   0  0  0  0  0  0  0  0  0  0  0  0
   -1.4487  -13.8279   10.6290 C   0  0  0  0  0  0  0  0  0  0  0  0
   -1.2819  -15.0689    9.9595 O   0  0  0  0  0  0  0  0  0  0  0  0
   -1.2427  -14.9630    8.5378 C   0  0  0  0  0  0  0  0  0  0  0  0
    0.0010  -14.1766    8.1186 C   0  0  0  0  0  0  0  0  0  0  0  0
    0.0638  -14.0855    6.6876 O   0  0  0  0  0  0  0  0  0  0  0  0
   -0.0511  -12.7831    8.7690 C   0  0  0  0  0  0  0  0  0  0  0  0
    1.1497  -12.0672    8.4390 O   0  0  0  0  0  0  0  0  0  0  0  0
   -0.2660  -12.8785   10.2918 C   0  0  0  0  0  0  0  0  0  0  0  0
   -0.4565  -11.5628   10.8306 O   0  0  0  0  0  0  0  0  0  0  0  0
   -0.0166  -13.1477    6.4342 H   0  0  0  0  0  0  0  0  0  0  0  0
    1.8330  -12.2848    9.1059 H   0  0  0  0  0  0  0  0  0  0  0  0
   -1.2635  -11.1737   10.4542 H   0  0  0  0  0  0  0  0  0  0  0  0
   -1.2514  -16.3759    7.9316 C   0  0  0  0  0  0  0  0  0  0  0  0
   -1.9525  -17.3080    8.7533 O   0  0  0  0  0  0  0  0  0  0  0  0
   -2.8036  -16.8953    8.9915 H   0  0  0  0  0  0  0  0  0  0  0  0
 14 15  1  0
 14 16  1  0
  2  3  1  0
  2  9  1  0
  2 15  1  0
  3  4  1  0
  4  5  1  0
  4  6  1  0
  5 11  1  0
  6  7  1  0
  6  1  1  0
 17 18  1  0
 17 24  1  0
 17  1  1  0
 18 19  1  0
 19 20  1  0
 19 29  1  0
 29 30  1  0
 30 31  1  0
 20 21  1  0
 20 22  1  0
 21 26  1  0
 22 23  1  0
 22 24  1  0
 23 27  1  0
 24 25  1  0
 25 28  1  0
  7  8  1  0
  7  9  1  0
  8 12  1  0
  9 10  1  0
 10 13  1  0
M  END
> <minimizedAffinity>
-3.85699

> <CNNscore>
0.9442476630

> <CNNaffinity>
3.2456312180

> <CNN_VS>
3.0646796227

> <CNNaffinity_variance>
0.4532791078

$$$$



 31 32  0  0  0  0  0  0  0  0999 V2000
    0.3516  -12.5619   11.2160 O   0  0  0  0  0  0  0  0  0  0  0  0
   -0.8906  -10.0002   14.3000 C   0  0  0  0  0  0  0  0  0  0  0  0
   -1.7542  -10.1964   13.1778 O   0  0  0  0  0  0  0  0  0  0  0  0
   -1.4497  -11.3652   12.4337 C   0  0  0  0  0  0  0  0  0  0  0  0
   -1.6016  -12.5201   13.2519 O   0  0  0  0  0  0  0  0  0  0  0  0
   -0.0273  -11.3008   11.8184 C   0  0  0  0  0  0  0  0  0  0  0  0
    0.9904  -10.9922   12.9384 C   0  0  0  0  0  0  0  0  0  0  0  0
    2.2890  -10.7416   12.3704 O   0  0  0  0  0  0  0  0  0  0  0  0
    0.5539   -9.8067   13.8252 C   0  0  0  0  0  0  0  0  0  0  0  0
    1.4412   -9.6646   14.9416 O   0  0  0  0  0  0  0  0  0  0  0  0
   -0.8989  -13.1394   12.9796 H   0  0  0  0  0  0  0  0  0  0  0  0
    2.3414   -9.8022   12.1230 H   0  0  0  0  0  0  0  0  0  0  0  0
    1.5725  -10.5404   15.3455 H   0  0  0  0  0  0  0  0  0  0  0  0
   -2.4168   -8.0897   14.3692 O   0  0  0  0  0  0  0  0  0  0  0  0
   -1.4172   -8.8013   15.0984 C   0  0  0  0  0  0  0  0  0  0  0  0
   -2.7603   -7.4041   14.9671 H   0  0  0  0  0  0  0  0  0  0  0  0
   -0.5457  -13.0509   10.2147 C   0  0  0  0  0  0  0  0  0  0  0  0
   -1.1166  -14.2696   10.6673 O   0  0  0  0  0  0  0  0  0  0  0  0
   -2.0207  -14.8686    9.7411 C   0  0  0  0  0  0  0  0  0  0  0  0
   -1.2577  -15.2925    8.4845 C   0  0  0  0  0  0  0  0  0  0  0  0
   -2.1540  -15.9196    7.5553 O   0  0  0  0  0  0  0  0  0  0  0  0
   -0.5878  -14.0515    7.8692 C   0  0  0  0  0  0  0  0  0  0  0  0
    0.1906  -14.4552    6.7315 O   0  0  0  0  0  0  0  0  0  0  0  0
    0.2603  -13.2938    8.9089 C   0  0  0  0  0  0  0  0  0  0  0  0
    0.7412  -12.0710    8.3334 O   0  0  0  0  0  0  0  0  0  0  0  0
   -2.1987  -15.3706    6.7511 H   0  0  0  0  0  0  0  0  0  0  0  0
    1.0845  -14.7075    7.0417 H   0  0  0  0  0  0  0  0  0  0  0  0
   -0.0133  -11.4998    8.1123 H   0  0  0  0  0  0  0  0  0  0  0  0
   -2.7083  -16.0656   10.4180 C   0  0  0  0  0  0  0  0  0  0  0  0
   -3.9634  -16.3753    9.8142 O   0  0  0  0  0  0  0  0  0  0  0  0
   -3.8178  -16.4024    8.8501 H   0  0  0  0  0  0  0  0  0  0  0  0
 14 15  1  0
 14 16  1  0
  2  3  1  0
  2  9  1  0
  2 15  1  0
  3  4  1  0
  4  5  1  0
  4  6  1  0
  5 11  1  0
  6  7  1  0
  6  1  1  0
 17 18  1  0
 17 24  1  0
 17  1  1  0
 18 19  1  0
 19 20  1  0
 19 29  1  0
 29 30  1  0
 30 31  1  0
 20 21  1  0
 20 22  1  0
 21 26  1  0
 22 23  1  0
 22 24  1  0
 23 27  1  0
 24 25  1  0
 25 28  1  0
  7  8  1  0
  7  9  1  0
  8 12  1  0
  9 10  1  0
 10 13  1  0
M  END
> <minimizedAffinity>
-5.30057

> <CNNscore>
0.9332341552

> <CNNaffinity>
2.8996913433

> <CNN_VS>
2.7060909271

> <CNNaffinity_variance>
0.5640982389

$$$$



 31 32  0  0  0  0  0  0  0  0999 V2000
   -1.2135  -16.5306    8.1339 O   0  0  0  0  0  0  0  0  0  0  0  0
   -0.2502  -12.9052   10.0167 C   0  0  0  0  0  0  0  0  0  0  0  0
   -1.4706  -13.5612   10.3689 O   0  0  0  0  0  0  0  0  0  0  0  0
   -1.4914  -14.9346   10.0141 C   0  0  0  0  0  0  0  0  0  0  0  0
   -0.4585  -15.6334   10.7004 O   0  0  0  0  0  0  0  0  0  0  0  0
   -1.3758  -15.1339    8.4802 C   0  0  0  0  0  0  0  0  0  0  0  0
   -0.1308  -14.3768    7.9682 C   0  0  0  0  0  0  0  0  0  0  0  0
   -0.1032  -14.3877    6.5292 O   0  0  0  0  0  0  0  0  0  0  0  0
   -0.0601  -12.9280    8.4960 C   0  0  0  0  0  0  0  0  0  0  0  0
    1.1868  -12.3234    8.1305 O   0  0  0  0  0  0  0  0  0  0  0  0
   -0.1281  -16.3080   10.0781 H   0  0  0  0  0  0  0  0  0  0  0  0
   -0.6371  -13.6420    6.2047 H   0  0  0  0  0  0  0  0  0  0  0  0
    1.9054  -12.9447    8.3425 H   0  0  0  0  0  0  0  0  0  0  0  0
    0.9162  -10.7769   10.3236 O   0  0  0  0  0  0  0  0  0  0  0  0
   -0.2966  -11.4820   10.5866 C   0  0  0  0  0  0  0  0  0  0  0  0
    0.7798   -9.8657   10.6346 H   0  0  0  0  0  0  0  0  0  0  0  0
    0.0572  -16.8738    7.5733 C   0  0  0  0  0  0  0  0  0  0  0  0
   -0.1267  -17.2449    6.2151 O   0  0  0  0  0  0  0  0  0  0  0  0
    1.0741  -17.6293    5.5486 C   0  0  0  0  0  0  0  0  0  0  0  0
    1.6228  -18.9089    6.1830 C   0  0  0  0  0  0  0  0  0  0  0  0
    2.8185  -19.3190    5.5033 O   0  0  0  0  0  0  0  0  0  0  0  0
    1.8862  -18.6482    7.6764 C   0  0  0  0  0  0  0  0  0  0  0  0
    2.3313  -19.8668    8.2930 O   0  0  0  0  0  0  0  0  0  0  0  0
    0.6421  -18.0683    8.3764 C   0  0  0  0  0  0  0  0  0  0  0  0
    0.9777  -17.7038    9.7226 O   0  0  0  0  0  0  0  0  0  0  0  0
    3.5627  -19.2700    6.1309 H   0  0  0  0  0  0  0  0  0  0  0  0
    1.5444  -20.3721    8.5836 H   0  0  0  0  0  0  0  0  0  0  0  0
    1.6487  -17.0011    9.7088 H   0  0  0  0  0  0  0  0  0  0  0  0
    0.7752  -17.8209    4.0527 C   0  0  0  0  0  0  0  0  0  0  0  0
    1.9396  -17.6482    3.2464 O   0  0  0  0  0  0  0  0  0  0  0  0
    2.6504  -18.1777    3.6537 H   0  0  0  0  0  0  0  0  0  0  0  0
 14 15  1  0
 14 16  1  0
  2  3  1  0
  2  9  1  0
  2 15  1  0
  3  4  1  0
  4  5  1  0
  4  6  1  0
  5 11  1  0
  6  7  1  0
  6  1  1  0
 17 18  1  0
 17 24  1  0
 17  1  1  0
 18 19  1  0
 19 20  1  0
 19 29  1  0
 29 30  1  0
 30 31  1  0
 20 21  1  0
 20 22  1  0
 21 26  1  0
 22 23  1  0
 22 24  1  0
 23 27  1  0
 24 25  1  0
 25 28  1  0
  7  8  1  0
  7  9  1  0
  8 12  1  0
  9 10  1  0
 10 13  1  0
M  END
> <minimizedAffinity>
-4.61790

> <CNNscore>
0.9281994700

> <CNNaffinity>
2.9241549969

> <CNN_VS>
2.7141990662

> <CNNaffinity_variance>
0.6263108850

$$$$



 31 32  0  0  0  0  0  0  0  0999 V2000
   -0.8862  -16.0286    7.8293 O   0  0  0  0  0  0  0  0  0  0  0  0
   -0.4063  -12.7773   10.4400 C   0  0  0  0  0  0  0  0  0  0  0  0
   -1.6351  -13.5074   10.4678 O   0  0  0  0  0  0  0  0  0  0  0  0
   -1.5347  -14.7963    9.8837 C   0  0  0  0  0  0  0  0  0  0  0  0
   -0.5928  -15.5869   10.6007 O   0  0  0  0  0  0  0  0  0  0  0  0
   -1.1669  -14.7186    8.3789 C   0  0  0  0  0  0  0  0  0  0  0  0
    0.1069  -13.8602    8.2174 C   0  0  0  0  0  0  0  0  0  0  0  0
    0.3640  -13.6155    6.8225 O   0  0  0  0  0  0  0  0  0  0  0  0
    0.0246  -12.5269    8.9906 C   0  0  0  0  0  0  0  0  0  0  0  0
    1.2841  -11.8446    8.9454 O   0  0  0  0  0  0  0  0  0  0  0  0
   -0.1362  -16.1344    9.9350 H   0  0  0  0  0  0  0  0  0  0  0  0
   -0.1457  -12.8339    6.5473 H   0  0  0  0  0  0  0  0  0  0  0  0
    1.9881  -12.4805    9.1632 H   0  0  0  0  0  0  0  0  0  0  0  0
    0.6371  -10.8510   11.5284 O   0  0  0  0  0  0  0  0  0  0  0  0
   -0.6096  -11.4788   11.2303 C   0  0  0  0  0  0  0  0  0  0  0  0
    0.4252  -10.0004   11.9493 H   0  0  0  0  0  0  0  0  0  0  0  0
   -1.1223  -16.1614    6.4245 C   0  0  0  0  0  0  0  0  0  0  0  0
   -2.4271  -16.6853    6.2270 O   0  0  0  0  0  0  0  0  0  0  0  0
   -2.7747  -16.8819    4.8579 C   0  0  0  0  0  0  0  0  0  0  0  0
   -1.8758  -17.9623    4.2532 C   0  0  0  0  0  0  0  0  0  0  0  0
   -2.2338  -18.1863    2.8815 O   0  0  0  0  0  0  0  0  0  0  0  0
   -0.4087  -17.5178    4.3860 C   0  0  0  0  0  0  0  0  0  0  0  0
    0.4436  -18.5610    3.8872 O   0  0  0  0  0  0  0  0  0  0  0  0
   -0.0637  -17.1360    5.8384 C   0  0  0  0  0  0  0  0  0  0  0  0
    1.2617  -16.5894    5.8866 O   0  0  0  0  0  0  0  0  0  0  0  0
   -1.4787  -17.9321    2.3199 H   0  0  0  0  0  0  0  0  0  0  0  0
    0.6308  -19.1842    4.6189 H   0  0  0  0  0  0  0  0  0  0  0  0
    1.2925  -15.7712    5.3633 H   0  0  0  0  0  0  0  0  0  0  0  0
   -4.2608  -17.2663    4.7705 C   0  0  0  0  0  0  0  0  0  0  0  0
   -5.1162  -16.1290    4.8730 O   0  0  0  0  0  0  0  0  0  0  0  0
   -4.7699  -15.4547    4.2591 H   0  0  0  0  0  0  0  0  0  0  0  0
 14 15  1  0
 14 16  1  0
  2  3  1  0
  2  9  1  0
  2 15  1  0
  3  4  1  0
  4  5  1  0
  4  6  1  0
  5 11  1  0
  6  7  1  0
  6  1  1  0
 17 18  1  0
 17 24  1  0
 17  1  1  0
 18 19  1  0
 19 20  1  0
 19 29  1  0
 29 30  1  0
 30 31  1  0
 20 21  1  0
 20 22  1  0
 21 26  1  0
 22 23  1  0
 22 24  1  0
 23 27  1  0
 24 25  1  0
 25 28  1  0
  7  8  1  0
  7  9  1  0
  8 12  1  0
  9 10  1  0
 10 13  1  0
M  END
> <minimizedAffinity>
-5.86954

> <CNNscore>
0.9145579934

> <CNNaffinity>
2.8745632172

> <CNN_VS>
2.6289546490

> <CNNaffinity_variance>
0.7482323647

$$$$



 31 32  0  0  0  0  0  0  0  0999 V2000
   -1.1677  -14.8346    7.8521 O   0  0  0  0  0  0  0  0  0  0  0  0
   -1.8102  -18.6060    6.1255 C   0  0  0  0  0  0  0  0  0  0  0  0
   -2.3271  -18.3503    7.4336 O   0  0  0  0  0  0  0  0  0  0  0  0
   -2.4307  -16.9679    7.7350 C   0  0  0  0  0  0  0  0  0  0  0  0
   -3.3273  -16.3348    6.8286 O   0  0  0  0  0  0  0  0  0  0  0  0
   -1.0445  -16.2719    7.7259 C   0  0  0  0  0  0  0  0  0  0  0  0
   -0.3445  -16.5657    6.3809 C   0  0  0  0  0  0  0  0  0  0  0  0
    1.0142  -16.0920    6.4175 O   0  0  0  0  0  0  0  0  0  0  0  0
   -0.3815  -18.0632    6.0086 C   0  0  0  0  0  0  0  0  0  0  0  0
    0.1309  -18.2618    4.6850 O   0  0  0  0  0  0  0  0  0  0  0  0
   -2.9615  -15.4461    6.6620 H   0  0  0  0  0  0  0  0  0  0  0  0
    1.5723  -16.7854    6.8103 H   0  0  0  0  0  0  0  0  0  0  0  0
   -0.2847  -17.6116    4.0919 H   0  0  0  0  0  0  0  0  0  0  0  0
   -3.2460  -20.5456    5.7252 O   0  0  0  0  0  0  0  0  0  0  0  0
   -1.8927  -20.1161    5.8711 C   0  0  0  0  0  0  0  0  0  0  0  0
   -3.2133  -21.4868    5.4829 H   0  0  0  0  0  0  0  0  0  0  0  0
   -0.6136  -14.2801    9.0488 C   0  0  0  0  0  0  0  0  0  0  0  0
   -1.6033  -14.3066   10.0666 O   0  0  0  0  0  0  0  0  0  0  0  0
   -1.1735  -13.7588   11.3113 C   0  0  0  0  0  0  0  0  0  0  0  0
   -0.8948  -12.2639   11.1420 C   0  0  0  0  0  0  0  0  0  0  0  0
   -0.4853  -11.6968   12.3953 O   0  0  0  0  0  0  0  0  0  0  0  0
    0.1858  -12.0804   10.0621 C   0  0  0  0  0  0  0  0  0  0  0  0
    0.3983  -10.6763    9.8463 O   0  0  0  0  0  0  0  0  0  0  0  0
   -0.1873  -12.8143    8.7596 C   0  0  0  0  0  0  0  0  0  0  0  0
    0.9101  -12.7407    7.8387 O   0  0  0  0  0  0  0  0  0  0  0  0
    0.4323  -11.3805   12.3059 H   0  0  0  0  0  0  0  0  0  0  0  0
   -0.2405  -10.3665    9.1718 H   0  0  0  0  0  0  0  0  0  0  0  0
    1.6781  -13.2025    8.2144 H   0  0  0  0  0  0  0  0  0  0  0  0
   -2.2569  -14.0173   12.3711 C   0  0  0  0  0  0  0  0  0  0  0  0
   -3.0186  -12.8452   12.6568 O   0  0  0  0  0  0  0  0  0  0  0  0
   -3.2833  -12.4606   11.8003 H   0  0  0  0  0  0  0  0  0  0  0  0
 14 15  1  0
 14 16  1  0
  2  3  1  0
  2  9  1  0
  2 15  1  0
  3  4  1  0
  4  5  1  0
  4  6  1  0
  5 11  1  0
  6  7  1  0
  6  1  1  0
 17 18  1  0
 17 24  1  0
 17  1  1  0
 18 19  1  0
 19 20  1  0
 19 29  1  0
 29 30  1  0
 30 31  1  0
 20 21  1  0
 20 22  1  0
 21 26  1  0
 22 23  1  0
 22 24  1  0
 23 27  1  0
 24 25  1  0
 25 28  1  0
  7  8  1  0
  7  9  1  0
  8 12  1  0
  9 10  1  0
 10 13  1  0
M  END
> <minimizedAffinity>
-4.52047

> <CNNscore>
0.9043348432

> <CNNaffinity>
3.0273177624

> <CNN_VS>
2.7377090454

> <CNNaffinity_variance>
0.4391170442

$$$$



 31 32  0  0  0  0  0  0  0  0999 V2000
   -2.3070  -15.9824    7.6776 O   0  0  0  0  0  0  0  0  0  0  0  0
   -3.2697  -20.0667    7.5855 C   0  0  0  0  0  0  0  0  0  0  0  0
   -2.0693  -19.6567    8.2447 O   0  0  0  0  0  0  0  0  0  0  0  0
   -2.0586  -18.2793    8.5842 C   0  0  0  0  0  0  0  0  0  0  0  0
   -3.1202  -17.9890    9.4869 O   0  0  0  0  0  0  0  0  0  0  0  0
   -2.1342  -17.3763    7.3254 C   0  0  0  0  0  0  0  0  0  0  0  0
   -3.3532  -17.7995    6.4768 C   0  0  0  0  0  0  0  0  0  0  0  0
   -3.3408  -17.1074    5.2148 O   0  0  0  0  0  0  0  0  0  0  0  0
   -3.4176  -19.3253    6.2522 C   0  0  0  0  0  0  0  0  0  0  0  0
   -4.6449  -19.6836    5.6047 O   0  0  0  0  0  0  0  0  0  0  0  0
   -3.4428  -17.0999    9.2488 H   0  0  0  0  0  0  0  0  0  0  0  0
   -2.7873  -17.6103    4.5925 H   0  0  0  0  0  0  0  0  0  0  0  0
   -5.3781  -19.2369    6.0632 H   0  0  0  0  0  0  0  0  0  0  0  0
   -4.3855  -22.2129    7.9497 O   0  0  0  0  0  0  0  0  0  0  0  0
   -3.2186  -21.5898    7.4137 C   0  0  0  0  0  0  0  0  0  0  0  0
   -4.3213  -23.1577    7.7285 H   0  0  0  0  0  0  0  0  0  0  0  0
   -1.2789  -15.4335    8.5074 C   0  0  0  0  0  0  0  0  0  0  0  0
   -1.8599  -14.9954    9.7267 O   0  0  0  0  0  0  0  0  0  0  0  0
   -0.9316  -14.4077   10.6361 C   0  0  0  0  0  0  0  0  0  0  0  0
   -0.3778  -13.1142   10.0353 C   0  0  0  0  0  0  0  0  0  0  0  0
    0.5392  -12.5008   10.9534 O   0  0  0  0  0  0  0  0  0  0  0  0
    0.3033  -13.4420    8.6951 C   0  0  0  0  0  0  0  0  0  0  0  0
    0.7600  -12.2215    8.0910 O   0  0  0  0  0  0  0  0  0  0  0  0
   -0.6358  -14.2312    7.7626 C   0  0  0  0  0  0  0  0  0  0  0  0
    0.0864  -14.6416    6.5931 O   0  0  0  0  0  0  0  0  0  0  0  0
    1.4250  -12.4941   10.5467 H   0  0  0  0  0  0  0  0  0  0  0  0
    0.0289  -11.8478    7.5572 H   0  0  0  0  0  0  0  0  0  0  0  0
    0.8025  -15.2455    6.8516 H   0  0  0  0  0  0  0  0  0  0  0  0
   -1.6397  -14.1527   11.9768 C   0  0  0  0  0  0  0  0  0  0  0  0
   -2.0006  -12.7821   12.1408 O   0  0  0  0  0  0  0  0  0  0  0  0
   -2.4420  -12.5023   11.3172 H   0  0  0  0  0  0  0  0  0  0  0  0
 14 15  1  0
 14 16  1  0
  2  3  1  0
  2  9  1  0
  2 15  1  0
  3  4  1  0
  4  5  1  0
  4  6  1  0
  5 11  1  0
  6  7  1  0
  6  1  1  0
 17 18  1  0
 17 24  1  0
 17  1  1  0
 18 19  1  0
 19 20  1  0
 19 29  1  0
 29 30  1  0
 30 31  1  0
 20 21  1  0
 20 22  1  0
 21 26  1  0
 22 23  1  0
 22 24  1  0
 23 27  1  0
 24 25  1  0
 25 28  1  0
  7  8  1  0
  7  9  1  0
  8 12  1  0
  9 10  1  0
 10 13  1  0
M  END
> <minimizedAffinity>
-3.55418

> <CNNscore>
0.8976427913

> <CNNaffinity>
3.2865803242

> <CNN_VS>
2.9501750469

> <CNNaffinity_variance>
0.1518401653

$$$$



 31 32  0  0  0  0  0  0  0  0999 V2000
   -1.7901  -14.6900    8.7796 O   0  0  0  0  0  0  0  0  0  0  0  0
   -1.1223  -18.6226    7.4739 C   0  0  0  0  0  0  0  0  0  0  0  0
   -2.4687  -18.1642    7.6185 O   0  0  0  0  0  0  0  0  0  0  0  0
   -2.5797  -16.7501    7.6430 C   0  0  0  0  0  0  0  0  0  0  0  0
   -2.1080  -16.2005    6.4176 O   0  0  0  0  0  0  0  0  0  0  0  0
   -1.8314  -16.1355    8.8546 C   0  0  0  0  0  0  0  0  0  0  0  0
   -0.3739  -16.6462    8.8558 C   0  0  0  0  0  0  0  0  0  0  0  0
    0.2895  -16.2438   10.0682 O   0  0  0  0  0  0  0  0  0  0  0  0
   -0.2823  -18.1765    8.6758 C   0  0  0  0  0  0  0  0  0  0  0  0
    1.0838  -18.5803    8.5191 O   0  0  0  0  0  0  0  0  0  0  0  0
   -1.6645  -15.3632    6.6492 H   0  0  0  0  0  0  0  0  0  0  0  0
    0.1024  -16.9054   10.7565 H   0  0  0  0  0  0  0  0  0  0  0  0
    1.5056  -17.9962    7.8647 H   0  0  0  0  0  0  0  0  0  0  0  0
    0.0700  -20.6394    6.7702 O   0  0  0  0  0  0  0  0  0  0  0  0
   -1.1568  -20.1470    7.3084 C   0  0  0  0  0  0  0  0  0  0  0  0
    0.0051  -21.6097    6.7758 H   0  0  0  0  0  0  0  0  0  0  0  0
   -0.9838  -14.0527    9.7748 C   0  0  0  0  0  0  0  0  0  0  0  0
   -1.8144  -13.6702   10.8610 O   0  0  0  0  0  0  0  0  0  0  0  0
   -1.1237  -13.0033   11.9157 C   0  0  0  0  0  0  0  0  0  0  0  0
   -0.5853  -11.6646   11.4068 C   0  0  0  0  0  0  0  0  0  0  0  0
    0.0905  -10.9732   12.4676 O   0  0  0  0  0  0  0  0  0  0  0  0
    0.3558  -11.9282   10.2184 C   0  0  0  0  0  0  0  0  0  0  0  0
    0.8060  -10.6708    9.6897 O   0  0  0  0  0  0  0  0  0  0  0  0
   -0.3237  -12.7966    9.1420 C   0  0  0  0  0  0  0  0  0  0  0  0
    0.6337  -13.1391    8.1302 O   0  0  0  0  0  0  0  0  0  0  0  0
    1.0317  -10.8867   12.2293 H   0  0  0  0  0  0  0  0  0  0  0  0
    0.1550  -10.3631    9.0260 H   0  0  0  0  0  0  0  0  0  0  0  0
    1.3408  -13.6771    8.5239 H   0  0  0  0  0  0  0  0  0  0  0  0
   -2.0848  -12.8146   13.1007 C   0  0  0  0  0  0  0  0  0  0  0  0
   -3.4259  -13.1678   12.7655 O   0  0  0  0  0  0  0  0  0  0  0  0
   -3.3907  -14.0373   12.3248 H   0  0  0  0  0  0  0  0  0  0  0  0
 14 15  1  0
 14 16  1  0
  2  3  1  0
  2  9  1  0
  2 15  1  0
  3  4  1  0
  4  5  1  0
  4  6  1  0
  5 11  1  0
  6  7  1  0
  6  1  1  0
 17 18  1  0
 17 24  1  0
 17  1  1  0
 18 19  1  0
 19 20  1  0
 19 29  1  0
 29 30  1  0
 30 31  1  0
 20 21  1  0
 20 22  1  0
 21 26  1  0
 22 23  1  0
 22 24  1  0
 23 27  1  0
 24 25  1  0
 25 28  1  0
  7  8  1  0
  7  9  1  0
  8 12  1  0
  9 10  1  0
 10 13  1  0
M  END
> <minimizedAffinity>
-4.03736

> <CNNscore>
0.8793708086

> <CNNaffinity>
3.0299336910

> <CNN_VS>
2.6644351482

> <CNNaffinity_variance>
0.3842359781

$$$$



 31 32  0  0  0  0  0  0  0  0999 V2000
   -1.6295  -14.7400    8.9223 O   0  0  0  0  0  0  0  0  0  0  0  0
   -1.2347  -18.3985    6.9032 C   0  0  0  0  0  0  0  0  0  0  0  0
   -1.0373  -18.3682    8.3188 O   0  0  0  0  0  0  0  0  0  0  0  0
   -1.5974  -17.2216    8.9385 C   0  0  0  0  0  0  0  0  0  0  0  0
   -3.0065  -17.1960    8.7386 O   0  0  0  0  0  0  0  0  0  0  0  0
   -0.9380  -15.9131    8.4297 C   0  0  0  0  0  0  0  0  0  0  0  0
   -1.0063  -15.8838    6.8871 C   0  0  0  0  0  0  0  0  0  0  0  0
   -0.2390  -14.7768    6.3797 O   0  0  0  0  0  0  0  0  0  0  0  0
   -0.5300  -17.2055    6.2478 C   0  0  0  0  0  0  0  0  0  0  0  0
   -0.7653  -17.1901    4.8342 O   0  0  0  0  0  0  0  0  0  0  0  0
   -3.2471  -16.2576    8.6251 H   0  0  0  0  0  0  0  0  0  0  0  0
    0.6878  -15.0589    6.2904 H   0  0  0  0  0  0  0  0  0  0  0  0
   -1.6754  -16.8835    4.6757 H   0  0  0  0  0  0  0  0  0  0  0  0
    0.6955  -19.7402    6.2261 O   0  0  0  0  0  0  0  0  0  0  0  0
   -0.7231  -19.7475    6.3829 C   0  0  0  0  0  0  0  0  0  0  0  0
    0.9515  -20.6453    5.9794 H   0  0  0  0  0  0  0  0  0  0  0  0
   -0.9239  -13.9918    9.9168 C   0  0  0  0  0  0  0  0  0  0  0  0
   -1.8331  -13.6235   10.9434 O   0  0  0  0  0  0  0  0  0  0  0  0
   -1.2479  -12.8521   11.9905 C   0  0  0  0  0  0  0  0  0  0  0  0
   -0.7912  -11.5014   11.4354 C   0  0  0  0  0  0  0  0  0  0  0  0
   -0.2230  -10.7064   12.4866 O   0  0  0  0  0  0  0  0  0  0  0  0
    0.2237  -11.7476   10.3053 C   0  0  0  0  0  0  0  0  0  0  0  0
    0.5999  -10.4859    9.7309 O   0  0  0  0  0  0  0  0  0  0  0  0
   -0.3336  -12.7198    9.2478 C   0  0  0  0  0  0  0  0  0  0  0  0
    0.6952  -13.0344    8.2989 O   0  0  0  0  0  0  0  0  0  0  0  0
    0.7190  -10.5569   12.2858 H   0  0  0  0  0  0  0  0  0  0  0  0
   -0.0402  -10.2646    9.0237 H   0  0  0  0  0  0  0  0  0  0  0  0
    1.4221  -13.4938    8.7515 H   0  0  0  0  0  0  0  0  0  0  0  0
   -2.2768  -12.6823   13.1202 C   0  0  0  0  0  0  0  0  0  0  0  0
   -2.9525  -11.4278   13.0466 O   0  0  0  0  0  0  0  0  0  0  0  0
   -3.2475  -11.3159   12.1236 H   0  0  0  0  0  0  0  0  0  0  0  0
 14 15  1  0
 14 16  1  0
  2  3  1  0
  2  9  1  0
  2 15  1  0
  3  4  1  0
  4  5  1  0
  4  6  1  0
  5 11  1  0
  6  7  1  0
  6  1  1  0
 17 18  1  0
 17 24  1  0
 17  1  1  0
 18 19  1  0
 19 20  1  0
 19 29  1  0
 29 30  1  0
 30 31  1  0
 20 21  1  0
 20 22  1  0
 21 26  1  0
 22 23  1  0
 22 24  1  0
 23 27  1  0
 24 25  1  0
 25 28  1  0
  7  8  1  0
  7  9  1  0
  8 12  1  0
  9 10  1  0
 10 13  1  0
M  END
> <minimizedAffinity>
-4.53881

> <CNNscore>
0.8787981868

> <CNNaffinity>
2.9271471500

> <CNN_VS>
2.5723717213

> <CNNaffinity_variance>
0.4682985544

$$$$



 31 32  0  0  0  0  0  0  0  0999 V2000
   -1.2985  -14.7048   12.0598 O   0  0  0  0  0  0  0  0  0  0  0  0
   -5.3354  -13.9785   12.9499 C   0  0  0  0  0  0  0  0  0  0  0  0
   -4.3621  -13.8172   13.9846 O   0  0  0  0  0  0  0  0  0  0  0  0
   -3.0401  -13.6682   13.4922 C   0  0  0  0  0  0  0  0  0  0  0  0
   -2.9477  -12.5015   12.6820 O   0  0  0  0  0  0  0  0  0  0  0  0
   -2.5708  -14.9257   12.7148 C   0  0  0  0  0  0  0  0  0  0  0  0
   -3.6098  -15.2558   11.6207 C   0  0  0  0  0  0  0  0  0  0  0  0
   -3.2978  -16.5208   11.0090 O   0  0  0  0  0  0  0  0  0  0  0  0
   -5.0561  -15.2618   12.1598 C   0  0  0  0  0  0  0  0  0  0  0  0
   -5.9901  -15.4091   11.0828 O   0  0  0  0  0  0  0  0  0  0  0  0
   -2.3291  -12.7209   11.9606 H   0  0  0  0  0  0  0  0  0  0  0  0
   -3.6985  -17.2287   11.5426 H   0  0  0  0  0  0  0  0  0  0  0  0
   -5.7465  -14.7867   10.3752 H   0  0  0  0  0  0  0  0  0  0  0  0
   -6.8354  -14.9944   14.5937 O   0  0  0  0  0  0  0  0  0  0  0  0
   -6.7238  -13.9744   13.6016 C   0  0  0  0  0  0  0  0  0  0  0  0
   -7.7023  -14.8746   15.0177 H   0  0  0  0  0  0  0  0  0  0  0  0
   -1.3816  -14.3302   10.6815 C   0  0  0  0  0  0  0  0  0  0  0  0
   -1.0981  -15.4674    9.8801 O   0  0  0  0  0  0  0  0  0  0  0  0
   -1.1318  -15.2142    8.4770 C   0  0  0  0  0  0  0  0  0  0  0  0
   -0.0083  -14.2440    8.1063 C   0  0  0  0  0  0  0  0  0  0  0  0
   -0.0171  -14.0015    6.6917 O   0  0  0  0  0  0  0  0  0  0  0  0
   -0.1967  -12.9403    8.9015 C   0  0  0  0  0  0  0  0  0  0  0  0
    0.8964  -12.0540    8.6134 O   0  0  0  0  0  0  0  0  0  0  0  0
   -0.3343  -13.2148   10.4114 C   0  0  0  0  0  0  0  0  0  0  0  0
   -0.6557  -11.9934   11.0916 O   0  0  0  0  0  0  0  0  0  0  0  0
   -0.2181  -13.0596    6.5413 H   0  0  0  0  0  0  0  0  0  0  0  0
    1.6281  -12.2533    9.2329 H   0  0  0  0  0  0  0  0  0  0  0  0
   -1.5180  -11.6692   10.7825 H   0  0  0  0  0  0  0  0  0  0  0  0
   -0.9995  -16.5489    7.7255 C   0  0  0  0  0  0  0  0  0  0  0  0
   -1.6547  -17.6166    8.4086 O   0  0  0  0  0  0  0  0  0  0  0  0
   -2.5458  -17.2993    8.6466 H   0  0  0  0  0  0  0  0  0  0  0  0
 14 15  1  0
 14 16  1  0
  2  3  1  0
  2  9  1  0
  2 15  1  0
  3  4  1  0
  4  5  1  0
  4  6  1  0
  5 11  1  0
  6  7  1  0
  6  1  1  0
 17 18  1  0
 17 24  1  0
 17  1  1  0
 18 19  1  0
 19 20  1  0
 19 29  1  0
 29 30  1  0
 30 31  1  0
 20 21  1  0
 20 22  1  0
 21 26  1  0
 22 23  1  0
 22 24  1  0
 23 27  1  0
 24 25  1  0
 25 28  1  0
  7  8  1  0
  7  9  1  0
  8 12  1  0
  9 10  1  0
 10 13  1  0
M  END
> <minimizedAffinity>
-3.86738

> <CNNscore>
0.8681185246

> <CNNaffinity>
2.9034364223

> <CNN_VS>
2.5205268860

> <CNNaffinity_variance>
0.4234323204

$$$$



 31 32  0  0  0  0  0  0  0  0999 V2000
   -0.2754  -13.4038   11.7497 O   0  0  0  0  0  0  0  0  0  0  0  0
   -2.9799  -10.4643   13.0389 C   0  0  0  0  0  0  0  0  0  0  0  0
   -1.5846  -10.2715   13.2836 O   0  0  0  0  0  0  0  0  0  0  0  0
   -0.7547  -11.0745   12.4597 C   0  0  0  0  0  0  0  0  0  0  0  0
   -0.9613  -10.7476   11.0897 O   0  0  0  0  0  0  0  0  0  0  0  0
   -0.9845  -12.5874   12.7128 C   0  0  0  0  0  0  0  0  0  0  0  0
   -2.4909  -12.8969   12.5701 C   0  0  0  0  0  0  0  0  0  0  0  0
   -2.7584  -14.2499   12.9821 O   0  0  0  0  0  0  0  0  0  0  0  0
   -3.3758  -11.9097   13.3606 C   0  0  0  0  0  0  0  0  0  0  0  0
   -4.7605  -12.1347   13.0670 O   0  0  0  0  0  0  0  0  0  0  0  0
   -0.8878  -11.5861   10.5970 H   0  0  0  0  0  0  0  0  0  0  0  0
   -2.8918  -14.2583   13.9458 H   0  0  0  0  0  0  0  0  0  0  0  0
   -4.8647  -12.2022   12.1017 H   0  0  0  0  0  0  0  0  0  0  0  0
   -4.4233   -8.4894   13.0464 O   0  0  0  0  0  0  0  0  0  0  0  0
   -3.7533   -9.4381   13.8760 C   0  0  0  0  0  0  0  0  0  0  0  0
   -4.9558   -7.9311   13.6383 H   0  0  0  0  0  0  0  0  0  0  0  0
   -0.9882  -13.6718   10.5386 C   0  0  0  0  0  0  0  0  0  0  0  0
   -1.4912  -14.9987   10.5873 O   0  0  0  0  0  0  0  0  0  0  0  0
   -2.2095  -15.3926    9.4199 C   0  0  0  0  0  0  0  0  0  0  0  0
   -1.2572  -15.4300    8.2230 C   0  0  0  0  0  0  0  0  0  0  0  0
   -1.9646  -15.8498    7.0469 O   0  0  0  0  0  0  0  0  0  0  0  0
   -0.6380  -14.0336    8.0384 C   0  0  0  0  0  0  0  0  0  0  0  0
    0.3126  -14.0814    6.9626 O   0  0  0  0  0  0  0  0  0  0  0  0
   -0.0046  -13.5194    9.3456 C   0  0  0  0  0  0  0  0  0  0  0  0
    0.4246  -12.1624    9.1669 O   0  0  0  0  0  0  0  0  0  0  0  0
   -1.9606  -15.1156    6.4058 H   0  0  0  0  0  0  0  0  0  0  0  0
    1.1805  -14.3499    7.3281 H   0  0  0  0  0  0  0  0  0  0  0  0
   -0.3476  -11.6009    8.9859 H   0  0  0  0  0  0  0  0  0  0  0  0
   -2.8581  -16.7636    9.6718 C   0  0  0  0  0  0  0  0  0  0  0  0
   -4.1034  -16.9017    8.9893 O   0  0  0  0  0  0  0  0  0  0  0  0
   -3.9580  -16.6143    8.0686 H   0  0  0  0  0  0  0  0  0  0  0  0
 14 15  1  0
 14 16  1  0
  2  3  1  0
  2  9  1  0
  2 15  1  0
  3  4  1  0
  4  5  1  0
  4  6  1  0
  5 11  1  0
  6  7  1  0
  6  1  1  0
 17 18  1  0
 17 24  1  0
 17  1  1  0
 18 19  1  0
 19 20  1  0
 19 29  1  0
 29 30  1  0
 30 31  1  0
 20 21  1  0
 20 22  1  0
 21 26  1  0
 22 23  1  0
 22 24  1  0
 23 27  1  0
 24 25  1  0
 25 28  1  0
  7  8  1  0
  7  9  1  0
  8 12  1  0
  9 10  1  0
 10 13  1  0
M  END
> <minimizedAffinity>
-4.88946

> <CNNscore>
0.8614648581

> <CNNaffinity>
2.8816032410

> <CNN_VS>
2.4823999405

> <CNNaffinity_variance>
0.5836944580

$$$$



 31 32  0  0  0  0  0  0  0  0999 V2000
    0.6384  -16.8241    7.9928 O   0  0  0  0  0  0  0  0  0  0  0  0
   -0.1079  -13.4113   10.3194 C   0  0  0  0  0  0  0  0  0  0  0  0
   -0.7044  -14.6519   10.7053 O   0  0  0  0  0  0  0  0  0  0  0  0
   -0.0673  -15.7824   10.1321 C   0  0  0  0  0  0  0  0  0  0  0  0
    1.2886  -15.8498   10.5599 O   0  0  0  0  0  0  0  0  0  0  0  0
   -0.1641  -15.7737    8.5841 C   0  0  0  0  0  0  0  0  0  0  0  0
    0.3686  -14.4237    8.0557 C   0  0  0  0  0  0  0  0  0  0  0  0
    0.1182  -14.3129    6.6427 O   0  0  0  0  0  0  0  0  0  0  0  0
   -0.2333  -13.2155    8.8044 C   0  0  0  0  0  0  0  0  0  0  0  0
    0.4097  -12.0024    8.3937 O   0  0  0  0  0  0  0  0  0  0  0  0
    1.7967  -16.1861    9.7981 H   0  0  0  0  0  0  0  0  0  0  0  0
   -0.7793  -13.9597    6.5151 H   0  0  0  0  0  0  0  0  0  0  0  0
    1.3727  -12.1425    8.4091 H   0  0  0  0  0  0  0  0  0  0  0  0
   -0.2768  -11.0096   10.7520 O   0  0  0  0  0  0  0  0  0  0  0  0
   -0.7850  -12.2917   11.1194 C   0  0  0  0  0  0  0  0  0  0  0  0
   -0.8088  -10.3526   11.2326 H   0  0  0  0  0  0  0  0  0  0  0  0
   -0.0993  -17.9415    7.4889 C   0  0  0  0  0  0  0  0  0  0  0  0
   -1.4672  -17.5764    7.3816 O   0  0  0  0  0  0  0  0  0  0  0  0
   -2.3131  -18.6208    6.9045 C   0  0  0  0  0  0  0  0  0  0  0  0
   -2.3410  -19.7610    7.9244 C   0  0  0  0  0  0  0  0  0  0  0  0
   -3.2097  -20.8074    7.4658 O   0  0  0  0  0  0  0  0  0  0  0  0
   -0.9054  -20.2735    8.1342 C   0  0  0  0  0  0  0  0  0  0  0  0
   -0.9156  -21.2938    9.1452 O   0  0  0  0  0  0  0  0  0  0  0  0
    0.0590  -19.1239    8.4843 C   0  0  0  0  0  0  0  0  0  0  0  0
    1.4032  -19.6233    8.5234 O   0  0  0  0  0  0  0  0  0  0  0  0
   -2.6750  -21.6083    7.3142 H   0  0  0  0  0  0  0  0  0  0  0  0
   -0.8237  -20.8636   10.0201 H   0  0  0  0  0  0  0  0  0  0  0  0
    1.6537  -19.9449    7.6413 H   0  0  0  0  0  0  0  0  0  0  0  0
   -3.7184  -18.0496    6.6539 C   0  0  0  0  0  0  0  0  0  0  0  0
   -3.7082  -16.6269    6.5473 O   0  0  0  0  0  0  0  0  0  0  0  0
   -2.9901  -16.3916    5.9306 H   0  0  0  0  0  0  0  0  0  0  0  0
 14 15  1  0
 14 16  1  0
  2  3  1  0
  2  9  1  0
  2 15  1  0
  3  4  1  0
  4  5  1  0
  4  6  1  0
  5 11  1  0
  6  7  1  0
  6  1  1  0
 17 18  1  0
 17 24  1  0
 17  1  1  0
 18 19  1  0
 19 20  1  0
 19 29  1  0
 29 30  1  0
 30 31  1  0
 20 21  1  0
 20 22  1  0
 21 26  1  0
 22 23  1  0
 22 24  1  0
 23 27  1  0
 24 25  1  0
 25 28  1  0
  7  8  1  0
  7  9  1  0
  8 12  1  0
  9 10  1  0
 10 13  1  0
M  END
> <minimizedAffinity>
-3.98698

> <CNNscore>
0.8415635228

> <CNNaffinity>
3.1917810440

> <CNN_VS>
2.6860864162

> <CNNaffinity_variance>
0.2283442616

$$$$



 31 32  0  0  0  0  0  0  0  0999 V2000
   -1.8867  -13.3512   13.1392 O   0  0  0  0  0  0  0  0  0  0  0  0
   -5.4041  -11.2431   14.0338 C   0  0  0  0  0  0  0  0  0  0  0  0
   -5.5104  -12.5519   13.4687 O   0  0  0  0  0  0  0  0  0  0  0  0
   -4.3245  -13.3187   13.6035 C   0  0  0  0  0  0  0  0  0  0  0  0
   -4.0188  -13.5100   14.9805 O   0  0  0  0  0  0  0  0  0  0  0  0
   -3.1322  -12.6707   12.8523 C   0  0  0  0  0  0  0  0  0  0  0  0
   -2.9831  -11.2054   13.3171 C   0  0  0  0  0  0  0  0  0  0  0  0
   -2.0087  -10.5261   12.5043 O   0  0  0  0  0  0  0  0  0  0  0  0
   -4.3233  -10.4398   13.3018 C   0  0  0  0  0  0  0  0  0  0  0  0
   -4.1652   -9.1439   13.8930 O   0  0  0  0  0  0  0  0  0  0  0  0
   -3.0463  -13.4811   15.0487 H   0  0  0  0  0  0  0  0  0  0  0  0
   -2.4542  -10.1836   11.7101 H   0  0  0  0  0  0  0  0  0  0  0  0
   -3.6816   -9.2437   14.7318 H   0  0  0  0  0  0  0  0  0  0  0  0
   -6.8348   -9.3898   14.7427 O   0  0  0  0  0  0  0  0  0  0  0  0
   -6.7859  -10.5819   13.9594 C   0  0  0  0  0  0  0  0  0  0  0  0
   -7.7038   -8.9857   14.5781 H   0  0  0  0  0  0  0  0  0  0  0  0
   -1.1986  -13.8668   11.9957 C   0  0  0  0  0  0  0  0  0  0  0  0
   -0.9360  -12.7977   11.0989 O   0  0  0  0  0  0  0  0  0  0  0  0
   -0.2656  -13.1917    9.9034 C   0  0  0  0  0  0  0  0  0  0  0  0
   -1.1769  -14.1096    9.0860 C   0  0  0  0  0  0  0  0  0  0  0  0
   -0.5216  -14.4923    7.8679 O   0  0  0  0  0  0  0  0  0  0  0  0
   -1.5381  -15.3376    9.9400 C   0  0  0  0  0  0  0  0  0  0  0  0
   -2.4528  -16.1662    9.2051 O   0  0  0  0  0  0  0  0  0  0  0  0
   -2.1077  -14.9243   11.3107 C   0  0  0  0  0  0  0  0  0  0  0  0
   -2.2890  -16.0917   12.1244 O   0  0  0  0  0  0  0  0  0  0  0  0
   -0.3801  -15.4566    7.8832 H   0  0  0  0  0  0  0  0  0  0  0  0
   -3.3639  -15.8533    9.3811 H   0  0  0  0  0  0  0  0  0  0  0  0
   -1.4261  -16.5072   12.2893 H   0  0  0  0  0  0  0  0  0  0  0  0
    0.1270  -11.9327    9.1132 C   0  0  0  0  0  0  0  0  0  0  0  0
    1.5325  -11.6904    9.1535 O   0  0  0  0  0  0  0  0  0  0  0  0
    1.9741  -12.5337    8.9407 H   0  0  0  0  0  0  0  0  0  0  0  0
 14 15  1  0
 14 16  1  0
  2  3  1  0
  2  9  1  0
  2 15  1  0
  3  4  1  0
  4  5  1  0
  4  6  1  0
  5 11  1  0
  6  7  1  0
  6  1  1  0
 17 18  1  0
 17 24  1  0
 17  1  1  0
 18 19  1  0
 19 20  1  0
 19 29  1  0
 29 30  1  0
 30 31  1  0
 20 21  1  0
 20 22  1  0
 21 26  1  0
 22 23  1  0
 22 24  1  0
 23 27  1  0
 24 25  1  0
 25 28  1  0
  7  8  1  0
  7  9  1  0
  8 12  1  0
  9 10  1  0
 10 13  1  0
M  END
> <minimizedAffinity>
-4.10419

> <CNNscore>
0.8315902352

> <CNNaffinity>
2.9729850292

> <CNN_VS>
2.4723052979

> <CNNaffinity_variance>
0.5486711860

$$$$



 31 32  0  0  0  0  0  0  0  0999 V2000
    0.4177  -11.0347   11.8743 O   0  0  0  0  0  0  0  0  0  0  0  0
   -1.1856  -14.2059    9.6405 C   0  0  0  0  0  0  0  0  0  0  0  0
   -0.9782  -14.3873   11.0433 O   0  0  0  0  0  0  0  0  0  0  0  0
   -0.8483  -13.1660   11.7533 C   0  0  0  0  0  0  0  0  0  0  0  0
   -2.0405  -12.3982   11.6294 O   0  0  0  0  0  0  0  0  0  0  0  0
    0.3881  -12.3561   11.2828 C   0  0  0  0  0  0  0  0  0  0  0  0
    0.3198  -12.1815    9.7497 C   0  0  0  0  0  0  0  0  0  0  0  0
    1.5432  -11.5993    9.2639 O   0  0  0  0  0  0  0  0  0  0  0  0
    0.0267  -13.5070    9.0151 C   0  0  0  0  0  0  0  0  0  0  0  0
   -0.1892  -13.2671    7.6188 O   0  0  0  0  0  0  0  0  0  0  0  0
   -1.7584  -11.4658   11.5801 H   0  0  0  0  0  0  0  0  0  0  0  0
    2.1854  -12.3138    9.1108 H   0  0  0  0  0  0  0  0  0  0  0  0
   -0.8085  -12.5221    7.5253 H   0  0  0  0  0  0  0  0  0  0  0  0
   -1.8749  -15.4657    7.6601 O   0  0  0  0  0  0  0  0  0  0  0  0
   -1.4608  -15.5816    9.0211 C   0  0  0  0  0  0  0  0  0  0  0  0
   -1.9458  -16.3717    7.3141 H   0  0  0  0  0  0  0  0  0  0  0  0
    1.2995  -10.8888   12.9914 C   0  0  0  0  0  0  0  0  0  0  0  0
    1.1138   -9.5992   13.5559 O   0  0  0  0  0  0  0  0  0  0  0  0
    1.9567   -9.3257   14.6734 C   0  0  0  0  0  0  0  0  0  0  0  0
    3.4164   -9.2934   14.2158 C   0  0  0  0  0  0  0  0  0  0  0  0
    4.2721   -8.9939   15.3285 O   0  0  0  0  0  0  0  0  0  0  0  0
    3.7684  -10.6522   13.5856 C   0  0  0  0  0  0  0  0  0  0  0  0
    5.1148  -10.6026   13.0875 O   0  0  0  0  0  0  0  0  0  0  0  0
    2.7610  -11.0431   12.4872 C   0  0  0  0  0  0  0  0  0  0  0  0
    3.0404  -12.3755   12.0349 O   0  0  0  0  0  0  0  0  0  0  0  0
    4.8492   -9.7627   15.4898 H   0  0  0  0  0  0  0  0  0  0  0  0
    5.0938  -10.2536   12.1727 H   0  0  0  0  0  0  0  0  0  0  0  0
    2.9147  -12.9987   12.7698 H   0  0  0  0  0  0  0  0  0  0  0  0
    1.5306   -7.9903   15.3049 C   0  0  0  0  0  0  0  0  0  0  0  0
    1.6572   -6.9007   14.3926 O   0  0  0  0  0  0  0  0  0  0  0  0
    1.2386   -7.1780   13.5563 H   0  0  0  0  0  0  0  0  0  0  0  0
 14 15  1  0
 14 16  1  0
  2  3  1  0
  2  9  1  0
  2 15  1  0
  3  4  1  0
  4  5  1  0
  4  6  1  0
  5 11  1  0
  6  7  1  0
  6  1  1  0
 17 18  1  0
 17 24  1  0
 17  1  1  0
 18 19  1  0
 19 20  1  0
 19 29  1  0
 29 30  1  0
 30 31  1  0
 20 21  1  0
 20 22  1  0
 21 26  1  0
 22 23  1  0
 22 24  1  0
 23 27  1  0
 24 25  1  0
 25 28  1  0
  7  8  1  0
  7  9  1  0
  8 12  1  0
  9 10  1  0
 10 13  1  0
M  END
> <minimizedAffinity>
-4.68628

> <CNNscore>
0.8088207245

> <CNNaffinity>
3.0023698807

> <CNN_VS>
2.4283790588

> <CNNaffinity_variance>
0.3606325388

$$$$



 31 32  0  0  0  0  0  0  0  0999 V2000
   -0.8706  -15.4012    8.9737 O   0  0  0  0  0  0  0  0  0  0  0  0
   -1.4427  -17.1809    5.2158 C   0  0  0  0  0  0  0  0  0  0  0  0
   -1.1742  -15.7782    5.2799 O   0  0  0  0  0  0  0  0  0  0  0  0
   -0.5896  -15.3749    6.5080 C   0  0  0  0  0  0  0  0  0  0  0  0
    0.6648  -16.0228    6.6894 O   0  0  0  0  0  0  0  0  0  0  0  0
   -1.5340  -15.6415    7.7092 C   0  0  0  0  0  0  0  0  0  0  0  0
   -1.9720  -17.1223    7.6841 C   0  0  0  0  0  0  0  0  0  0  0  0
   -2.9924  -17.3524    8.6728 O   0  0  0  0  0  0  0  0  0  0  0  0
   -2.4626  -17.5713    6.2912 C   0  0  0  0  0  0  0  0  0  0  0  0
   -2.7006  -18.9845    6.2769 O   0  0  0  0  0  0  0  0  0  0  0  0
    0.7382  -16.2086    7.6441 H   0  0  0  0  0  0  0  0  0  0  0  0
   -3.8560  -17.1349    8.2814 H   0  0  0  0  0  0  0  0  0  0  0  0
   -1.9357  -19.4308    6.6807 H   0  0  0  0  0  0  0  0  0  0  0  0
   -1.6984  -16.4125    2.9074 O   0  0  0  0  0  0  0  0  0  0  0  0
   -1.9246  -17.5059    3.7965 C   0  0  0  0  0  0  0  0  0  0  0  0
   -1.9465  -16.7217    2.0195 H   0  0  0  0  0  0  0  0  0  0  0  0
   -1.2546  -14.1959    9.6419 C   0  0  0  0  0  0  0  0  0  0  0  0
   -0.1035  -13.3837    9.8188 O   0  0  0  0  0  0  0  0  0  0  0  0
   -0.3568  -12.1539   10.4953 C   0  0  0  0  0  0  0  0  0  0  0  0
   -0.7973  -12.4428   11.9317 C   0  0  0  0  0  0  0  0  0  0  0  0
   -1.0309  -11.2108   12.6298 O   0  0  0  0  0  0  0  0  0  0  0  0
   -2.0629  -13.3172   11.8956 C   0  0  0  0  0  0  0  0  0  0  0  0
   -2.4384  -13.6532   13.2408 O   0  0  0  0  0  0  0  0  0  0  0  0
   -1.8583  -14.5710   11.0235 C   0  0  0  0  0  0  0  0  0  0  0  0
   -3.1023  -15.2742   10.8986 O   0  0  0  0  0  0  0  0  0  0  0  0
   -1.9751  -11.1646   12.8672 H   0  0  0  0  0  0  0  0  0  0  0  0
   -1.9592  -14.4662   13.5021 H   0  0  0  0  0  0  0  0  0  0  0  0
   -3.7466  -14.7107   10.4385 H   0  0  0  0  0  0  0  0  0  0  0  0
    0.9150  -11.2909   10.4548 C   0  0  0  0  0  0  0  0  0  0  0  0
    1.6753  -11.5109    9.2677 O   0  0  0  0  0  0  0  0  0  0  0  0
    1.0536  -11.4645    8.5175 H   0  0  0  0  0  0  0  0  0  0  0  0
 14 15  1  0
 14 16  1  0
  2  3  1  0
  2  9  1  0
  2 15  1  0
  3  4  1  0
  4  5  1  0
  4  6  1  0
  5 11  1  0
  6  7  1  0
  6  1  1  0
 17 18  1  0
 17 24  1  0
 17  1  1  0
 18 19  1  0
 19 20  1  0
 19 29  1  0
 29 30  1  0
 30 31  1  0
 20 21  1  0
 20 22  1  0
 21 26  1  0
 22 23  1  0
 22 24  1  0
 23 27  1  0
 24 25  1  0
 25 28  1  0
  7  8  1  0
  7  9  1  0
  8 12  1  0
  9 10  1  0
 10 13  1  0
M  END
> <minimizedAffinity>
-4.42337

> <CNNscore>
0.8084693551

> <CNNaffinity>
3.0097553730

> <CNN_VS>
2.4332950115

> <CNNaffinity_variance>
0.3317101300

$$$$



 31 32  0  0  0  0  0  0  0  0999 V2000
   -3.7384  -17.4093    6.2912 O   0  0  0  0  0  0  0  0  0  0  0  0
   -2.3997  -17.7930    2.3317 C   0  0  0  0  0  0  0  0  0  0  0  0
   -1.4434  -17.8638    3.3920 O   0  0  0  0  0  0  0  0  0  0  0  0
   -2.0258  -18.1482    4.6540 C   0  0  0  0  0  0  0  0  0  0  0  0
   -2.6697  -19.4172    4.6215 O   0  0  0  0  0  0  0  0  0  0  0  0
   -3.0101  -17.0344    5.0971 C   0  0  0  0  0  0  0  0  0  0  0  0
   -4.0428  -16.8010    3.9726 C   0  0  0  0  0  0  0  0  0  0  0  0
   -4.8509  -15.6490    4.2754 O   0  0  0  0  0  0  0  0  0  0  0  0
   -3.3833  -16.6453    2.5858 C   0  0  0  0  0  0  0  0  0  0  0  0
   -4.3829  -16.5961    1.5599 O   0  0  0  0  0  0  0  0  0  0  0  0
   -3.4669  -19.3308    5.1768 H   0  0  0  0  0  0  0  0  0  0  0  0
   -4.3881  -14.8550    3.9563 H   0  0  0  0  0  0  0  0  0  0  0  0
   -5.0153  -17.3207    1.7095 H   0  0  0  0  0  0  0  0  0  0  0  0
   -0.5801  -18.5926    0.9056 O   0  0  0  0  0  0  0  0  0  0  0  0
   -1.6330  -17.6350    1.0129 C   0  0  0  0  0  0  0  0  0  0  0  0
   -0.2001  -18.4880    0.0167 H   0  0  0  0  0  0  0  0  0  0  0  0
   -3.2216  -16.8715    7.5120 C   0  0  0  0  0  0  0  0  0  0  0  0
   -2.1179  -16.0305    7.2109 O   0  0  0  0  0  0  0  0  0  0  0  0
   -1.5014  -15.4461    8.3565 C   0  0  0  0  0  0  0  0  0  0  0  0
   -0.8715  -16.5457    9.2138 C   0  0  0  0  0  0  0  0  0  0  0  0
   -0.2260  -15.9662   10.3573 O   0  0  0  0  0  0  0  0  0  0  0  0
   -1.9699  -17.5390    9.6315 C   0  0  0  0  0  0  0  0  0  0  0  0
   -1.3720  -18.6132   10.3743 O   0  0  0  0  0  0  0  0  0  0  0  0
   -2.7614  -18.0509    8.4126 C   0  0  0  0  0  0  0  0  0  0  0  0
   -3.8633  -18.8525    8.8609 O   0  0  0  0  0  0  0  0  0  0  0  0
   -0.6823  -16.2779   11.1602 H   0  0  0  0  0  0  0  0  0  0  0  0
   -1.0774  -19.3005    9.7420 H   0  0  0  0  0  0  0  0  0  0  0  0
   -4.4709  -18.3026    9.3831 H   0  0  0  0  0  0  0  0  0  0  0  0
   -0.4549  -14.4202    7.8913 C   0  0  0  0  0  0  0  0  0  0  0  0
   -0.1701  -14.5382    6.4983 O   0  0  0  0  0  0  0  0  0  0  0  0
   -1.0269  -14.5769    6.0337 H   0  0  0  0  0  0  0  0  0  0  0  0
 14 15  1  0
 14 16  1  0
  2  3  1  0
  2  9  1  0
  2 15  1  0
  3  4  1  0
  4  5  1  0
  4  6  1  0
  5 11  1  0
  6  7  1  0
  6  1  1  0
 17 18  1  0
 17 24  1  0
 17  1  1  0
 18 19  1  0
 19 20  1  0
 19 29  1  0
 29 30  1  0
 30 31  1  0
 20 21  1  0
 20 22  1  0
 21 26  1  0
 22 23  1  0
 22 24  1  0
 23 27  1  0
 24 25  1  0
 25 28  1  0
  7  8  1  0
  7  9  1  0
  8 12  1  0
  9 10  1  0
 10 13  1  0
M  END
> <minimizedAffinity>
-3.96156

> <CNNscore>
0.7935354710

> <CNNaffinity>
2.9059200287

> <CNN_VS>
2.3059506416

> <CNNaffinity_variance>
0.4122673273

$$$$
