@<TRIPOS>MOLECULE
GDU
 43 45 0 0 0
SMALL
GASTEIGER

@<TRIPOS>ATOM
      1 P          20.9550   70.8531   -3.5701 P.3     1  UNL1        0.2189
      2 O          20.4221   69.5620   -4.0585 O.2     1  UNL1       -0.5170
      3 O          21.9586   71.4692   -4.6683 O.3     1  UNL1       -0.4371
      4 O          19.7391   71.8760   -3.3205 O.3     1  UNL1       -0.3112
      5 C          18.7133   71.1433   -2.6486 C.3     1  UNL1        0.1811
      6 C          17.0524   70.5986   -5.7906 C.3     1  UNL1        0.2383
      7 C          17.0815   69.2020   -5.1186 C.3     1  UNL1        0.1895
      8 O          15.9474   68.4245   -5.5091 O.3     1  UNL1       -0.3779
      9 C          17.0113   69.5647   -3.6124 C.3     1  UNL1        0.1713
     10 C          17.4880   71.0280   -3.5572 C.3     1  UNL1        0.1764
     11 O          17.8348   71.4188   -4.8970 O.3     1  UNL1       -0.3308
     12 O          15.6701   69.4500   -3.1329 O.3     1  UNL1       -0.3794
     13 H          16.0256   67.5717   -5.0591 H       1  UNL1        0.2106
     14 H          15.4095   68.5262   -3.2482 H       1  UNL1        0.2105
     15 N          17.6691   70.5480   -7.1172 N.ar    1  UNL1       -0.2551
     16 C          16.8910   70.5152   -8.2135 C.ar    1  UNL1        0.3323
     17 N          17.4328   70.4720   -9.4450 N.ar    1  UNL1       -0.2743
     18 C          18.7708   70.4509   -9.5989 C.ar    1  UNL1        0.2626
     19 C          19.6027   70.4792   -8.4529 C.ar    1  UNL1        0.0795
     20 C          19.0333   70.5267   -7.2298 C.ar    1  UNL1        0.0869
     21 O          15.6825   70.5342   -8.0905 O.2     1  UNL1       -0.2464
     22 O          19.2620   70.4070  -10.7130 O.2     1  UNL1       -0.2670
     23 H          16.8562   70.4531  -10.2253 H       1  UNL1        0.1734
     24 O          21.7509   70.6168   -2.1906 O.3     1  UNL1       -0.2703
     25 P          22.8930   71.7477   -2.1111 P.3     1  UNL1        0.2208
     26 O          24.1957   71.1608   -2.4955 O.2     1  UNL1       -0.5170
     27 O          22.5284   72.9500   -3.1190 O.3     1  UNL1       -0.4371
     28 O          22.9823   72.3172   -0.6085 O.3     1  UNL1       -0.2858
     29 C          23.2871   71.2082    0.2381 C.3     1  UNL1        0.2704
     30 C          22.0994   70.9305    1.1609 C.3     1  UNL1        0.1967
     31 C          21.8114   72.1835    1.9936 C.3     1  UNL1        0.1715
     32 C          23.1026   72.6085    2.7022 C.3     1  UNL1        0.1694
     33 C          24.2145   72.7609    1.6613 C.3     1  UNL1        0.1761
     34 O          20.9513   70.6005    0.3772 O.3     1  UNL1       -0.3775
     35 O          20.8019   71.8943    2.9630 O.3     1  UNL1       -0.3794
     36 O          23.4710   71.6152    3.6601 O.3     1  UNL1       -0.3794
     37 O          24.4438   71.5095    1.0152 O.3     1  UNL1       -0.3258
     38 H          21.1799   69.8126   -0.1344 H       1  UNL1        0.2106
     39 H          20.0151   71.6209    2.4745 H       1  UNL1        0.2105
     40 H          22.7414   71.5495    4.2899 H       1  UNL1        0.2105
     41 C          25.5001   73.2184    2.3542 C.3     1  UNL1        0.1693
     42 O          25.1904   73.6926    3.6658 O.3     1  UNL1       -0.3794
     43 H          26.0253   73.9698    4.0675 H       1  UNL1        0.2105
@<TRIPOS>BOND
     1    15    16   ar
     2    15    20   ar
     3    15     6    1
     4    16    17   ar
     5    16    21    2
     6    17    18   ar
     7    17    23    1
     8    18    19   ar
     9    18    22    2
    10    19    20   ar
    11     6     7    1
    12     6    11    1
    13     7     8    1
    14     7     9    1
    15     8    13    1
    16     9    10    1
    17     9    12    1
    18    10    11    1
    19    10     5    1
    20    12    14    1
    21     5     4    1
    22     4     1    1
    23     1     2    2
    24     1     3    1
    25     1    24    1
    26    24    25    1
    27    25    26    2
    28    25    27    1
    29    25    28    1
    30    28    29    1
    31    29    30    1
    32    29    37    1
    33    30    31    1
    34    30    34    1
    35    31    32    1
    36    31    35    1
    37    32    33    1
    38    32    36    1
    39    33    41    1
    40    33    37    1
    41    41    42    1
    42    34    38    1
    43    35    39    1
    44    36    40    1
    45    42    43    1
@<TRIPOS>MOLECULE
GDU
 43 45 0 0 0
SMALL
GASTEIGER

@<TRIPOS>ATOM
      1 P          20.7243   71.7863   -1.5840 P.3     1  UNL1        0.2189
      2 O          19.7615   72.6421   -0.8559 O.2     1  UNL1       -0.5170
      3 O          21.1589   70.5506   -0.6475 O.3     1  UNL1       -0.4371
      4 O          20.0371   71.2267   -2.9262 O.3     1  UNL1       -0.3112
      5 C          18.9987   70.3345   -2.5184 C.3     1  UNL1        0.1811
      6 C          17.2261   70.4877   -5.6428 C.3     1  UNL1        0.2383
      7 C          17.0044   69.0381   -5.1404 C.3     1  UNL1        0.1895
      8 O          15.7411   68.5338   -5.5795 O.3     1  UNL1       -0.3779
      9 C          17.0217   69.2218   -3.6005 C.3     1  UNL1        0.1713
     10 C          17.7619   70.5559   -3.3910 C.3     1  UNL1        0.1764
     11 O          18.1582   71.0367   -4.6871 O.3     1  UNL1       -0.3308
     12 O          15.6886   69.2963   -3.0913 O.3     1  UNL1       -0.3794
     13 H          15.6656   67.6328   -5.2353 H       1  UNL1        0.2106
     14 H          15.2598   68.4565   -3.3048 H       1  UNL1        0.2105
     15 N          17.8060   70.4870   -6.9869 N.ar    1  UNL1       -0.2551
     16 C          16.9981   70.4669   -8.0617 C.ar    1  UNL1        0.3323
     17 N          17.5056   70.4694   -9.3084 N.ar    1  UNL1       -0.2743
     18 C          18.8388   70.4820   -9.4999 C.ar    1  UNL1        0.2626
     19 C          19.7021   70.4974   -8.3770 C.ar    1  UNL1        0.0795
     20 C          19.1666   70.4989   -7.1378 C.ar    1  UNL1        0.0869
     21 O          15.7934   70.4558   -7.9048 O.2     1  UNL1       -0.2464
     22 O          19.2992   70.4794  -10.6279 O.2     1  UNL1       -0.2670
     23 H          16.9076   70.4591  -10.0727 H       1  UNL1        0.1734
     24 O          22.0269   72.6516   -1.9671 O.3     1  UNL1       -0.2703
     25 P          22.5423   72.1127   -3.3933 P.3     1  UNL1        0.2208
     26 O          23.9390   71.6411   -3.2667 O.2     1  UNL1       -0.5170
     27 O          21.6066   70.8939   -3.8761 O.3     1  UNL1       -0.4371
     28 O          22.4724   73.3023   -4.4749 O.3     1  UNL1       -0.2858
     29 C          21.4665   72.9427   -5.4228 C.3     1  UNL1        0.2704
     30 C          22.0160   73.1177   -6.8394 C.3     1  UNL1        0.1967
     31 C          22.4438   74.5760   -7.0317 C.3     1  UNL1        0.1715
     32 C          21.2623   75.4845   -6.6734 C.3     1  UNL1        0.1694
     33 C          20.7710   75.1310   -5.2675 C.3     1  UNL1        0.1761
     34 O          23.1421   72.2585   -7.0255 O.3     1  UNL1       -0.3775
     35 O          22.8215   74.7900   -8.3933 O.3     1  UNL1       -0.3794
     36 O          20.2073   75.2905   -7.6164 O.3     1  UNL1       -0.3794
     37 O          20.3243   73.7762   -5.2402 O.3     1  UNL1       -0.3258
     38 H          22.8287   71.3541   -6.8883 H       1  UNL1        0.2106
     39 H          23.5567   74.1916   -8.5771 H       1  UNL1        0.2105
     40 H          20.5628   75.5189   -8.4851 H       1  UNL1        0.2105
     41 C          19.6129   76.0559   -4.8863 C.3     1  UNL1        0.1693
     42 O          19.5051   76.1212   -3.4632 O.3     1  UNL1       -0.3794
     43 H          18.7662   76.7129   -3.2653 H       1  UNL1        0.2105
@<TRIPOS>BOND
     1    15    16   ar
     2    15    20   ar
     3    15     6    1
     4    16    17   ar
     5    16    21    2
     6    17    18   ar
     7    17    23    1
     8    18    19   ar
     9    18    22    2
    10    19    20   ar
    11     6     7    1
    12     6    11    1
    13     7     8    1
    14     7     9    1
    15     8    13    1
    16     9    10    1
    17     9    12    1
    18    10    11    1
    19    10     5    1
    20    12    14    1
    21     5     4    1
    22     4     1    1
    23     1     2    2
    24     1     3    1
    25     1    24    1
    26    24    25    1
    27    25    26    2
    28    25    27    1
    29    25    28    1
    30    28    29    1
    31    29    30    1
    32    29    37    1
    33    30    31    1
    34    30    34    1
    35    31    32    1
    36    31    35    1
    37    32    33    1
    38    32    36    1
    39    33    41    1
    40    33    37    1
    41    41    42    1
    42    34    38    1
    43    35    39    1
    44    36    40    1
    45    42    43    1
@<TRIPOS>MOLECULE
GDU
 43 45 0 0 0
SMALL
GASTEIGER

@<TRIPOS>ATOM
      1 P          21.0019   71.7548   -2.1532 P.3     1  UNL1        0.2189
      2 O          21.8837   70.6711   -2.6404 O.2     1  UNL1       -0.5170
      3 O          21.7976   73.1541   -2.1959 O.3     1  UNL1       -0.4371
      4 O          19.6989   71.8496   -3.0914 O.3     1  UNL1       -0.3112
      5 C          18.7129   70.9895   -2.5183 C.3     1  UNL1        0.1811
      6 C          17.0548   70.6100   -5.6860 C.3     1  UNL1        0.2383
      7 C          17.0625   69.1843   -5.0776 C.3     1  UNL1        0.1895
      8 O          15.9191   68.4410   -5.5057 O.3     1  UNL1       -0.3779
      9 C          16.9924   69.4798   -3.5567 C.3     1  UNL1        0.1713
     10 C          17.4890   70.9323   -3.4343 C.3     1  UNL1        0.1764
     11 O          17.8456   71.3782   -4.7543 O.3     1  UNL1       -0.3308
     12 O          15.6482   69.3623   -3.0864 O.3     1  UNL1       -0.3794
     13 H          15.9840   67.5679   -5.0943 H       1  UNL1        0.2106
     14 H          15.3752   68.4483   -3.2439 H       1  UNL1        0.2105
     15 N          17.6751   70.6106   -7.0120 N.ar    1  UNL1       -0.2551
     16 C          16.9068   70.4784   -8.1076 C.ar    1  UNL1        0.3323
     17 N          17.4516   70.4794   -9.3385 N.ar    1  UNL1       -0.2743
     18 C          18.7840   70.6036   -9.4923 C.ar    1  UNL1        0.2626
     19 C          19.6063   70.7378   -8.3468 C.ar    1  UNL1        0.0795
     20 C          19.0335   70.7380   -7.1244 C.ar    1  UNL1        0.0869
     21 O          15.7033   70.3660   -7.9847 O.2     1  UNL1       -0.2464
     22 O          19.2785   70.5997  -10.6058 O.2     1  UNL1       -0.2670
     23 H          16.8816   70.3873  -10.1184 H       1  UNL1        0.1734
     24 O          20.5529   71.4403   -0.6393 O.3     1  UNL1       -0.2703
     25 P          21.9016   71.2295    0.2131 P.3     1  UNL1        0.2208
     26 O          21.7703   70.0179    1.0521 O.2     1  UNL1       -0.5170
     27 O          23.1488   71.0539   -0.7908 O.3     1  UNL1       -0.4371
     28 O          22.1485   72.5112    1.1546 O.3     1  UNL1       -0.2858
     29 C          22.5608   72.0164    2.4294 C.3     1  UNL1        0.2704
     30 C          21.7233   72.6754    3.5265 C.3     1  UNL1        0.1967
     31 C          21.9079   74.1941    3.4502 C.3     1  UNL1        0.1715
     32 C          23.4075   74.5084    3.4968 C.3     1  UNL1        0.1694
     33 C          24.1174   73.7112    2.3998 C.3     1  UNL1        0.1761
     34 O          20.3452   72.3492    3.3376 O.3     1  UNL1       -0.3775
     35 O          21.2504   74.8139    4.5575 O.3     1  UNL1       -0.3794
     36 O          23.9324   74.1446    4.7743 O.3     1  UNL1       -0.3794
     37 O          23.9407   72.3140    2.6291 O.3     1  UNL1       -0.3258
     38 H          20.2773   71.3859    3.3861 H       1  UNL1        0.2106
     39 H          20.3156   74.5802    4.4944 H       1  UNL1        0.2105
     40 H          23.4536   74.6652    5.4323 H       1  UNL1        0.2105
     41 C          25.6111   74.0440    2.4154 C.3     1  UNL1        0.1693
     42 O          26.3582   72.8632    2.7127 O.3     1  UNL1       -0.3794
     43 H          27.2919   73.1152    2.7122 H       1  UNL1        0.2105
@<TRIPOS>BOND
     1    15    16   ar
     2    15    20   ar
     3    15     6    1
     4    16    17   ar
     5    16    21    2
     6    17    18   ar
     7    17    23    1
     8    18    19   ar
     9    18    22    2
    10    19    20   ar
    11     6     7    1
    12     6    11    1
    13     7     8    1
    14     7     9    1
    15     8    13    1
    16     9    10    1
    17     9    12    1
    18    10    11    1
    19    10     5    1
    20    12    14    1
    21     5     4    1
    22     4     1    1
    23     1     2    2
    24     1     3    1
    25     1    24    1
    26    24    25    1
    27    25    26    2
    28    25    27    1
    29    25    28    1
    30    28    29    1
    31    29    30    1
    32    29    37    1
    33    30    31    1
    34    30    34    1
    35    31    32    1
    36    31    35    1
    37    32    33    1
    38    32    36    1
    39    33    41    1
    40    33    37    1
    41    41    42    1
    42    34    38    1
    43    35    39    1
    44    36    40    1
    45    42    43    1
@<TRIPOS>MOLECULE
GDU
 43 45 0 0 0
SMALL
GASTEIGER

@<TRIPOS>ATOM
      1 P          20.8369   71.5488   -1.9102 P.3     1  UNL1        0.2189
      2 O          20.3045   72.9131   -1.6987 O.2     1  UNL1       -0.5170
      3 O          20.6897   70.6986   -0.5506 O.3     1  UNL1       -0.4371
      4 O          20.0116   70.8266   -3.0867 O.3     1  UNL1       -0.3112
      5 C          18.8672   70.2244   -2.4799 C.3     1  UNL1        0.1811
      6 C          17.1466   70.4170   -5.6310 C.3     1  UNL1        0.2383
      7 C          16.9430   68.9525   -5.1654 C.3     1  UNL1        0.1895
      8 O          15.6970   68.4356   -5.6382 O.3     1  UNL1       -0.3779
      9 C          16.9301   69.1012   -3.6217 C.3     1  UNL1        0.1713
     10 C          17.6418   70.4433   -3.3691 C.3     1  UNL1        0.1764
     11 O          18.0516   70.9607   -4.6468 O.3     1  UNL1       -0.3308
     12 O          15.5872   69.1400   -3.1347 O.3     1  UNL1       -0.3794
     13 H          15.6321   67.5258   -5.3158 H       1  UNL1        0.2106
     14 H          15.1778   68.2977   -3.3747 H       1  UNL1        0.2105
     15 N          17.7496   70.4575   -6.9643 N.ar    1  UNL1       -0.2551
     16 C          16.9606   70.4589   -8.0532 C.ar    1  UNL1        0.3323
     17 N          17.4896   70.4992   -9.2903 N.ar    1  UNL1       -0.2743
     18 C          18.8257   70.5291   -9.4579 C.ar    1  UNL1        0.2626
     19 C          19.6693   70.5223   -8.3201 C.ar    1  UNL1        0.0795
     20 C          19.1124   70.4857   -7.0909 C.ar    1  UNL1        0.0869
     21 O          15.7535   70.4327   -7.9178 O.2     1  UNL1       -0.2464
     22 O          19.3055   70.5609  -10.5774 O.2     1  UNL1       -0.2670
     23 H          16.9051   70.5040  -10.0650 H       1  UNL1        0.1734
     24 O          22.3915   71.6380   -2.3200 O.3     1  UNL1       -0.2703
     25 P          22.8606   73.1525   -2.0441 P.3     1  UNL1        0.2208
     26 O          23.5657   73.6750   -3.2353 O.2     1  UNL1       -0.5170
     27 O          21.5699   74.0671   -1.7410 O.3     1  UNL1       -0.4371
     28 O          23.8505   73.1862   -0.7756 O.3     1  UNL1       -0.2858
     29 C          23.0686   73.5871    0.3503 C.3     1  UNL1        0.2704
     30 C          23.6196   74.8989    0.9116 C.3     1  UNL1        0.1967
     31 C          25.0829   74.6930    1.3150 C.3     1  UNL1        0.1715
     32 C          25.1653   73.4919    2.2638 C.3     1  UNL1        0.1694
     33 C          24.4983   72.2854    1.5985 C.3     1  UNL1        0.1761
     34 O          23.5353   75.9189   -0.0852 O.3     1  UNL1       -0.3775
     35 O          25.5681   75.8638    1.9756 O.3     1  UNL1       -0.3794
     36 O          24.4940   73.8013    3.4859 O.3     1  UNL1       -0.3794
     37 O          23.1228   72.5721    1.3500 O.3     1  UNL1       -0.3258
     38 H          22.6001   76.0093   -0.3135 H       1  UNL1        0.2106
     39 H          25.4865   76.5932    1.3482 H       1  UNL1        0.2105
     40 H          24.9429   74.5680    3.8654 H       1  UNL1        0.2105
     41 C          24.6055   71.0711    2.5236 C.3     1  UNL1        0.1693
     42 O          24.6424   69.8776    1.7393 O.3     1  UNL1       -0.3794
     43 H          24.7107   69.1378    2.3585 H       1  UNL1        0.2105
@<TRIPOS>BOND
     1    15    16   ar
     2    15    20   ar
     3    15     6    1
     4    16    17   ar
     5    16    21    2
     6    17    18   ar
     7    17    23    1
     8    18    19   ar
     9    18    22    2
    10    19    20   ar
    11     6     7    1
    12     6    11    1
    13     7     8    1
    14     7     9    1
    15     8    13    1
    16     9    10    1
    17     9    12    1
    18    10    11    1
    19    10     5    1
    20    12    14    1
    21     5     4    1
    22     4     1    1
    23     1     2    2
    24     1     3    1
    25     1    24    1
    26    24    25    1
    27    25    26    2
    28    25    27    1
    29    25    28    1
    30    28    29    1
    31    29    30    1
    32    29    37    1
    33    30    31    1
    34    30    34    1
    35    31    32    1
    36    31    35    1
    37    32    33    1
    38    32    36    1
    39    33    41    1
    40    33    37    1
    41    41    42    1
    42    34    38    1
    43    35    39    1
    44    36    40    1
    45    42    43    1
@<TRIPOS>MOLECULE
GDU
 43 45 0 0 0
SMALL
GASTEIGER

@<TRIPOS>ATOM
      1 P          23.2317   73.2446   -4.1557 P.3     1  UNL1        0.2189
      2 O          24.5265   72.5653   -3.9285 O.2     1  UNL1       -0.5170
      3 O          23.4876   74.6569   -4.8856 O.3     1  UNL1       -0.4371
      4 O          22.2970   72.3222   -5.0842 O.3     1  UNL1       -0.3112
      5 C          22.6298   72.6276   -6.4394 C.3     1  UNL1        0.1811
      6 C          19.1504   72.0996   -7.1761 C.3     1  UNL1        0.2383
      7 C          19.1724   73.3744   -6.2944 C.3     1  UNL1        0.1895
      8 O          18.0963   74.2504   -6.6378 O.3     1  UNL1       -0.3779
      9 C          20.5393   74.0044   -6.6681 C.3     1  UNL1        0.1713
     10 C          21.3471   72.8287   -7.2485 C.3     1  UNL1        0.1764
     11 O          20.5231   71.6536   -7.1578 O.3     1  UNL1       -0.3308
     12 O          20.3653   75.0316   -7.6461 O.3     1  UNL1       -0.3794
     13 H          18.1665   75.0198   -6.0556 H       1  UNL1        0.2106
     14 H          19.8043   75.7088   -7.2443 H       1  UNL1        0.2105
     15 N          18.2703   71.0838   -6.5963 N.ar    1  UNL1       -0.2551
     16 C          17.2196   70.6301   -7.3023 C.ar    1  UNL1        0.3323
     17 N          16.3970   69.6939   -6.7937 N.ar    1  UNL1       -0.2743
     18 C          16.6091   69.2011   -5.5582 C.ar    1  UNL1        0.2626
     19 C          17.7086   69.6738   -4.8007 C.ar    1  UNL1        0.0795
     20 C          18.5203   70.6100   -5.3364 C.ar    1  UNL1        0.0869
     21 O          17.0158   71.0649   -8.4184 O.2     1  UNL1       -0.2464
     22 O          15.8622   68.3572   -5.0951 O.2     1  UNL1       -0.2670
     23 H          15.6459   69.3749   -7.3190 H       1  UNL1        0.1734
     24 O          22.5039   73.4969   -2.7418 O.3     1  UNL1       -0.2703
     25 P          22.6285   72.1295   -1.9023 P.3     1  UNL1        0.2208
     26 O          21.2763   71.6008   -1.6175 O.2     1  UNL1       -0.5170
     27 O          23.4577   71.0472   -2.7598 O.3     1  UNL1       -0.4371
     28 O          23.3961   72.4170   -0.5173 O.3     1  UNL1       -0.2858
     29 C          22.7416   73.5278    0.0971 C.3     1  UNL1        0.2704
     30 C          23.7536   74.6514    0.3272 C.3     1  UNL1        0.1967
     31 C          24.8843   74.1290    1.2188 C.3     1  UNL1        0.1715
     32 C          24.2702   73.5338    2.4908 C.3     1  UNL1        0.1694
     33 C          23.2196   72.4928    2.0963 C.3     1  UNL1        0.1761
     34 O          24.2890   75.0775   -0.9270 O.3     1  UNL1       -0.3775
     35 O          25.7599   75.2048    1.5635 O.3     1  UNL1       -0.3794
     36 O          23.6570   74.5720    3.2564 O.3     1  UNL1       -0.3794
     37 O          22.1818   73.1180    1.3426 O.3     1  UNL1       -0.3258
     38 H          23.5433   75.3906   -1.4568 H       1  UNL1        0.2106
     39 H          26.1123   75.5550    0.7356 H       1  UNL1        0.2105
     40 H          24.3525   75.2053    3.4768 H       1  UNL1        0.2105
     41 C          22.6242   71.8673    3.3597 C.3     1  UNL1        0.1693
     42 O          21.5344   72.6689    3.8189 O.3     1  UNL1       -0.3794
     43 H          21.1877   72.2410    4.6138 H       1  UNL1        0.2105
@<TRIPOS>BOND
     1    15    16   ar
     2    15    20   ar
     3    15     6    1
     4    16    17   ar
     5    16    21    2
     6    17    18   ar
     7    17    23    1
     8    18    19   ar
     9    18    22    2
    10    19    20   ar
    11     6     7    1
    12     6    11    1
    13     7     8    1
    14     7     9    1
    15     8    13    1
    16     9    10    1
    17     9    12    1
    18    10    11    1
    19    10     5    1
    20    12    14    1
    21     5     4    1
    22     4     1    1
    23     1     2    2
    24     1     3    1
    25     1    24    1
    26    24    25    1
    27    25    26    2
    28    25    27    1
    29    25    28    1
    30    28    29    1
    31    29    30    1
    32    29    37    1
    33    30    31    1
    34    30    34    1
    35    31    32    1
    36    31    35    1
    37    32    33    1
    38    32    36    1
    39    33    41    1
    40    33    37    1
    41    41    42    1
    42    34    38    1
    43    35    39    1
    44    36    40    1
    45    42    43    1
@<TRIPOS>MOLECULE
GDU
 43 45 0 0 0
SMALL
GASTEIGER

@<TRIPOS>ATOM
      1 P          20.9314   71.9420   -2.1802 P.3     1  UNL1        0.2189
      2 O          21.6202   70.6353   -2.0939 O.2     1  UNL1       -0.5170
      3 O          21.1784   72.5836   -3.6364 O.3     1  UNL1       -0.4371
      4 O          19.3538   71.7340   -1.9461 O.3     1  UNL1       -0.3112
      5 C          19.0134   70.4707   -2.5195 C.3     1  UNL1        0.1811
      6 C          17.2194   70.4943   -5.6353 C.3     1  UNL1        0.2383
      7 C          17.0643   69.0449   -5.1080 C.3     1  UNL1        0.1895
      8 O          15.8220   68.4784   -5.5313 O.3     1  UNL1       -0.3779
      9 C          17.0815   69.2546   -3.5714 C.3     1  UNL1        0.1713
     10 C          17.7634   70.6232   -3.3881 C.3     1  UNL1        0.1764
     11 O          18.1314   71.0994   -4.6943 O.3     1  UNL1       -0.3308
     12 O          15.7491   69.2790   -3.0556 O.3     1  UNL1       -0.3794
     13 H          15.7880   67.5809   -5.1720 H       1  UNL1        0.2106
     14 H          15.3566   68.4177   -3.2528 H       1  UNL1        0.2105
     15 N          17.7916   70.4968   -6.9827 N.ar    1  UNL1       -0.2551
     16 C          16.9786   70.4459   -8.0526 C.ar    1  UNL1        0.3323
     17 N          17.4790   70.4505   -9.3022 N.ar    1  UNL1       -0.2743
     18 C          18.8103   70.4965   -9.5014 C.ar    1  UNL1        0.2626
     19 C          19.6791   70.5446   -8.3837 C.ar    1  UNL1        0.0795
     20 C          19.1506   70.5431   -7.1415 C.ar    1  UNL1        0.0869
     21 O          15.7755   70.4046   -7.8886 O.2     1  UNL1       -0.2464
     22 O          19.2643   70.4959  -10.6320 O.2     1  UNL1       -0.2670
     23 H          16.8773   70.4177  -10.0629 H       1  UNL1        0.1734
     24 O          21.5166   72.9316   -1.0530 O.3     1  UNL1       -0.2703
     25 P          20.9919   72.3842    0.3665 P.3     1  UNL1        0.2208
     26 O          19.6918   73.0134    0.6875 O.2     1  UNL1       -0.5170
     27 O          20.8098   70.7857    0.2909 O.3     1  UNL1       -0.4371
     28 O          22.0624   72.7476    1.5120 O.3     1  UNL1       -0.2858
     29 C          23.2295   73.2361    0.8493 C.3     1  UNL1        0.2704
     30 C          24.2922   72.1367    0.8131 C.3     1  UNL1        0.1967
     31 C          24.6218   71.7144    2.2482 C.3     1  UNL1        0.1715
     32 C          25.0024   72.9633    3.0513 C.3     1  UNL1        0.1694
     33 C          23.8840   74.0000    2.9192 C.3     1  UNL1        0.1761
     34 O          23.7940   71.0132    0.0846 O.3     1  UNL1       -0.3775
     35 O          25.7158   70.7948    2.2388 O.3     1  UNL1       -0.3794
     36 O          26.2236   73.5036    2.5444 O.3     1  UNL1       -0.3794
     37 O          23.7314   74.3717    1.5501 O.3     1  UNL1       -0.3258
     38 H          23.5935   71.3262   -0.8080 H       1  UNL1        0.2106
     39 H          25.4369   70.0334    1.7147 H       1  UNL1        0.2105
     40 H          26.8956   72.8165    2.6423 H       1  UNL1        0.2105
     41 C          24.2385   75.2383    3.7456 C.3     1  UNL1        0.1693
     42 O          23.7395   75.0815    5.0751 O.3     1  UNL1       -0.3794
     43 H          23.9839   75.8807    5.5618 H       1  UNL1        0.2105
@<TRIPOS>BOND
     1    15    16   ar
     2    15    20   ar
     3    15     6    1
     4    16    17   ar
     5    16    21    2
     6    17    18   ar
     7    17    23    1
     8    18    19   ar
     9    18    22    2
    10    19    20   ar
    11     6     7    1
    12     6    11    1
    13     7     8    1
    14     7     9    1
    15     8    13    1
    16     9    10    1
    17     9    12    1
    18    10    11    1
    19    10     5    1
    20    12    14    1
    21     5     4    1
    22     4     1    1
    23     1     2    2
    24     1     3    1
    25     1    24    1
    26    24    25    1
    27    25    26    2
    28    25    27    1
    29    25    28    1
    30    28    29    1
    31    29    30    1
    32    29    37    1
    33    30    31    1
    34    30    34    1
    35    31    32    1
    36    31    35    1
    37    32    33    1
    38    32    36    1
    39    33    41    1
    40    33    37    1
    41    41    42    1
    42    34    38    1
    43    35    39    1
    44    36    40    1
    45    42    43    1
@<TRIPOS>MOLECULE
GDU
 43 45 0 0 0
SMALL
GASTEIGER

@<TRIPOS>ATOM
      1 P          20.5263   71.1330   -1.6275 P.3     1  UNL1        0.2189
      2 O          20.5386   72.6111   -1.6946 O.2     1  UNL1       -0.5170
      3 O          20.7817   70.6627   -0.1088 O.3     1  UNL1       -0.4371
      4 O          19.0989   70.5846   -2.1262 O.3     1  UNL1       -0.3112
      5 C          18.3614   71.7153   -2.5931 C.3     1  UNL1        0.1811
      6 C          17.0075   70.5801   -5.7245 C.3     1  UNL1        0.2383
      7 C          17.3461   69.2792   -4.9525 C.3     1  UNL1        0.1895
      8 O          16.4497   68.2252   -5.3114 O.3     1  UNL1       -0.3779
      9 C          17.1305   69.7106   -3.4785 C.3     1  UNL1        0.1713
     10 C          17.2373   71.2464   -3.5187 C.3     1  UNL1        0.1764
     11 O          17.5325   71.6223   -4.8750 O.3     1  UNL1       -0.3308
     12 O          15.8387   69.3040   -3.0227 O.3     1  UNL1       -0.3794
     13 H          16.7134   67.4482   -4.7990 H       1  UNL1        0.2106
     14 H          15.8135   68.3391   -3.0767 H       1  UNL1        0.2105
     15 N          17.6704   70.5954   -7.0295 N.ar    1  UNL1       -0.2551
     16 C          16.9345   70.5166   -8.1523 C.ar    1  UNL1        0.3323
     17 N          17.5190   70.5322   -9.3647 N.ar    1  UNL1       -0.2743
     18 C          18.8589   70.6175   -9.4725 C.ar    1  UNL1        0.2626
     19 C          19.6472   70.6952   -8.2983 C.ar    1  UNL1        0.0795
     20 C          19.0351   70.6819   -7.0952 C.ar    1  UNL1        0.0869
     21 O          15.7247   70.4398   -8.0708 O.2     1  UNL1       -0.2464
     22 O          19.3892   70.6268  -10.5694 O.2     1  UNL1       -0.2670
     23 H          16.9721   70.4789  -10.1646 H       1  UNL1        0.1734
     24 O          21.6890   70.5441   -2.5729 O.3     1  UNL1       -0.2703
     25 P          23.0179   71.3981   -2.2653 P.3     1  UNL1        0.2208
     26 O          23.2480   71.4430   -0.8045 O.2     1  UNL1       -0.5170
     27 O          24.2802   70.7043   -2.9859 O.3     1  UNL1       -0.4371
     28 O          22.8370   72.8953   -2.8273 O.3     1  UNL1       -0.2858
     29 C          24.0149   73.2035   -3.5737 C.3     1  UNL1        0.2704
     30 C          24.4024   74.6635   -3.3336 C.3     1  UNL1        0.1967
     31 C          23.2398   75.5647   -3.7612 C.3     1  UNL1        0.1715
     32 C          22.8582   75.2201   -5.2052 C.3     1  UNL1        0.1694
     33 C          22.5858   73.7171   -5.3029 C.3     1  UNL1        0.1761
     34 O          24.6795   74.8632   -1.9463 O.3     1  UNL1       -0.3775
     35 O          23.6397   76.9345   -3.6815 O.3     1  UNL1       -0.3794
     36 O          23.9302   75.5742   -6.0802 O.3     1  UNL1       -0.3794
     37 O          23.7655   72.9908   -4.9612 O.3     1  UNL1       -0.3258
     38 H          25.4107   74.2725   -1.7200 H       1  UNL1        0.2106
     39 H          23.8813   77.1024   -2.7618 H       1  UNL1        0.2105
     40 H          24.0699   76.5250   -5.9812 H       1  UNL1        0.2105
     41 C          22.1704   73.3678   -6.7338 C.3     1  UNL1        0.1693
     42 O          22.9709   72.2847   -7.2103 O.3     1  UNL1       -0.3794
     43 H          22.6776   72.0956   -8.1123 H       1  UNL1        0.2105
@<TRIPOS>BOND
     1    15    16   ar
     2    15    20   ar
     3    15     6    1
     4    16    17   ar
     5    16    21    2
     6    17    18   ar
     7    17    23    1
     8    18    19   ar
     9    18    22    2
    10    19    20   ar
    11     6     7    1
    12     6    11    1
    13     7     8    1
    14     7     9    1
    15     8    13    1
    16     9    10    1
    17     9    12    1
    18    10    11    1
    19    10     5    1
    20    12    14    1
    21     5     4    1
    22     4     1    1
    23     1     2    2
    24     1     3    1
    25     1    24    1
    26    24    25    1
    27    25    26    2
    28    25    27    1
    29    25    28    1
    30    28    29    1
    31    29    30    1
    32    29    37    1
    33    30    31    1
    34    30    34    1
    35    31    32    1
    36    31    35    1
    37    32    33    1
    38    32    36    1
    39    33    41    1
    40    33    37    1
    41    41    42    1
    42    34    38    1
    43    35    39    1
    44    36    40    1
    45    42    43    1
@<TRIPOS>MOLECULE
GDU
 43 45 0 0 0
SMALL
GASTEIGER

@<TRIPOS>ATOM
      1 P          21.9489   71.4046   -1.1370 P.3     1  UNL1        0.2189
      2 O          21.7430   72.8613   -0.9782 O.2     1  UNL1       -0.5170
      3 O          20.7673   70.6105   -0.3845 O.3     1  UNL1       -0.4371
      4 O          21.9377   71.0279   -2.7005 O.3     1  UNL1       -0.3112
      5 C          21.6479   72.2311   -3.4140 C.3     1  UNL1        0.1811
      6 C          20.5442   71.7319   -6.7992 C.3     1  UNL1        0.2383
      7 C          20.7553   73.2630   -6.6805 C.3     1  UNL1        0.1895
      8 O          21.1497   73.8221   -7.9356 O.3     1  UNL1       -0.3779
      9 C          21.9091   73.3528   -5.6481 C.3     1  UNL1        0.1713
     10 C          21.8583   72.0013   -4.9116 C.3     1  UNL1        0.1764
     11 O          20.7522   71.2577   -5.4518 O.3     1  UNL1       -0.3308
     12 O          23.1626   73.5210   -6.3130 O.3     1  UNL1       -0.3794
     13 H          21.2638   74.7723   -7.7940 H       1  UNL1        0.2106
     14 H          23.1107   74.3532   -6.8024 H       1  UNL1        0.2105
     15 N          19.1840   71.4299   -7.2481 N.ar    1  UNL1       -0.2551
     16 C          18.9803   70.4500   -8.1462 C.ar    1  UNL1        0.3323
     17 N          17.7393   70.1499   -8.5727 N.ar    1  UNL1       -0.2743
     18 C          16.6769   70.8373   -8.1111 C.ar    1  UNL1        0.2626
     19 C          16.8769   71.8759   -7.1691 C.ar    1  UNL1        0.0795
     20 C          18.1315   72.1533   -6.7550 C.ar    1  UNL1        0.0869
     21 O          19.9288   69.8210   -8.5712 O.2     1  UNL1       -0.2464
     22 O          15.5538   70.5695   -8.5002 O.2     1  UNL1       -0.2670
     23 H          17.6103   69.4367   -9.2180 H       1  UNL1        0.1734
     24 O          23.3659   70.9907   -0.4940 O.3     1  UNL1       -0.2703
     25 P          23.1520   70.9184    1.0994 P.3     1  UNL1        0.2208
     26 O          21.9124   70.1675    1.3970 O.2     1  UNL1       -0.5170
     27 O          24.4077   70.1701    1.7757 O.3     1  UNL1       -0.4371
     28 O          23.0334   72.4091    1.6942 O.3     1  UNL1       -0.2858
     29 C          22.9560   72.2842    3.1148 C.3     1  UNL1        0.2704
     30 C          21.6520   72.9111    3.6107 C.3     1  UNL1        0.1967
     31 C          21.6176   74.3850    3.1948 C.3     1  UNL1        0.1715
     32 C          22.8985   75.0645    3.6919 C.3     1  UNL1        0.1694
     33 C          24.1089   74.2746    3.1877 C.3     1  UNL1        0.1761
     34 O          20.5405   72.2234    3.0339 O.3     1  UNL1       -0.3775
     35 O          20.4773   75.0212    3.7755 O.3     1  UNL1       -0.3794
     36 O          22.9013   75.0924    5.1199 O.3     1  UNL1       -0.3794
     37 O          24.0690   72.9473    3.7098 O.3     1  UNL1       -0.3258
     38 H          20.6066   71.3008    3.3156 H       1  UNL1        0.2106
     39 H          19.6986   74.5553    3.4456 H       1  UNL1        0.2105
     40 H          22.1212   75.5933    5.3916 H       1  UNL1        0.2105
     41 C          25.3944   74.9643    3.6500 C.3     1  UNL1        0.1693
     42 O          25.6991   74.5566    4.9849 O.3     1  UNL1       -0.3794
     43 H          26.5142   75.0119    5.2374 H       1  UNL1        0.2105
@<TRIPOS>BOND
     1    15    16   ar
     2    15    20   ar
     3    15     6    1
     4    16    17   ar
     5    16    21    2
     6    17    18   ar
     7    17    23    1
     8    18    19   ar
     9    18    22    2
    10    19    20   ar
    11     6     7    1
    12     6    11    1
    13     7     8    1
    14     7     9    1
    15     8    13    1
    16     9    10    1
    17     9    12    1
    18    10    11    1
    19    10     5    1
    20    12    14    1
    21     5     4    1
    22     4     1    1
    23     1     2    2
    24     1     3    1
    25     1    24    1
    26    24    25    1
    27    25    26    2
    28    25    27    1
    29    25    28    1
    30    28    29    1
    31    29    30    1
    32    29    37    1
    33    30    31    1
    34    30    34    1
    35    31    32    1
    36    31    35    1
    37    32    33    1
    38    32    36    1
    39    33    41    1
    40    33    37    1
    41    41    42    1
    42    34    38    1
    43    35    39    1
    44    36    40    1
    45    42    43    1
@<TRIPOS>MOLECULE
GDU
 43 45 0 0 0
SMALL
GASTEIGER

@<TRIPOS>ATOM
      1 P          20.7871   71.5214   -1.3533 P.3     1  UNL1        0.2189
      2 O          19.7759   70.4439   -1.2763 O.2     1  UNL1       -0.5170
      3 O          22.2535   70.8718   -1.4976 O.3     1  UNL1       -0.4371
      4 O          20.4844   72.4517   -2.6299 O.3     1  UNL1       -0.3112
      5 C          21.7263   73.0437   -3.0143 C.3     1  UNL1        0.1811
      6 C          20.8472   72.1250   -6.3774 C.3     1  UNL1        0.2383
      7 C          20.9265   73.6728   -6.4050 C.3     1  UNL1        0.1895
      8 O          21.3398   74.1394   -7.6914 O.3     1  UNL1       -0.3779
      9 C          22.0130   73.9616   -5.3366 C.3     1  UNL1        0.1713
     10 C          22.0335   72.6886   -4.4702 C.3     1  UNL1        0.1764
     11 O          21.0216   71.8035   -4.9811 O.3     1  UNL1       -0.3308
     12 O          23.2821   74.1719   -5.9588 O.3     1  UNL1       -0.3794
     13 H          21.3686   75.1051   -7.6417 H       1  UNL1        0.2106
     14 H          23.1885   74.9451   -6.5316 H       1  UNL1        0.2105
     15 N          19.5417   71.6646   -6.8535 N.ar    1  UNL1       -0.2551
     16 C          19.4661   70.5882   -7.6558 C.ar    1  UNL1        0.3323
     17 N          18.2780   70.1423   -8.1046 N.ar    1  UNL1       -0.2743
     18 C          17.1403   70.7771   -7.7628 C.ar    1  UNL1        0.2626
     19 C          17.2051   71.9158   -6.9229 C.ar    1  UNL1        0.0795
     20 C          18.4093   72.3393   -6.4836 C.ar    1  UNL1        0.0869
     21 O          20.4838   70.0049   -7.9723 O.2     1  UNL1       -0.2464
     22 O          16.0647   70.3771   -8.1724 O.2     1  UNL1       -0.2670
     23 H          18.2417   69.3612   -8.6794 H       1  UNL1        0.1734
     24 O          20.7253   72.4109   -0.0126 O.3     1  UNL1       -0.2703
     25 P          21.6616   71.6820    1.0746 P.3     1  UNL1        0.2208
     26 O          21.4340   70.2210    1.0208 O.2     1  UNL1       -0.5170
     27 O          23.2072   71.9962    0.7483 O.3     1  UNL1       -0.4371
     28 O          21.3031   72.2281    2.5454 O.3     1  UNL1       -0.2858
     29 C          21.8574   73.5404    2.6472 C.3     1  UNL1        0.2704
     30 C          22.8130   73.5984    3.8400 C.3     1  UNL1        0.1967
     31 C          22.0431   73.2361    5.1137 C.3     1  UNL1        0.1715
     32 C          20.8135   74.1453    5.2184 C.3     1  UNL1        0.1694
     33 C          20.0079   74.0442    3.9207 C.3     1  UNL1        0.1761
     34 O          23.8805   72.6693    3.6436 O.3     1  UNL1       -0.3775
     35 O          22.8835   73.4281    6.2537 O.3     1  UNL1       -0.3794
     36 O          21.2332   75.4952    5.4219 O.3     1  UNL1       -0.3794
     37 O          20.8054   74.4864    2.8233 O.3     1  UNL1       -0.3258
     38 H          24.3317   72.9308    2.8294 H       1  UNL1        0.2106
     39 H          23.6467   72.8477    6.1396 H       1  UNL1        0.2105
     40 H          21.7399   75.5098    6.2443 H       1  UNL1        0.2105
     41 C          18.7591   74.9222    4.0280 C.3     1  UNL1        0.1693
     42 O          19.0649   76.2415    3.5730 O.3     1  UNL1       -0.3794
     43 H          18.2536   76.7613    3.6561 H       1  UNL1        0.2105
@<TRIPOS>BOND
     1    15    16   ar
     2    15    20   ar
     3    15     6    1
     4    16    17   ar
     5    16    21    2
     6    17    18   ar
     7    17    23    1
     8    18    19   ar
     9    18    22    2
    10    19    20   ar
    11     6     7    1
    12     6    11    1
    13     7     8    1
    14     7     9    1
    15     8    13    1
    16     9    10    1
    17     9    12    1
    18    10    11    1
    19    10     5    1
    20    12    14    1
    21     5     4    1
    22     4     1    1
    23     1     2    2
    24     1     3    1
    25     1    24    1
    26    24    25    1
    27    25    26    2
    28    25    27    1
    29    25    28    1
    30    28    29    1
    31    29    30    1
    32    29    37    1
    33    30    31    1
    34    30    34    1
    35    31    32    1
    36    31    35    1
    37    32    33    1
    38    32    36    1
    39    33    41    1
    40    33    37    1
    41    41    42    1
    42    34    38    1
    43    35    39    1
    44    36    40    1
    45    42    43    1
@<TRIPOS>MOLECULE
GDU
 43 45 0 0 0
SMALL
GASTEIGER

@<TRIPOS>ATOM
      1 P          22.0738   73.0983   -5.4367 P.3     1  UNL1        0.2189
      2 O          23.3241   72.4810   -5.9319 O.2     1  UNL1       -0.5170
      3 O          21.5209   74.1423   -6.5308 O.3     1  UNL1       -0.4371
      4 O          20.9731   71.9531   -5.1835 O.3     1  UNL1       -0.3112
      5 C          20.2263   71.8221   -6.3941 C.3     1  UNL1        0.1811
      6 C          17.4986   69.8971   -5.0594 C.3     1  UNL1        0.2383
      7 C          16.8864   70.6558   -6.2646 C.3     1  UNL1        0.1895
      8 O          15.8333   69.8969   -6.8633 O.3     1  UNL1       -0.3779
      9 C          18.0987   70.7728   -7.2247 C.3     1  UNL1        0.1713
     10 C          19.3219   70.5915   -6.3068 C.3     1  UNL1        0.1764
     11 O          18.8330   70.4389   -4.9630 O.3     1  UNL1       -0.3308
     12 O          18.0519   69.7447   -8.2160 O.3     1  UNL1       -0.3794
     13 H          15.4967   70.4221   -7.6027 H       1  UNL1        0.2106
     14 H          17.2367   69.8770   -8.7186 H       1  UNL1        0.2105
     15 N          16.7414   70.1702   -3.8367 N.ar    1  UNL1       -0.2551
     16 C          16.8029   69.3070   -2.8075 C.ar    1  UNL1        0.3323
     17 N          16.1193   69.5363   -1.6708 N.ar    1  UNL1       -0.2743
     18 C          15.3506   70.6357   -1.5497 C.ar    1  UNL1        0.2626
     19 C          15.2717   71.5509   -2.6279 C.ar    1  UNL1        0.0795
     20 C          15.9709   71.2988   -3.7549 C.ar    1  UNL1        0.0869
     21 O          17.4925   68.3112   -2.9019 O.2     1  UNL1       -0.2464
     22 O          14.7277   70.8417   -0.5231 O.2     1  UNL1       -0.2670
     23 H          16.1787   68.9047   -0.9364 H       1  UNL1        0.1734
     24 O          22.3694   73.8746   -4.0574 O.3     1  UNL1       -0.2703
     25 P          23.7083   73.2319   -3.4378 P.3     1  UNL1        0.2208
     26 O          23.7358   71.7802   -3.7225 O.2     1  UNL1       -0.5170
     27 O          24.9971   73.9330   -4.1024 O.3     1  UNL1       -0.4371
     28 O          23.7315   73.4681   -1.8461 O.3     1  UNL1       -0.2858
     29 C          22.3737   73.6166   -1.4288 C.3     1  UNL1        0.2704
     30 C          22.2706   74.7729   -0.4330 C.3     1  UNL1        0.1967
     31 C          23.1762   74.4797    0.7671 C.3     1  UNL1        0.1715
     32 C          22.8136   73.1005    1.3292 C.3     1  UNL1        0.1694
     33 C          22.8776   72.0699    0.1992 C.3     1  UNL1        0.1761
     34 O          22.6864   75.9858   -1.0633 O.3     1  UNL1       -0.3775
     35 O          22.9800   75.4770    1.7717 O.3     1  UNL1       -0.3794
     36 O          21.4937   73.1384    1.8737 O.3     1  UNL1       -0.3794
     37 O          21.9323   72.4080   -0.8147 O.3     1  UNL1       -0.3258
     38 H          22.0949   76.1265   -1.8151 H       1  UNL1        0.2106
     39 H          23.2077   76.3258    1.3717 H       1  UNL1        0.2105
     40 H          21.4993   73.8026    2.5752 H       1  UNL1        0.2105
     41 C          22.5505   70.6829    0.7571 C.3     1  UNL1        0.1693
     42 O          21.1425   70.4560    0.6718 O.3     1  UNL1       -0.3794
     43 H          20.9790   69.5735    1.0318 H       1  UNL1        0.2105
@<TRIPOS>BOND
     1    15    16   ar
     2    15    20   ar
     3    15     6    1
     4    16    17   ar
     5    16    21    2
     6    17    18   ar
     7    17    23    1
     8    18    19   ar
     9    18    22    2
    10    19    20   ar
    11     6     7    1
    12     6    11    1
    13     7     8    1
    14     7     9    1
    15     8    13    1
    16     9    10    1
    17     9    12    1
    18    10    11    1
    19    10     5    1
    20    12    14    1
    21     5     4    1
    22     4     1    1
    23     1     2    2
    24     1     3    1
    25     1    24    1
    26    24    25    1
    27    25    26    2
    28    25    27    1
    29    25    28    1
    30    28    29    1
    31    29    30    1
    32    29    37    1
    33    30    31    1
    34    30    34    1
    35    31    32    1
    36    31    35    1
    37    32    33    1
    38    32    36    1
    39    33    41    1
    40    33    37    1
    41    41    42    1
    42    34    38    1
    43    35    39    1
    44    36    40    1
    45    42    43    1
@<TRIPOS>MOLECULE
GDU
 43 45 0 0 0
SMALL
GASTEIGER

@<TRIPOS>ATOM
      1 P          22.9368   73.3940   -5.1700 P.3     1  UNL1        0.2189
      2 O          23.0246   72.4916   -6.3394 O.2     1  UNL1       -0.5170
      3 O          23.1945   74.9116   -5.6428 O.3     1  UNL1       -0.4371
      4 O          21.4743   73.2782   -4.5109 O.3     1  UNL1       -0.3112
      5 C          20.7373   74.4260   -4.9350 C.3     1  UNL1        0.1811
      6 C          18.3096   72.5872   -6.8461 C.3     1  UNL1        0.2383
      7 C          17.5315   73.8147   -6.3068 C.3     1  UNL1        0.1895
      8 O          16.4970   74.2016   -7.2141 O.3     1  UNL1       -0.3779
      9 C          18.6400   74.8972   -6.2377 C.3     1  UNL1        0.1713
     10 C          19.9505   74.0892   -6.2030 C.3     1  UNL1        0.1764
     11 O          19.5971   72.6952   -6.2027 O.3     1  UNL1       -0.3308
     12 O          18.5920   75.7358   -7.3937 O.3     1  UNL1       -0.3794
     13 H          16.0533   74.9663   -6.8215 H       1  UNL1        0.2106
     14 H          17.7273   76.1681   -7.3905 H       1  UNL1        0.2105
     15 N          17.6434   71.3418   -6.4611 N.ar    1  UNL1       -0.2551
     16 C          16.6484   70.8547   -7.2232 C.ar    1  UNL1        0.3323
     17 N          16.0219   69.7098   -6.8936 N.ar    1  UNL1       -0.2743
     18 C          16.3775   69.0355   -5.7832 C.ar    1  UNL1        0.2626
     19 C          17.4201   69.5397   -4.9678 C.ar    1  UNL1        0.0795
     20 C          18.0345   70.6879   -5.3238 C.ar    1  UNL1        0.0869
     21 O          16.3168   71.4517   -8.2281 O.2     1  UNL1       -0.2464
     22 O          15.8078   68.0016   -5.4814 O.2     1  UNL1       -0.2670
     23 H          15.3087   69.3705   -7.4575 H       1  UNL1        0.1734
     24 O          24.0505   72.9749   -4.0853 O.3     1  UNL1       -0.2703
     25 P          23.4220   71.7803   -3.2090 P.3     1  UNL1        0.2208
     26 O          22.2116   71.2593   -3.8817 O.2     1  UNL1       -0.5170
     27 O          24.5045   70.5968   -3.0610 O.3     1  UNL1       -0.4371
     28 O          23.0300   72.3329   -1.7492 O.3     1  UNL1       -0.2858
     29 C          22.3190   71.2865   -1.0865 C.3     1  UNL1        0.2704
     30 C          20.9791   71.8227   -0.5801 C.3     1  UNL1        0.1967
     31 C          21.2389   72.9903    0.3768 C.3     1  UNL1        0.1715
     32 C          22.2089   72.5231    1.4679 C.3     1  UNL1        0.1694
     33 C          23.4574   71.9352    0.8055 C.3     1  UNL1        0.1761
     34 O          20.1952   72.2737   -1.6861 O.3     1  UNL1       -0.3775
     35 O          20.0079   73.4067    0.9716 O.3     1  UNL1       -0.3794
     36 O          21.5771   71.5286    2.2751 O.3     1  UNL1       -0.3794
     37 O          23.0944   70.8077    0.0099 O.3     1  UNL1       -0.3258
     38 H          20.0628   71.5100   -2.2641 H       1  UNL1        0.2106
     39 H          19.4268   73.6794    0.2504 H       1  UNL1        0.2105
     40 H          20.7956   71.9405    2.6662 H       1  UNL1        0.2105
     41 C          24.4477   71.4967    1.8867 C.3     1  UNL1        0.1693
     42 O          24.3796   70.0788    2.0471 O.3     1  UNL1       -0.3794
     43 H          25.0177   69.8439    2.7349 H       1  UNL1        0.2105
@<TRIPOS>BOND
     1    15    16   ar
     2    15    20   ar
     3    15     6    1
     4    16    17   ar
     5    16    21    2
     6    17    18   ar
     7    17    23    1
     8    18    19   ar
     9    18    22    2
    10    19    20   ar
    11     6     7    1
    12     6    11    1
    13     7     8    1
    14     7     9    1
    15     8    13    1
    16     9    10    1
    17     9    12    1
    18    10    11    1
    19    10     5    1
    20    12    14    1
    21     5     4    1
    22     4     1    1
    23     1     2    2
    24     1     3    1
    25     1    24    1
    26    24    25    1
    27    25    26    2
    28    25    27    1
    29    25    28    1
    30    28    29    1
    31    29    30    1
    32    29    37    1
    33    30    31    1
    34    30    34    1
    35    31    32    1
    36    31    35    1
    37    32    33    1
    38    32    36    1
    39    33    41    1
    40    33    37    1
    41    41    42    1
    42    34    38    1
    43    35    39    1
    44    36    40    1
    45    42    43    1
@<TRIPOS>MOLECULE
GDU
 43 45 0 0 0
SMALL
GASTEIGER

@<TRIPOS>ATOM
      1 P          23.1504   74.3507   -3.8066 P.3     1  UNL1        0.2189
      2 O          23.5926   75.7486   -3.6069 O.2     1  UNL1       -0.5170
      3 O          24.4388   73.3925   -3.9280 O.3     1  UNL1       -0.4371
      4 O          22.2531   73.8873   -2.5548 O.3     1  UNL1       -0.3112
      5 C          22.9221   74.3391   -1.3763 C.3     1  UNL1        0.1811
      6 C          23.0610   72.3932    1.6439 C.3     1  UNL1        0.2383
      7 C          21.8378   71.8315    0.8750 C.3     1  UNL1        0.1895
      8 O          21.6503   70.4433    1.1594 O.3     1  UNL1       -0.3779
      9 C          22.2586   72.0415   -0.6029 C.3     1  UNL1        0.1713
     10 C          23.3413   73.1343   -0.5321 C.3     1  UNL1        0.1764
     11 O          23.4699   73.5245    0.8461 O.3     1  UNL1       -0.3308
     12 O          22.7929   70.8329   -1.1467 O.3     1  UNL1       -0.3794
     13 H          20.8775   70.1567    0.6529 H       1  UNL1        0.2106
     14 H          22.0873   70.1730   -1.1095 H       1  UNL1        0.2105
     15 N          22.6747   72.8231    2.9887 N.ar    1  UNL1       -0.2551
     16 C          21.3731   72.8842    3.3211 C.ar    1  UNL1        0.3323
     17 N          20.9913   73.2729    4.5520 N.ar    1  UNL1       -0.2743
     18 C          21.9122   73.6181    5.4723 C.ar    1  UNL1        0.2626
     19 C          23.2867   73.5641    5.1344 C.ar    1  UNL1        0.0795
     20 C          23.6422   73.1668    3.8942 C.ar    1  UNL1        0.0869
     21 O          20.5310   72.5754    2.5017 O.2     1  UNL1       -0.2464
     22 O          21.5673   73.9746    6.5852 O.2     1  UNL1       -0.2670
     23 H          20.0477   73.3070    4.7760 H       1  UNL1        0.1734
     24 O          22.2805   74.2519   -5.1579 O.3     1  UNL1       -0.2703
     25 P          22.1010   72.6861   -5.4838 P.3     1  UNL1        0.2208
     26 O          23.0799   72.2821   -6.5170 O.2     1  UNL1       -0.5170
     27 O          22.3502   71.8274   -4.1441 O.3     1  UNL1       -0.4371
     28 O          20.6086   72.4167   -6.0225 O.3     1  UNL1       -0.2858
     29 C          20.5682   71.0618   -6.4725 C.3     1  UNL1        0.2704
     30 C          20.0609   71.0193   -7.9148 C.3     1  UNL1        0.1967
     31 C          18.6661   71.6499   -7.9716 C.3     1  UNL1        0.1715
     32 C          17.7696   70.9500   -6.9440 C.3     1  UNL1        0.1694
     33 C          18.4503   70.9996   -5.5739 C.3     1  UNL1        0.1761
     34 O          20.9532   71.7506   -8.7577 O.3     1  UNL1       -0.3775
     35 O          18.1181   71.4859   -9.2813 O.3     1  UNL1       -0.3794
     36 O          17.5674   69.5908   -7.3335 O.3     1  UNL1       -0.3794
     37 O          19.6977   70.3091   -5.6308 O.3     1  UNL1       -0.3258
     38 H          21.8179   71.3240   -8.6853 H       1  UNL1        0.2106
     39 H          18.7184   71.9298   -9.8935 H       1  UNL1        0.2105
     40 H          17.1432   69.6085   -8.2013 H       1  UNL1        0.2105
     41 C          17.5475   70.3332   -4.5333 C.3     1  UNL1        0.1693
     42 O          18.2560   69.2644   -3.9037 O.3     1  UNL1       -0.3794
     43 H          17.6539   68.8724   -3.2563 H       1  UNL1        0.2105
@<TRIPOS>BOND
     1    15    16   ar
     2    15    20   ar
     3    15     6    1
     4    16    17   ar
     5    16    21    2
     6    17    18   ar
     7    17    23    1
     8    18    19   ar
     9    18    22    2
    10    19    20   ar
    11     6     7    1
    12     6    11    1
    13     7     8    1
    14     7     9    1
    15     8    13    1
    16     9    10    1
    17     9    12    1
    18    10    11    1
    19    10     5    1
    20    12    14    1
    21     5     4    1
    22     4     1    1
    23     1     2    2
    24     1     3    1
    25     1    24    1
    26    24    25    1
    27    25    26    2
    28    25    27    1
    29    25    28    1
    30    28    29    1
    31    29    30    1
    32    29    37    1
    33    30    31    1
    34    30    34    1
    35    31    32    1
    36    31    35    1
    37    32    33    1
    38    32    36    1
    39    33    41    1
    40    33    37    1
    41    41    42    1
    42    34    38    1
    43    35    39    1
    44    36    40    1
    45    42    43    1
@<TRIPOS>MOLECULE
GDU
 43 45 0 0 0
SMALL
GASTEIGER

@<TRIPOS>ATOM
      1 P          22.6474   73.6317   -4.3913 P.3     1  UNL1        0.2189
      2 O          22.4861   74.6332   -5.4685 O.2     1  UNL1       -0.5170
      3 O          23.8913   72.6688   -4.7357 O.3     1  UNL1       -0.4371
      4 O          22.9209   74.3832   -2.9958 O.3     1  UNL1       -0.3112
      5 C          21.8301   75.2820   -2.7892 C.3     1  UNL1        0.1811
      6 C          21.7387   73.8798    0.5203 C.3     1  UNL1        0.2383
      7 C          22.3019   75.3103    0.7192 C.3     1  UNL1        0.1895
      8 O          21.9308   75.8312    1.9976 O.3     1  UNL1       -0.3779
      9 C          21.6042   76.0956   -0.4217 C.3     1  UNL1        0.1713
     10 C          21.1900   75.0055   -1.4275 C.3     1  UNL1        0.1764
     11 O          21.6579   73.7460   -0.9146 O.3     1  UNL1       -0.3308
     12 O          20.4576   76.7876    0.0766 O.3     1  UNL1       -0.3794
     13 H          22.3107   76.7188    2.0580 H       1  UNL1        0.2106
     14 H          20.7751   77.4125    0.7425 H       1  UNL1        0.2105
     15 N          22.6509   72.8815    1.0809 N.ar    1  UNL1       -0.2551
     16 C          22.1808   71.6718    1.4329 C.ar    1  UNL1        0.3323
     17 N          22.9990   70.7348    1.9473 N.ar    1  UNL1       -0.2743
     18 C          24.3073   70.9994    2.1275 C.ar    1  UNL1        0.2626
     19 C          24.8154   72.2713    1.7666 C.ar    1  UNL1        0.0795
     20 C          23.9738   73.1912    1.2490 C.ar    1  UNL1        0.0869
     21 O          21.0030   71.4184    1.2758 O.2     1  UNL1       -0.2464
     22 O          25.0478   70.1536    2.5974 O.2     1  UNL1       -0.2670
     23 H          22.6435   69.8656    2.1919 H       1  UNL1        0.1734
     24 O          21.3050   72.7505   -4.2737 O.3     1  UNL1       -0.2703
     25 P          20.6823   72.6490   -5.7542 P.3     1  UNL1        0.2208
     26 O          20.0651   73.9432   -6.1193 O.2     1  UNL1       -0.5170
     27 O          21.8512   72.2971   -6.8048 O.3     1  UNL1       -0.4371
     28 O          19.5647   71.4915   -5.7893 O.3     1  UNL1       -0.2858
     29 C          18.3492   72.1014   -6.2257 C.3     1  UNL1        0.2704
     30 C          17.1796   71.5446   -5.4125 C.3     1  UNL1        0.1967
     31 C          17.1203   70.0255   -5.6002 C.3     1  UNL1        0.1715
     32 C          17.0757   69.7185   -7.1013 C.3     1  UNL1        0.1694
     33 C          18.2553   70.4127   -7.7866 C.3     1  UNL1        0.1761
     34 O          17.3693   71.8505   -4.0299 O.3     1  UNL1       -0.3775
     35 O          15.9478   69.5089   -4.9670 O.3     1  UNL1       -0.3794
     36 O          15.8478   70.1983   -7.6509 O.3     1  UNL1       -0.3794
     37 O          18.1513   71.8248   -7.6103 O.3     1  UNL1       -0.3258
     38 H          17.4078   72.8141   -3.9602 H       1  UNL1        0.2106
     39 H          16.0129   69.7348   -4.0305 H       1  UNL1        0.2105
     40 H          15.1353   69.7396   -7.1870 H       1  UNL1        0.2105
     41 C          18.2398   70.0845   -9.2812 C.3     1  UNL1        0.1693
     42 O          18.3493   71.2933  -10.0347 O.3     1  UNL1       -0.3794
     43 H          18.3365   71.0431  -10.9687 H       1  UNL1        0.2105
@<TRIPOS>BOND
     1    15    16   ar
     2    15    20   ar
     3    15     6    1
     4    16    17   ar
     5    16    21    2
     6    17    18   ar
     7    17    23    1
     8    18    19   ar
     9    18    22    2
    10    19    20   ar
    11     6     7    1
    12     6    11    1
    13     7     8    1
    14     7     9    1
    15     8    13    1
    16     9    10    1
    17     9    12    1
    18    10    11    1
    19    10     5    1
    20    12    14    1
    21     5     4    1
    22     4     1    1
    23     1     2    2
    24     1     3    1
    25     1    24    1
    26    24    25    1
    27    25    26    2
    28    25    27    1
    29    25    28    1
    30    28    29    1
    31    29    30    1
    32    29    37    1
    33    30    31    1
    34    30    34    1
    35    31    32    1
    36    31    35    1
    37    32    33    1
    38    32    36    1
    39    33    41    1
    40    33    37    1
    41    41    42    1
    42    34    38    1
    43    35    39    1
    44    36    40    1
    45    42    43    1
@<TRIPOS>MOLECULE
GDU
 43 45 0 0 0
SMALL
GASTEIGER

@<TRIPOS>ATOM
      1 P          21.9014   72.2724   -6.3508 P.3     1  UNL1        0.2189
      2 O          23.2730   72.7069   -6.6964 O.2     1  UNL1       -0.5170
      3 O          20.8634   73.4578   -6.6830 O.3     1  UNL1       -0.4371
      4 O          21.5189   70.9677   -7.2101 O.3     1  UNL1       -0.3112
      5 C          20.5654   71.3822   -8.1896 C.3     1  UNL1        0.1811
      6 C          17.4425   70.1254   -6.9265 C.3     1  UNL1        0.2383
      7 C          17.0378   71.1250   -8.0400 C.3     1  UNL1        0.1895
      8 O          15.8145   70.7266   -8.6629 O.3     1  UNL1       -0.3779
      9 C          18.2262   71.0076   -9.0296 C.3     1  UNL1        0.1713
     10 C          19.3691   70.4289   -8.1749 C.3     1  UNL1        0.1764
     11 O          18.8738   70.2874   -6.8322 O.3     1  UNL1       -0.3308
     12 O          17.8974   70.1228  -10.1024 O.3     1  UNL1       -0.3794
     13 H          15.6195   71.3870   -9.3424 H       1  UNL1        0.2106
     14 H          17.1400   70.5096  -10.5623 H       1  UNL1        0.2105
     15 N          16.7994   70.4742   -5.6586 N.ar    1  UNL1       -0.2551
     16 C          16.4362   69.5007   -4.8050 C.ar    1  UNL1        0.3323
     17 N          15.8465   69.7946   -3.6313 N.ar    1  UNL1       -0.2743
     18 C          15.6006   71.0757   -3.2958 C.ar    1  UNL1        0.2626
     19 C          15.9724   72.1113   -4.1877 C.ar    1  UNL1        0.0795
     20 C          16.5662   71.7889   -5.3564 C.ar    1  UNL1        0.0869
     21 O          16.6520   68.3404   -5.0937 O.2     1  UNL1       -0.2464
     22 O          15.0625   71.3424   -2.2358 O.2     1  UNL1       -0.2670
     23 H          15.5949   69.0795   -3.0254 H       1  UNL1        0.1734
     24 O          21.8298   71.9226   -4.7808 O.3     1  UNL1       -0.2703
     25 P          22.7975   72.9638   -4.0262 P.3     1  UNL1        0.2208
     26 O          24.2068   72.5589   -4.2232 O.2     1  UNL1       -0.5170
     27 O          22.5739   74.4394   -4.6316 O.3     1  UNL1       -0.4371
     28 O          22.4556   72.9729   -2.4536 O.3     1  UNL1       -0.2858
     29 C          21.7021   71.7895   -2.1859 C.3     1  UNL1        0.2704
     30 C          20.4290   72.1583   -1.4226 C.3     1  UNL1        0.1967
     31 C          20.8160   72.8600   -0.1171 C.3     1  UNL1        0.1715
     32 C          21.7988   71.9658    0.6472 C.3     1  UNL1        0.1694
     33 C          22.9699   71.6130   -0.2733 C.3     1  UNL1        0.1761
     34 O          19.6298   73.0340   -2.2198 O.3     1  UNL1       -0.3775
     35 O          19.6468   73.0791    0.6750 O.3     1  UNL1       -0.3794
     36 O          21.1346   70.7715    1.0624 O.3     1  UNL1       -0.3794
     37 O          22.4905   70.8922   -1.4075 O.3     1  UNL1       -0.3258
     38 H          19.4162   72.5549   -3.0320 H       1  UNL1        0.2106
     39 H          19.0543   73.6339    0.1521 H       1  UNL1        0.2105
     40 H          20.4036   71.0418    1.6333 H       1  UNL1        0.2105
     41 C          23.9746   70.7482    0.4913 C.3     1  UNL1        0.1693
     42 O          23.6922   70.8153    1.8901 O.3     1  UNL1       -0.3794
     43 H          24.3455   70.2577    2.3346 H       1  UNL1        0.2105
@<TRIPOS>BOND
     1    15    16   ar
     2    15    20   ar
     3    15     6    1
     4    16    17   ar
     5    16    21    2
     6    17    18   ar
     7    17    23    1
     8    18    19   ar
     9    18    22    2
    10    19    20   ar
    11     6     7    1
    12     6    11    1
    13     7     8    1
    14     7     9    1
    15     8    13    1
    16     9    10    1
    17     9    12    1
    18    10    11    1
    19    10     5    1
    20    12    14    1
    21     5     4    1
    22     4     1    1
    23     1     2    2
    24     1     3    1
    25     1    24    1
    26    24    25    1
    27    25    26    2
    28    25    27    1
    29    25    28    1
    30    28    29    1
    31    29    30    1
    32    29    37    1
    33    30    31    1
    34    30    34    1
    35    31    32    1
    36    31    35    1
    37    32    33    1
    38    32    36    1
    39    33    41    1
    40    33    37    1
    41    41    42    1
    42    34    38    1
    43    35    39    1
    44    36    40    1
    45    42    43    1
@<TRIPOS>MOLECULE
GDU
 43 45 0 0 0
SMALL
GASTEIGER

@<TRIPOS>ATOM
      1 P          22.2275   73.6219   -4.8458 P.3     1  UNL1        0.2189
      2 O          22.3132   74.8517   -5.6642 O.2     1  UNL1       -0.5170
      3 O          23.3726   72.5886   -5.3085 O.3     1  UNL1       -0.4371
      4 O          22.4350   73.9936   -3.2948 O.3     1  UNL1       -0.3112
      5 C          21.3799   73.3572   -2.5721 C.3     1  UNL1        0.1811
      6 C          23.2009   71.4345   -0.1400 C.3     1  UNL1        0.2383
      7 C          21.7567   71.5017    0.4192 C.3     1  UNL1        0.1895
      8 O          21.4481   70.3295    1.1767 O.3     1  UNL1       -0.3779
      9 C          20.9085   71.5613   -0.8779 C.3     1  UNL1        0.1713
     10 C          21.8968   72.0593   -1.9487 C.3     1  UNL1        0.1764
     11 O          23.1553   72.2987   -1.2953 O.3     1  UNL1       -0.3308
     12 O          20.4123   70.2632   -1.2104 O.3     1  UNL1       -0.3794
     13 H          20.5405   70.4340    1.4949 H       1  UNL1        0.2106
     14 H          19.8489   69.9823   -0.4767 H       1  UNL1        0.2105
     15 N          24.1610   71.9383    0.8434 N.ar    1  UNL1       -0.2551
     16 C          24.7975   71.0765    1.6561 C.ar    1  UNL1        0.3323
     17 N          25.6875   71.5134    2.5665 N.ar    1  UNL1       -0.2743
     18 C          25.9488   72.8294    2.6850 C.ar    1  UNL1        0.2626
     19 C          25.2817   73.7493    1.8395 C.ar    1  UNL1        0.0795
     20 C          24.3969   73.2839    0.9322 C.ar    1  UNL1        0.0869
     21 O          24.5725   69.8864    1.5607 O.2     1  UNL1       -0.2464
     22 O          26.7508   73.2262    3.5120 O.2     1  UNL1       -0.2670
     23 H          26.1408   70.8769    3.1420 H       1  UNL1        0.1734
     24 O          20.7813   72.9437   -5.0476 O.3     1  UNL1       -0.2703
     25 P          20.6499   72.5811   -6.6101 P.3     1  UNL1        0.2208
     26 O          21.1713   73.7026   -7.4221 O.2     1  UNL1       -0.5170
     27 O          21.5006   71.2502   -6.9252 O.3     1  UNL1       -0.4371
     28 O          19.1032   72.3267   -6.9749 O.3     1  UNL1       -0.2858
     29 C          18.9608   70.9280   -7.2262 C.3     1  UNL1        0.2704
     30 C          17.9403   70.7130   -8.3450 C.3     1  UNL1        0.1967
     31 C          16.6013   71.3259   -7.9231 C.3     1  UNL1        0.1715
     32 C          16.2058   70.7479   -6.5596 C.3     1  UNL1        0.1694
     33 C          17.3580   70.9622   -5.5749 C.3     1  UNL1        0.1761
     34 O          18.4014   71.3439   -9.5411 O.3     1  UNL1       -0.3775
     35 O          15.6004   71.0057   -8.8916 O.3     1  UNL1       -0.3794
     36 O          15.9378   69.3513   -6.6922 O.3     1  UNL1       -0.3794
     37 O          18.5203   70.2758   -6.0373 O.3     1  UNL1       -0.3258
     38 H          19.2476   70.9330   -9.7648 H       1  UNL1        0.2106
     39 H          15.8957   71.3770   -9.7325 H       1  UNL1        0.2105
     40 H          15.2120   69.2643   -7.3238 H       1  UNL1        0.2105
     41 C          16.9599   70.4191   -4.2007 C.3     1  UNL1        0.1693
     42 O          16.4247   69.1026   -4.3465 O.3     1  UNL1       -0.3794
     43 H          16.1876   68.7971   -3.4601 H       1  UNL1        0.2105
@<TRIPOS>BOND
     1    15    16   ar
     2    15    20   ar
     3    15     6    1
     4    16    17   ar
     5    16    21    2
     6    17    18   ar
     7    17    23    1
     8    18    19   ar
     9    18    22    2
    10    19    20   ar
    11     6     7    1
    12     6    11    1
    13     7     8    1
    14     7     9    1
    15     8    13    1
    16     9    10    1
    17     9    12    1
    18    10    11    1
    19    10     5    1
    20    12    14    1
    21     5     4    1
    22     4     1    1
    23     1     2    2
    24     1     3    1
    25     1    24    1
    26    24    25    1
    27    25    26    2
    28    25    27    1
    29    25    28    1
    30    28    29    1
    31    29    30    1
    32    29    37    1
    33    30    31    1
    34    30    34    1
    35    31    32    1
    36    31    35    1
    37    32    33    1
    38    32    36    1
    39    33    41    1
    40    33    37    1
    41    41    42    1
    42    34    38    1
    43    35    39    1
    44    36    40    1
    45    42    43    1
@<TRIPOS>MOLECULE
GDU
 43 45 0 0 0
SMALL
GASTEIGER

@<TRIPOS>ATOM
      1 P          22.0203   72.1541   -3.6514 P.3     1  UNL1        0.2189
      2 O          21.4807   73.5268   -3.7703 O.2     1  UNL1       -0.5170
      3 O          23.5350   72.1238   -4.1970 O.3     1  UNL1       -0.4371
      4 O          21.9963   71.6993   -2.1089 O.3     1  UNL1       -0.3112
      5 C          23.3437   71.7605   -1.6385 C.3     1  UNL1        0.1811
      6 C          24.5314   71.2587    1.7178 C.3     1  UNL1        0.2383
      7 C          23.1728   71.9849    1.8903 C.3     1  UNL1        0.1895
      8 O          22.5373   71.5949    3.1099 O.3     1  UNL1       -0.3779
      9 C          22.3738   71.4752    0.6627 C.3     1  UNL1        0.1713
     10 C          23.4601   70.9965   -0.3183 C.3     1  UNL1        0.1764
     11 O          24.7363   71.2623    0.2890 O.3     1  UNL1       -0.3308
     12 O          21.5174   70.3945    1.0376 O.3     1  UNL1       -0.3794
     13 H          21.7017   72.0800    3.1565 H       1  UNL1        0.2106
     14 H          20.8995   70.7419    1.6951 H       1  UNL1        0.2105
     15 N          25.6013   71.9941    2.3941 N.ar    1  UNL1       -0.2551
     16 C          25.4128   73.2808    2.7366 C.ar    1  UNL1        0.3323
     17 N          26.3791   73.9784    3.3623 N.ar    1  UNL1       -0.2743
     18 C          27.5605   73.3980    3.6480 C.ar    1  UNL1        0.2626
     19 C          27.7752   72.0451    3.2880 C.ar    1  UNL1        0.0795
     20 C          26.7878   71.3673    2.6651 C.ar    1  UNL1        0.0869
     21 O          24.3522   73.8177    2.4859 O.2     1  UNL1       -0.2464
     22 O          28.4374   74.0301    4.2101 O.2     1  UNL1       -0.2670
     23 H          26.2243   74.9050    3.6060 H       1  UNL1        0.1734
     24 O          21.1170   71.1461   -4.5235 O.3     1  UNL1       -0.2703
     25 P          19.6738   71.0805   -3.8144 P.3     1  UNL1        0.2208
     26 O          19.7509   70.2129   -2.6185 O.2     1  UNL1       -0.5170
     27 O          19.2251   72.5631   -3.3731 O.3     1  UNL1       -0.4371
     28 O          18.5946   70.4794   -4.8460 O.3     1  UNL1       -0.2858
     29 C          18.0374   71.5865   -5.5556 C.3     1  UNL1        0.2704
     30 C          16.6184   71.2390   -6.0083 C.3     1  UNL1        0.1967
     31 C          16.6704   69.9953   -6.9010 C.3     1  UNL1        0.1715
     32 C          17.6731   70.2461   -8.0329 C.3     1  UNL1        0.1694
     33 C          19.0137   70.6673   -7.4260 C.3     1  UNL1        0.1761
     34 O          15.8023   70.9760   -4.8655 O.3     1  UNL1       -0.3775
     35 O          15.3752   69.7443   -7.4506 O.3     1  UNL1       -0.3794
     36 O          17.1825   71.2819   -8.8852 O.3     1  UNL1       -0.3794
     37 O          18.8496   71.8788   -6.6903 O.3     1  UNL1       -0.3258
     38 H          15.8042   71.7811   -4.3301 H       1  UNL1        0.2106
     39 H          14.7773   69.6047   -6.7054 H       1  UNL1        0.2105
     40 H          16.3371   70.9762   -9.2390 H       1  UNL1        0.2105
     41 C          20.0324   70.8871   -8.5467 C.3     1  UNL1        0.1693
     42 O          20.7167   72.1226   -8.3317 O.3     1  UNL1       -0.3794
     43 H          21.3483   72.2227   -9.0572 H       1  UNL1        0.2105
@<TRIPOS>BOND
     1    15    16   ar
     2    15    20   ar
     3    15     6    1
     4    16    17   ar
     5    16    21    2
     6    17    18   ar
     7    17    23    1
     8    18    19   ar
     9    18    22    2
    10    19    20   ar
    11     6     7    1
    12     6    11    1
    13     7     8    1
    14     7     9    1
    15     8    13    1
    16     9    10    1
    17     9    12    1
    18    10    11    1
    19    10     5    1
    20    12    14    1
    21     5     4    1
    22     4     1    1
    23     1     2    2
    24     1     3    1
    25     1    24    1
    26    24    25    1
    27    25    26    2
    28    25    27    1
    29    25    28    1
    30    28    29    1
    31    29    30    1
    32    29    37    1
    33    30    31    1
    34    30    34    1
    35    31    32    1
    36    31    35    1
    37    32    33    1
    38    32    36    1
    39    33    41    1
    40    33    37    1
    41    41    42    1
    42    34    38    1
    43    35    39    1
    44    36    40    1
    45    42    43    1
@<TRIPOS>MOLECULE
GDU
 43 45 0 0 0
SMALL
GASTEIGER

@<TRIPOS>ATOM
      1 P          21.0174   72.0290   -2.6724 P.3     1  UNL1        0.2189
      2 O          20.1864   70.9053   -2.1862 O.2     1  UNL1       -0.5170
      3 O          20.0624   73.2127   -3.2014 O.3     1  UNL1       -0.4371
      4 O          21.9358   72.5768   -1.4710 O.3     1  UNL1       -0.3112
      5 C          23.1610   71.8441   -1.5197 C.3     1  UNL1        0.1811
      6 C          24.4170   71.5113    1.8328 C.3     1  UNL1        0.2383
      7 C          22.9853   72.0789    2.0083 C.3     1  UNL1        0.1895
      8 O          22.4054   71.6297    3.2351 O.3     1  UNL1       -0.3779
      9 C          22.2430   71.4703    0.7901 C.3     1  UNL1        0.1713
     10 C          23.3714   71.1102   -0.1940 C.3     1  UNL1        0.1764
     11 O          24.6122   71.5256    0.4027 O.3     1  UNL1       -0.3308
     12 O          21.5179   70.3022    1.1795 O.3     1  UNL1       -0.3794
     13 H          21.5200   72.0165    3.2832 H       1  UNL1        0.2106
     14 H          20.8680   70.5825    1.8382 H       1  UNL1        0.2105
     15 N          25.3996   72.3702    2.4960 N.ar    1  UNL1       -0.2551
     16 C          26.6223   71.8883    2.7805 C.ar    1  UNL1        0.3323
     17 N          27.5452   72.6582    3.3866 N.ar    1  UNL1       -0.2743
     18 C          27.2532   73.9279    3.7285 C.ar    1  UNL1        0.2626
     19 C          25.9673   74.4471    3.4403 C.ar    1  UNL1        0.0795
     20 C          25.0620   73.6547    2.8279 C.ar    1  UNL1        0.0869
     21 O          26.9005   70.7451    2.4776 O.2     1  UNL1       -0.2464
     22 O          28.0864   74.6240    4.2815 O.2     1  UNL1       -0.2670
     23 H          28.4241   72.2954    3.5805 H       1  UNL1        0.1734
     24 O          21.9556   71.5192   -3.8774 O.3     1  UNL1       -0.2703
     25 P          21.7633   72.5591   -5.0906 P.3     1  UNL1        0.2208
     26 O          21.9211   73.9407   -4.5854 O.2     1  UNL1       -0.5170
     27 O          22.8718   72.2727   -6.2234 O.3     1  UNL1       -0.4371
     28 O          20.2938   72.3823   -5.7225 O.3     1  UNL1       -0.2858
     29 C          20.2268   71.0579   -6.2530 C.3     1  UNL1        0.2704
     30 C          19.6915   71.1093   -7.6848 C.3     1  UNL1        0.1967
     31 C          18.3043   71.7590   -7.6753 C.3     1  UNL1        0.1715
     32 C          17.4185   71.0086   -6.6743 C.3     1  UNL1        0.1694
     33 C          18.1261   70.9666   -5.3176 C.3     1  UNL1        0.1761
     34 O          20.5769   71.8798   -8.4994 O.3     1  UNL1       -0.3775
     35 O          17.7290   71.6816   -8.9813 O.3     1  UNL1       -0.3794
     36 O          17.1909   69.6782   -7.1414 O.3     1  UNL1       -0.3794
     37 O          19.3629   70.2659   -5.4412 O.3     1  UNL1       -0.3258
     38 H          21.4371   71.4392   -8.4703 H       1  UNL1        0.2106
     39 H          18.3233   72.1546   -9.5774 H       1  UNL1        0.2105
     40 H          16.7504   69.7537   -7.9978 H       1  UNL1        0.2105
     41 C          17.2346   70.2490   -4.3015 C.3     1  UNL1        0.1693
     42 O          17.3165   68.8380   -4.5100 O.3     1  UNL1       -0.3794
     43 H          16.7425   68.4240   -3.8508 H       1  UNL1        0.2105
@<TRIPOS>BOND
     1    15    16   ar
     2    15    20   ar
     3    15     6    1
     4    16    17   ar
     5    16    21    2
     6    17    18   ar
     7    17    23    1
     8    18    19   ar
     9    18    22    2
    10    19    20   ar
    11     6     7    1
    12     6    11    1
    13     7     8    1
    14     7     9    1
    15     8    13    1
    16     9    10    1
    17     9    12    1
    18    10    11    1
    19    10     5    1
    20    12    14    1
    21     5     4    1
    22     4     1    1
    23     1     2    2
    24     1     3    1
    25     1    24    1
    26    24    25    1
    27    25    26    2
    28    25    27    1
    29    25    28    1
    30    28    29    1
    31    29    30    1
    32    29    37    1
    33    30    31    1
    34    30    34    1
    35    31    32    1
    36    31    35    1
    37    32    33    1
    38    32    36    1
    39    33    41    1
    40    33    37    1
    41    41    42    1
    42    34    38    1
    43    35    39    1
    44    36    40    1
    45    42    43    1
@<TRIPOS>MOLECULE
GDU
 43 45 0 0 0
SMALL
GASTEIGER

@<TRIPOS>ATOM
      1 P          22.0144   72.5473   -6.5346 P.3     1  UNL1        0.2189
      2 O          22.9469   73.1725   -7.4985 O.2     1  UNL1       -0.5170
      3 O          20.7578   73.5247   -6.2926 O.3     1  UNL1       -0.4371
      4 O          21.4963   71.1427   -7.1224 O.3     1  UNL1       -0.3112
      5 C          20.6094   71.4471   -8.2001 C.3     1  UNL1        0.1811
      6 C          17.4947   70.1718   -6.9353 C.3     1  UNL1        0.2383
      7 C          17.0845   71.1482   -8.0672 C.3     1  UNL1        0.1895
      8 O          15.8700   70.7246   -8.6908 O.3     1  UNL1       -0.3779
      9 C          18.2802   71.0298   -9.0477 C.3     1  UNL1        0.1713
     10 C          19.4250   70.4792   -8.1771 C.3     1  UNL1        0.1764
     11 O          18.9232   70.3532   -6.8352 O.3     1  UNL1       -0.3308
     12 O          17.9690   70.1238  -10.1081 O.3     1  UNL1       -0.3794
     13 H          15.6710   71.3715   -9.3820 H       1  UNL1        0.2106
     14 H          17.2097   70.4936  -10.5786 H       1  UNL1        0.2105
     15 N          16.8396   70.5330   -5.6770 N.ar    1  UNL1       -0.2551
     16 C          16.4511   69.5668   -4.8262 C.ar    1  UNL1        0.3323
     17 N          15.8498   69.8720   -3.6612 N.ar    1  UNL1       -0.2743
     18 C          15.6176   71.1573   -3.3321 C.ar    1  UNL1        0.2626
     19 C          16.0162   72.1853   -4.2213 C.ar    1  UNL1        0.0795
     20 C          16.6211   71.8516   -5.3811 C.ar    1  UNL1        0.0869
     21 O          16.6542   68.4029   -5.1092 O.2     1  UNL1       -0.2464
     22 O          15.0691   71.4344   -2.2800 O.2     1  UNL1       -0.2670
     23 H          15.5799   69.1621   -3.0572 H       1  UNL1        0.1734
     24 O          22.7754   72.2980   -5.1377 O.3     1  UNL1       -0.2703
     25 P          21.6440   71.9627   -4.0434 P.3     1  UNL1        0.2208
     26 O          20.5481   72.9511   -4.1485 O.2     1  UNL1       -0.5170
     27 O          21.0609   70.4852   -4.3100 O.3     1  UNL1       -0.4371
     28 O          22.2862   72.0269   -2.5691 O.3     1  UNL1       -0.2858
     29 C          21.6307   73.0903   -1.8768 C.3     1  UNL1        0.2704
     30 C          22.5734   74.2907   -1.7778 C.3     1  UNL1        0.1967
     31 C          23.8452   73.8660   -1.0371 C.3     1  UNL1        0.1715
     32 C          23.4454   73.2383    0.3030 C.3     1  UNL1        0.1694
     33 C          22.4373   72.1156    0.0456 C.3     1  UNL1        0.1761
     34 O          22.9107   74.7439   -3.0901 O.3     1  UNL1       -0.3775
     35 O          24.6712   75.0094   -0.8070 O.3     1  UNL1       -0.3794
     36 O          22.8556   74.2341    1.1400 O.3     1  UNL1       -0.3794
     37 O          21.2669   72.6514   -0.5701 O.3     1  UNL1       -0.3258
     38 H          22.0817   74.9932   -3.5208 H       1  UNL1        0.2106
     39 H          24.8875   75.3772   -1.6732 H       1  UNL1        0.2105
     40 H          23.5221   74.9212    1.2698 H       1  UNL1        0.2105
     41 C          22.0573   71.4592    1.3748 C.3     1  UNL1        0.1693
     42 O          21.5858   70.1326    1.1323 O.3     1  UNL1       -0.3794
     43 H          21.3582   69.7547    1.9929 H       1  UNL1        0.2105
@<TRIPOS>BOND
     1    15    16   ar
     2    15    20   ar
     3    15     6    1
     4    16    17   ar
     5    16    21    2
     6    17    18   ar
     7    17    23    1
     8    18    19   ar
     9    18    22    2
    10    19    20   ar
    11     6     7    1
    12     6    11    1
    13     7     8    1
    14     7     9    1
    15     8    13    1
    16     9    10    1
    17     9    12    1
    18    10    11    1
    19    10     5    1
    20    12    14    1
    21     5     4    1
    22     4     1    1
    23     1     2    2
    24     1     3    1
    25     1    24    1
    26    24    25    1
    27    25    26    2
    28    25    27    1
    29    25    28    1
    30    28    29    1
    31    29    30    1
    32    29    37    1
    33    30    31    1
    34    30    34    1
    35    31    32    1
    36    31    35    1
    37    32    33    1
    38    32    36    1
    39    33    41    1
    40    33    37    1
    41    41    42    1
    42    34    38    1
    43    35    39    1
    44    36    40    1
    45    42    43    1
@<TRIPOS>MOLECULE
GDU
 43 45 0 0 0
SMALL
GASTEIGER

@<TRIPOS>ATOM
      1 P          22.7681   71.5575   -2.8409 P.3     1  UNL1        0.2189
      2 O          22.7765   72.9615   -3.3081 O.2     1  UNL1       -0.5170
      3 O          24.1829   70.8694   -3.1841 O.3     1  UNL1       -0.4371
      4 O          22.5256   71.5218   -1.2514 O.3     1  UNL1       -0.3112
      5 C          22.8590   72.8182   -0.7527 C.3     1  UNL1        0.1811
      6 C          23.9262   72.8075    2.6807 C.3     1  UNL1        0.2383
      7 C          23.6042   71.3237    2.3687 C.3     1  UNL1        0.1895
      8 O          24.4334   70.4493    3.1376 O.3     1  UNL1       -0.3779
      9 C          23.9481   71.2269    0.8595 C.3     1  UNL1        0.1713
     10 C          23.8912   72.6854    0.3685 C.3     1  UNL1        0.1764
     11 O          23.5046   73.5018    1.4875 O.3     1  UNL1       -0.3308
     12 O          25.2567   70.6820    0.6793 O.3     1  UNL1       -0.3794
     13 H          24.1838   69.5460    2.8980 H       1  UNL1        0.2106
     14 H          25.2445   69.7928    1.0585 H       1  UNL1        0.2105
     15 N          23.1649   73.2696    3.8425 N.ar    1  UNL1       -0.2551
     16 C          21.8322   73.0943    3.8791 C.ar    1  UNL1        0.3323
     17 N          21.1093   73.5067    4.9371 N.ar    1  UNL1       -0.2743
     18 C          21.7120   74.1139    5.9774 C.ar    1  UNL1        0.2626
     19 C          23.1145   74.3105    5.9500 C.ar    1  UNL1        0.0795
     20 C          23.8160   73.8834    4.8786 C.ar    1  UNL1        0.0869
     21 O          21.2746   72.5477    2.9483 O.2     1  UNL1       -0.2464
     22 O          21.0579   74.4918    6.9333 O.2     1  UNL1       -0.2670
     23 H          20.1489   73.3681    4.9486 H       1  UNL1        0.1734
     24 O          21.5875   70.7529   -3.5834 O.3     1  UNL1       -0.2703
     25 P          21.1445   71.6393   -4.8515 P.3     1  UNL1        0.2208
     26 O          20.5083   72.8895   -4.3810 O.2     1  UNL1       -0.5170
     27 O          22.4425   71.9979   -5.7351 O.3     1  UNL1       -0.4371
     28 O          20.0985   70.8086   -5.7492 O.3     1  UNL1       -0.2858
     29 C          19.1784   71.7542   -6.2960 C.3     1  UNL1        0.2704
     30 C          17.7653   71.4299   -5.8089 C.3     1  UNL1        0.1967
     31 C          17.4018   70.0072   -6.2449 C.3     1  UNL1        0.1715
     32 C          17.6130   69.8895   -7.7586 C.3     1  UNL1        0.1694
     33 C          19.0395   70.3291   -8.0978 C.3     1  UNL1        0.1761
     34 O          17.7172   71.5224   -4.3840 O.3     1  UNL1       -0.3775
     35 O          16.0341   69.7421   -5.9266 O.3     1  UNL1       -0.3794
     36 O          16.6758   70.7260   -8.4383 O.3     1  UNL1       -0.3794
     37 O          19.2259   71.6923   -7.7196 O.3     1  UNL1       -0.3258
     38 H          17.9593   72.4301   -4.1550 H       1  UNL1        0.2106
     39 H          15.9456   69.8389   -4.9700 H       1  UNL1        0.2105
     40 H          15.7944   70.4170   -8.1912 H       1  UNL1        0.2105
     41 C          19.2720   70.1829   -9.6033 C.3     1  UNL1        0.1693
     42 O          18.6246   71.2549  -10.2908 O.3     1  UNL1       -0.3794
     43 H          18.7956   71.1264  -11.2339 H       1  UNL1        0.2105
@<TRIPOS>BOND
     1    15    16   ar
     2    15    20   ar
     3    15     6    1
     4    16    17   ar
     5    16    21    2
     6    17    18   ar
     7    17    23    1
     8    18    19   ar
     9    18    22    2
    10    19    20   ar
    11     6     7    1
    12     6    11    1
    13     7     8    1
    14     7     9    1
    15     8    13    1
    16     9    10    1
    17     9    12    1
    18    10    11    1
    19    10     5    1
    20    12    14    1
    21     5     4    1
    22     4     1    1
    23     1     2    2
    24     1     3    1
    25     1    24    1
    26    24    25    1
    27    25    26    2
    28    25    27    1
    29    25    28    1
    30    28    29    1
    31    29    30    1
    32    29    37    1
    33    30    31    1
    34    30    34    1
    35    31    32    1
    36    31    35    1
    37    32    33    1
    38    32    36    1
    39    33    41    1
    40    33    37    1
    41    41    42    1
    42    34    38    1
    43    35    39    1
    44    36    40    1
    45    42    43    1
@<TRIPOS>MOLECULE
GDU
 43 45 0 0 0
SMALL
GASTEIGER

@<TRIPOS>ATOM
      1 P          20.2436   71.3669   -2.3479 P.3     1  UNL1        0.2189
      2 O          20.6470   72.6726   -2.9153 O.2     1  UNL1       -0.5170
      3 O          21.3185   70.2441   -2.7685 O.3     1  UNL1       -0.4371
      4 O          20.1797   71.4747   -0.7445 O.3     1  UNL1       -0.3112
      5 C          21.4166   72.0486   -0.3187 C.3     1  UNL1        0.1811
      6 C          23.3969   71.9153    2.6793 C.3     1  UNL1        0.2383
      7 C          22.4676   73.1395    2.8809 C.3     1  UNL1        0.1895
      8 O          22.1687   73.3303    4.2657 O.3     1  UNL1       -0.3779
      9 C          21.1993   72.7177    2.0943 C.3     1  UNL1        0.1713
     10 C          21.7037   71.6325    1.1251 C.3     1  UNL1        0.1764
     11 O          23.1222   71.5036    1.3234 O.3     1  UNL1       -0.3308
     12 O          20.2143   72.1859    2.9826 O.3     1  UNL1       -0.3794
     13 H          21.5901   74.1036    4.3221 H       1  UNL1        0.2106
     14 H          19.9830   72.8931    3.6000 H       1  UNL1        0.2105
     15 N          24.8012   72.3012    2.8268 N.ar    1  UNL1       -0.2551
     16 C          25.7665   71.3785    2.6683 C.ar    1  UNL1        0.3323
     17 N          27.0655   71.7079    2.7950 N.ar    1  UNL1       -0.2743
     18 C          27.4203   72.9724    3.0940 C.ar    1  UNL1        0.2626
     19 C          26.4140   73.9537    3.2695 C.ar    1  UNL1        0.0795
     20 C          25.1192   73.5972    3.1325 C.ar    1  UNL1        0.0869
     21 O          25.4618   70.2339    2.3979 O.2     1  UNL1       -0.2464
     22 O          28.5956   73.2705    3.2136 O.2     1  UNL1       -0.2670
     23 H          27.7491   71.0301    2.6731 H       1  UNL1        0.1734
     24 O          18.7938   70.9601   -2.9180 O.3     1  UNL1       -0.2703
     25 P          19.0295   69.7978   -4.0059 P.3     1  UNL1        0.2208
     26 O          20.4544   69.7761   -4.4034 O.2     1  UNL1       -0.5170
     27 O          18.6297   68.3749   -3.3659 O.3     1  UNL1       -0.4371
     28 O          18.1146   70.0789   -5.2998 O.3     1  UNL1       -0.2858
     29 C          18.6588   71.2275   -5.9512 C.3     1  UNL1        0.2704
     30 C          17.5602   72.2751   -6.1380 C.3     1  UNL1        0.1967
     31 C          16.4276   71.6669   -6.9708 C.3     1  UNL1        0.1715
     32 C          17.0203   71.1050   -8.2679 C.3     1  UNL1        0.1694
     33 C          18.1594   70.1438   -7.9192 C.3     1  UNL1        0.1761
     34 O          17.0570   72.6737   -4.8616 O.3     1  UNL1       -0.3775
     35 O          15.4628   72.6755   -7.2784 O.3     1  UNL1       -0.3794
     36 O          17.5213   72.1769   -9.0680 O.3     1  UNL1       -0.3794
     37 O          19.1856   70.8469   -7.2202 O.3     1  UNL1       -0.3258
     38 H          17.8035   73.0431   -4.3704 H       1  UNL1        0.2106
     39 H          15.1268   73.0074   -6.4362 H       1  UNL1        0.2105
     40 H          16.7731   72.7578   -9.2577 H       1  UNL1        0.2105
     41 C          18.7360   69.5505   -9.2066 C.3     1  UNL1        0.1693
     42 O          18.0123   70.0571  -10.3294 O.3     1  UNL1       -0.3794
     43 H          18.4064   69.6605  -11.1185 H       1  UNL1        0.2105
@<TRIPOS>BOND
     1    15    16   ar
     2    15    20   ar
     3    15     6    1
     4    16    17   ar
     5    16    21    2
     6    17    18   ar
     7    17    23    1
     8    18    19   ar
     9    18    22    2
    10    19    20   ar
    11     6     7    1
    12     6    11    1
    13     7     8    1
    14     7     9    1
    15     8    13    1
    16     9    10    1
    17     9    12    1
    18    10    11    1
    19    10     5    1
    20    12    14    1
    21     5     4    1
    22     4     1    1
    23     1     2    2
    24     1     3    1
    25     1    24    1
    26    24    25    1
    27    25    26    2
    28    25    27    1
    29    25    28    1
    30    28    29    1
    31    29    30    1
    32    29    37    1
    33    30    31    1
    34    30    34    1
    35    31    32    1
    36    31    35    1
    37    32    33    1
    38    32    36    1
    39    33    41    1
    40    33    37    1
    41    41    42    1
    42    34    38    1
    43    35    39    1
    44    36    40    1
    45    42    43    1
