@<TRIPOS>MOLECULE
*****
 43 45 0 0 0
SMALL
GASTEIGER

@<TRIPOS>ATOM
      1 P          22.1444   71.5248   -2.4172 P.3     1  UNL1        0.2189
      2 O          21.9047   73.1212   -2.3042 O.co2   1  UNL1       -0.4371
      3 O          23.0818   71.1006   -3.5096 O.2     1  UNL1       -0.5170
      4 O          20.6490   70.9121   -2.4973 O.3     1  UNL1       -0.3112
      5 C          20.0663   70.7156   -3.7726 C.3     1  UNL1        0.1811
      6 O          18.2975   71.7716   -5.0110 O.3     1  UNL1       -0.3308
      7 O          16.4269   70.5906   -2.9867 O.3     1  UNL1       -0.3794
      8 O          16.1608   68.8941   -5.1050 O.3     1  UNL1       -0.3779
      9 C          17.6240   70.0424   -3.5389 C.3     1  UNL1        0.1713
     10 C          17.3836   69.5862   -4.9624 C.3     1  UNL1        0.1895
     11 C          18.6164   71.1808   -3.7325 C.3     1  UNL1        0.1764
     12 C          17.4033   70.9014   -5.7226 C.3     1  UNL1        0.2383
     13 H          15.7775   69.8818   -2.8540 H       1  UNL1        0.2105
     14 H          16.1985   68.0643   -4.6032 H       1  UNL1        0.2106
     15 O          15.7494   70.3011   -7.9319 O.2     1  UNL1       -0.2464
     16 O          19.3194   70.3376  -10.8469 O.2     1  UNL1       -0.2670
     17 N          17.8744   70.7484   -7.0701 N.ar    1  UNL1       -0.2551
     18 N          17.5292   70.3189   -9.3815 N.ar    1  UNL1       -0.2743
     19 C          16.9605   70.4466   -8.1073 C.ar    1  UNL1        0.3323
     20 C          19.2265   70.8987   -7.3533 C.ar    1  UNL1        0.0869
     21 C          19.7536   70.7740   -8.5729 C.ar    1  UNL1        0.0795
     22 C          18.8673   70.4586   -9.7124 C.ar    1  UNL1        0.2626
     23 H          16.9130   70.1069  -10.1195 H       1  UNL1        0.1734
     24 O          22.6223   71.1232   -0.9262 O.3     1  UNL1       -0.2703
     25 P          22.0041   71.4909    0.5217 P.3     1  UNL1        0.2208
     26 O          21.7375   70.0405    1.1892 O.co2   1  UNL1       -0.4371
     27 O          20.7944   72.3784    0.4674 O.2     1  UNL1       -0.5170
     28 O          23.2447   72.1002    1.3536 O.3     1  UNL1       -0.2858
     29 O          25.0337   71.4278    2.7524 O.3     1  UNL1       -0.3226
     30 O          23.2235   74.3473    5.0476 O.3     1  UNL1       -0.3794
     31 O          21.6092   72.4023    3.5829 O.3     1  UNL1       -0.3775
     32 O          25.7142   74.9169    3.6609 O.3     1  UNL1       -0.3792
     33 C          23.6368   73.7096    3.8391 C.3     1  UNL1        0.1718
     34 C          23.0183   72.3136    3.7597 C.3     1  UNL1        0.1968
     35 C          25.1642   73.6149    3.8528 C.3     1  UNL1        0.1723
     36 C          23.6164   71.5154    2.6004 C.3     1  UNL1        0.2706
     37 C          25.6757   72.7010    2.7430 C.3     1  UNL1        0.1830
     38 H          22.2560   74.4185    5.0613 H       1  UNL1        0.2105
     39 H          21.2231   72.9078    4.3149 H       1  UNL1        0.2106
     40 H          25.3963   75.5086    4.3607 H       1  UNL1        0.2106
     41 O          27.3640   71.0829    2.5611 O.co2   1  UNL1       -0.5466
     42 O          27.9518   73.1060    3.4334 O.co2   1  UNL1       -0.5466
     43 C          27.1123   72.3538    2.9617 C.2     1  UNL1        0.0799
@<TRIPOS>UNITY_ATOM_ATTR
2 1
charge -1
26 1
charge -1
41 1
charge -1
@<TRIPOS>BOND
     1     1     4    1
     2     1    24    1
     3     1     2    1
     4     1     3    2
     5    25    28    1
     6    25    24    1
     7    25    26    1
     8    25    27    2
     9     6    11    1
    10     6    12    1
    11    29    36    1
    12    29    37    1
    13     7     9    1
    14     7    13    1
    15     8    10    1
    16     8    14    1
    17     4     5    1
    18    28    36    1
    19    30    33    1
    20    30    38    1
    21    31    34    1
    22    31    39    1
    23    32    35    1
    24    32    40    1
    25    41    43   ar
    26    15    19    2
    27    42    43   ar
    28    16    22    2
    29    17    12    1
    30    17    19   ar
    31    17    20   ar
    32    18    19   ar
    33    18    22   ar
    34    18    23    1
    35     9    10    1
    36     9    11    1
    37    10    12    1
    38    11     5    1
    39    33    34    1
    40    33    35    1
    41    34    36    1
    42    35    37    1
    43    37    43    1
    44    20    21   ar
    45    21    22   ar
@<TRIPOS>MOLECULE
*****
 43 45 0 0 0
SMALL
GASTEIGER

@<TRIPOS>ATOM
      1 P          22.0653   71.5721   -2.3804 P.3     1  UNL1        0.2189
      2 O          21.5273   73.0250   -1.9130 O.co2   1  UNL1       -0.4371
      3 O          22.8769   71.5731   -3.6426 O.2     1  UNL1       -0.5170
      4 O          20.7337   70.6532   -2.4020 O.3     1  UNL1       -0.3112
      5 C          20.0910   70.4232   -3.6424 C.3     1  UNL1        0.1811
      6 O          18.3557   71.6079   -4.8098 O.3     1  UNL1       -0.3308
      7 O          16.4566   70.4065   -2.8244 O.3     1  UNL1       -0.3794
      8 O          16.1032   68.8264   -5.0185 O.3     1  UNL1       -0.3779
      9 C          17.6256   69.8380   -3.4150 C.3     1  UNL1        0.1713
     10 C          17.3543   69.4611   -4.8561 C.3     1  UNL1        0.1895
     11 C          18.6616   70.9437   -3.5645 C.3     1  UNL1        0.1764
     12 C          17.4207   70.8096   -5.5526 C.3     1  UNL1        0.2383
     13 H          15.7802   69.7188   -2.7188 H       1  UNL1        0.2105
     14 H          16.1116   67.9724   -4.5574 H       1  UNL1        0.2106
     15 O          15.7375   70.2792   -7.7576 O.2     1  UNL1       -0.2464
     16 O          19.2666   70.4229  -10.7189 O.2     1  UNL1       -0.2670
     17 N          17.8733   70.7031   -6.9108 N.ar    1  UNL1       -0.2551
     18 N          17.4970   70.3503   -9.2303 N.ar    1  UNL1       -0.2743
     19 C          16.9458   70.4338   -7.9448 C.ar    1  UNL1        0.3323
     20 C          19.2210   70.8665   -7.2076 C.ar    1  UNL1        0.0869
     21 C          19.7314   70.7841   -8.4378 C.ar    1  UNL1        0.0795
     22 C          18.8300   70.5046   -9.5748 C.ar    1  UNL1        0.2626
     23 H          16.8710   70.1615   -9.9664 H       1  UNL1        0.1734
     24 O          22.8534   71.0393   -1.0736 O.3     1  UNL1       -0.2703
     25 P          22.4077   70.9675    0.4788 P.3     1  UNL1        0.2208
     26 O          23.6596   70.2269    1.1891 O.co2   1  UNL1       -0.4371
     27 O          21.0827   70.2999    0.7088 O.2     1  UNL1       -0.5170
     28 O          22.4882   72.4925    0.9987 O.3     1  UNL1       -0.2858
     29 O          23.8974   73.7556    2.4227 O.3     1  UNL1       -0.3226
     30 O          20.1493   75.0334    3.6003 O.3     1  UNL1       -0.3794
     31 O          20.6494   72.2052    3.0657 O.3     1  UNL1       -0.3775
     32 O          21.8162   76.7379    1.9370 O.3     1  UNL1       -0.3792
     33 C          21.1343   74.5519    2.6860 C.3     1  UNL1        0.1718
     34 C          21.6618   73.1999    3.1672 C.3     1  UNL1        0.1968
     35 C          22.2693   75.5769    2.6306 C.3     1  UNL1        0.1723
     36 C          22.8747   72.7619    2.3451 C.3     1  UNL1        0.2706
     37 C          23.4889   75.0188    1.9028 C.3     1  UNL1        0.1830
     38 H          19.4179   74.3980    3.6521 H       1  UNL1        0.2105
     39 H          19.8766   72.4768    3.5847 H       1  UNL1        0.2106
     40 H          21.0400   77.1029    2.3900 H       1  UNL1        0.2106
     41 O          25.6898   75.1639    2.7006 O.co2   1  UNL1       -0.5466
     42 O          24.7611   77.0684    1.8582 O.co2   1  UNL1       -0.5466
     43 C          24.6865   75.8810    2.1364 C.2     1  UNL1        0.0799
@<TRIPOS>UNITY_ATOM_ATTR
2 1
charge -1
26 1
charge -1
41 1
charge -1
@<TRIPOS>BOND
     1     1     4    1
     2     1    24    1
     3     1     2    1
     4     1     3    2
     5    25    28    1
     6    25    24    1
     7    25    26    1
     8    25    27    2
     9     6    11    1
    10     6    12    1
    11    29    36    1
    12    29    37    1
    13     7     9    1
    14     7    13    1
    15     8    10    1
    16     8    14    1
    17     4     5    1
    18    28    36    1
    19    30    33    1
    20    30    38    1
    21    31    34    1
    22    31    39    1
    23    32    35    1
    24    32    40    1
    25    41    43   ar
    26    15    19    2
    27    42    43   ar
    28    16    22    2
    29    17    12    1
    30    17    19   ar
    31    17    20   ar
    32    18    19   ar
    33    18    22   ar
    34    18    23    1
    35     9    10    1
    36     9    11    1
    37    10    12    1
    38    11     5    1
    39    33    34    1
    40    33    35    1
    41    34    36    1
    42    35    37    1
    43    37    43    1
    44    20    21   ar
    45    21    22   ar
@<TRIPOS>MOLECULE
*****
 43 45 0 0 0
SMALL
GASTEIGER

@<TRIPOS>ATOM
      1 P          21.2842   71.3804   -1.6395 P.3     1  UNL1        0.2189
      2 O          22.8195   70.8826   -1.7575 O.co2   1  UNL1       -0.4371
      3 O          20.4385   70.6030   -0.6739 O.2     1  UNL1       -0.5170
      4 O          20.7635   71.4006   -3.1713 O.3     1  UNL1       -0.3112
      5 C          19.9072   70.3611   -3.6081 C.3     1  UNL1        0.1811
      6 O          18.1861   71.5365   -4.8055 O.3     1  UNL1       -0.3308
      7 O          16.2506   70.2619   -2.9027 O.3     1  UNL1       -0.3794
      8 O          15.9940   68.7188   -5.1364 O.3     1  UNL1       -0.3779
      9 C          17.4475   69.7265   -3.4679 C.3     1  UNL1        0.1713
     10 C          17.2274   69.3731   -4.9235 C.3     1  UNL1        0.1895
     11 C          18.4665   70.8538   -3.5643 C.3     1  UNL1        0.1764
     12 C          17.2894   70.7359   -5.5919 C.3     1  UNL1        0.2383
     13 H          15.5844   69.5600   -2.8312 H       1  UNL1        0.2105
     14 H          16.0046   67.8563   -4.6916 H       1  UNL1        0.2106
     15 O          15.6719   70.3044   -7.8665 O.2     1  UNL1       -0.2464
     16 O          19.2991   70.4800  -10.7049 O.2     1  UNL1       -0.2670
     17 N          17.7851   70.6644   -6.9372 N.ar    1  UNL1       -0.2551
     18 N          17.4802   70.3913   -9.2779 N.ar    1  UNL1       -0.2743
     19 C          16.8881   70.4438   -8.0091 C.ar    1  UNL1        0.3323
     20 C          19.1443   70.8136   -7.1845 C.ar    1  UNL1        0.0869
     21 C          19.6938   70.7611   -8.3994 C.ar    1  UNL1        0.0795
     22 C          18.8263   70.5332   -9.5736 C.ar    1  UNL1        0.2626
     23 H          16.8760   70.2366  -10.0397 H       1  UNL1        0.1734
     24 O          21.4379   72.9505   -1.2872 O.3     1  UNL1       -0.2703
     25 P          22.6790   73.9668   -1.4879 P.3     1  UNL1        0.2208
     26 O          21.9855   75.4249   -1.3726 O.co2   1  UNL1       -0.4371
     27 O          23.4543   73.7492   -2.7550 O.2     1  UNL1       -0.5170
     28 O          23.5493   73.8219   -0.1373 O.3     1  UNL1       -0.2858
     29 O          23.6274   72.0989    1.4857 O.3     1  UNL1       -0.3226
     30 O          24.2680   75.4619    3.7983 O.3     1  UNL1       -0.3794
     31 O          22.2554   75.4821    1.6809 O.3     1  UNL1       -0.3775
     32 O          26.4851   73.7016    3.1372 O.3     1  UNL1       -0.3792
     33 C          24.3351   74.6583    2.6203 C.3     1  UNL1        0.1718
     34 C          22.9201   74.3159    2.1531 C.3     1  UNL1        0.1968
     35 C          25.1062   73.3814    2.9621 C.3     1  UNL1        0.1723
     36 C          22.9505   73.2728    1.0352 C.3     1  UNL1        0.2706
     37 C          24.9840   72.3425    1.8512 C.3     1  UNL1        0.1830
     38 H          23.7821   76.2791    3.6052 H       1  UNL1        0.2105
     39 H          22.2328   76.1484    2.3851 H       1  UNL1        0.2106
     40 H          26.5767   74.3621    3.8416 H       1  UNL1        0.2106
     41 O          26.8046   70.9449    2.3345 O.co2   1  UNL1       -0.5466
     42 O          24.7180   70.0840    2.6575 O.co2   1  UNL1       -0.5466
     43 C          25.4498   71.0037    2.3233 C.2     1  UNL1        0.0799
@<TRIPOS>UNITY_ATOM_ATTR
2 1
charge -1
26 1
charge -1
41 1
charge -1
@<TRIPOS>BOND
     1     1     4    1
     2     1    24    1
     3     1     2    1
     4     1     3    2
     5    25    28    1
     6    25    24    1
     7    25    26    1
     8    25    27    2
     9     6    11    1
    10     6    12    1
    11    29    36    1
    12    29    37    1
    13     7     9    1
    14     7    13    1
    15     8    10    1
    16     8    14    1
    17     4     5    1
    18    28    36    1
    19    30    33    1
    20    30    38    1
    21    31    34    1
    22    31    39    1
    23    32    35    1
    24    32    40    1
    25    41    43   ar
    26    15    19    2
    27    42    43   ar
    28    16    22    2
    29    17    12    1
    30    17    19   ar
    31    17    20   ar
    32    18    19   ar
    33    18    22   ar
    34    18    23    1
    35     9    10    1
    36     9    11    1
    37    10    12    1
    38    11     5    1
    39    33    34    1
    40    33    35    1
    41    34    36    1
    42    35    37    1
    43    37    43    1
    44    20    21   ar
    45    21    22   ar
@<TRIPOS>MOLECULE
*****
 43 45 0 0 0
SMALL
GASTEIGER

@<TRIPOS>ATOM
      1 P          23.0368   71.5408   -2.4906 P.3     1  UNL1        0.2189
      2 O          23.0797   73.1145   -2.8657 O.co2   1  UNL1       -0.4371
      3 O          24.2219   70.7462   -2.9553 O.2     1  UNL1       -0.5170
      4 O          21.5991   71.0481   -3.0458 O.3     1  UNL1       -0.3112
      5 C          20.9616   71.8179   -4.0486 C.3     1  UNL1        0.1811
      6 O          18.7755   72.2108   -4.9673 O.3     1  UNL1       -0.3308
      7 O          17.7049   70.8663   -2.5101 O.3     1  UNL1       -0.3794
      8 O          17.5433   68.8944   -4.3866 O.3     1  UNL1       -0.3779
      9 C          18.8871   70.5764   -3.2565 C.3     1  UNL1        0.1713
     10 C          18.5301   69.8901   -4.5579 C.3     1  UNL1        0.1895
     11 C          19.4715   71.8958   -3.7419 C.3     1  UNL1        0.1764
     12 C          18.0455   71.0539   -5.4056 C.3     1  UNL1        0.2383
     13 H          17.3134   70.0384   -2.1894 H       1  UNL1        0.2105
     14 H          17.9004   68.1758   -3.8406 H       1  UNL1        0.2106
     15 O          16.0718   70.2814   -7.2723 O.2     1  UNL1       -0.2464
     16 O          19.0939   70.3041  -10.7522 O.2     1  UNL1       -0.2670
     17 N          18.2892   70.8508   -6.8057 N.ar    1  UNL1       -0.2551
     18 N          17.5791   70.2925   -9.0035 N.ar    1  UNL1       -0.2743
     19 C          17.2282   70.4631   -7.6579 C.ar    1  UNL1        0.3323
     20 C          19.5659   71.0370   -7.3217 C.ar    1  UNL1        0.0869
     21 C          19.8850   70.8707   -8.6067 C.ar    1  UNL1        0.0795
     22 C          18.8345   70.4652   -9.5635 C.ar    1  UNL1        0.2626
     23 H          16.8576   70.0206   -9.6157 H       1  UNL1        0.1734
     24 O          22.8221   71.5554   -0.8886 O.3     1  UNL1       -0.2703
     25 P          21.5250   71.9190    0.0053 P.3     1  UNL1        0.2208
     26 O          20.8769   70.4701    0.3231 O.co2   1  UNL1       -0.4371
     27 O          20.5815   72.8892   -0.6447 O.2     1  UNL1       -0.5170
     28 O          22.1269   72.4144    1.4176 O.3     1  UNL1       -0.2858
     29 O          21.0760   74.2747    2.4394 O.3     1  UNL1       -0.3226
     30 O          24.5645   73.9710    4.6317 O.3     1  UNL1       -0.3794
     31 O          24.6054   73.6374    1.7297 O.3     1  UNL1       -0.3775
     32 O          22.0444   73.0704    5.7672 O.3     1  UNL1       -0.3792
     33 C          23.4616   73.4889    3.8641 C.3     1  UNL1        0.1718
     34 C          23.4918   74.1205    2.4722 C.3     1  UNL1        0.1968
     35 C          22.1730   73.8728    4.5950 C.3     1  UNL1        0.1723
     36 C          22.2074   73.8098    1.7024 C.3     1  UNL1        0.2706
     37 C          20.9462   73.6509    3.7150 C.3     1  UNL1        0.1830
     38 H          25.3946   73.7386    4.1866 H       1  UNL1        0.2105
     39 H          25.4239   73.8309    2.2125 H       1  UNL1        0.2106
     40 H          22.8191   73.2022    6.3359 H       1  UNL1        0.2106
     41 O          19.1951   75.1794    3.4007 O.co2   1  UNL1       -0.5466
     42 O          19.3142   74.1359    5.4246 O.co2   1  UNL1       -0.5466
     43 C          19.7467   74.3248    4.2975 C.2     1  UNL1        0.0799
@<TRIPOS>UNITY_ATOM_ATTR
2 1
charge -1
26 1
charge -1
41 1
charge -1
@<TRIPOS>BOND
     1     1     4    1
     2     1    24    1
     3     1     2    1
     4     1     3    2
     5    25    28    1
     6    25    24    1
     7    25    26    1
     8    25    27    2
     9     6    11    1
    10     6    12    1
    11    29    36    1
    12    29    37    1
    13     7     9    1
    14     7    13    1
    15     8    10    1
    16     8    14    1
    17     4     5    1
    18    28    36    1
    19    30    33    1
    20    30    38    1
    21    31    34    1
    22    31    39    1
    23    32    35    1
    24    32    40    1
    25    41    43   ar
    26    15    19    2
    27    42    43   ar
    28    16    22    2
    29    17    12    1
    30    17    19   ar
    31    17    20   ar
    32    18    19   ar
    33    18    22   ar
    34    18    23    1
    35     9    10    1
    36     9    11    1
    37    10    12    1
    38    11     5    1
    39    33    34    1
    40    33    35    1
    41    34    36    1
    42    35    37    1
    43    37    43    1
    44    20    21   ar
    45    21    22   ar
@<TRIPOS>MOLECULE
*****
 43 45 0 0 0
SMALL
GASTEIGER

@<TRIPOS>ATOM
      1 P          23.5239   73.6043   -4.1747 P.3     1  UNL1        0.2189
      2 O          22.7666   75.0156   -4.4065 O.co2   1  UNL1       -0.4371
      3 O          25.0157   73.6999   -4.0439 O.2     1  UNL1       -0.5170
      4 O          22.9827   72.6704   -5.3801 O.3     1  UNL1       -0.3112
      5 C          21.6634   72.1625   -5.3017 C.3     1  UNL1        0.1811
      6 O          20.5027   70.3146   -6.3096 O.3     1  UNL1       -0.3308
      7 O          20.6932   71.8402   -8.8840 O.3     1  UNL1       -0.3794
      8 O          18.1265   72.3181   -8.0967 O.3     1  UNL1       -0.3779
      9 C          20.4973   72.3284   -7.5567 C.3     1  UNL1        0.1713
     10 C          19.0839   72.0415   -7.0959 C.3     1  UNL1        0.1895
     11 C          21.3218   71.4648   -6.6120 C.3     1  UNL1        0.1764
     12 C          19.1586   70.5639   -6.7506 C.3     1  UNL1        0.2383
     13 H          20.1760   72.3765   -9.5058 H       1  UNL1        0.2105
     14 H          18.1171   73.2710   -8.2805 H       1  UNL1        0.2106
     15 O          16.4681   69.8118   -7.1652 O.2     1  UNL1       -0.2464
     16 O          15.7571   69.1859   -2.6545 O.2     1  UNL1       -0.2670
     17 N          18.2480   70.1995   -5.7023 N.ar    1  UNL1       -0.2551
     18 N          16.1162   69.5018   -4.9182 N.ar    1  UNL1       -0.2743
     19 C          16.9169   69.8378   -6.0177 C.ar    1  UNL1        0.3323
     20 C          18.6759   70.2010   -4.3803 C.ar    1  UNL1        0.0869
     21 C          17.9011   69.8782   -3.3429 C.ar    1  UNL1        0.0795
     22 C          16.4965   69.4891   -3.5859 C.ar    1  UNL1        0.2626
     23 H          15.1849   69.2484   -5.1126 H       1  UNL1        0.1734
     24 O          22.7719   72.9975   -2.8790 O.3     1  UNL1       -0.2703
     25 P          22.8826   71.5493   -2.1689 P.3     1  UNL1        0.2208
     26 O          24.2242   70.9197   -2.8200 O.co2   1  UNL1       -0.4371
     27 O          21.6594   70.6926   -2.3234 O.2     1  UNL1       -0.5170
     28 O          23.2848   71.8726   -0.6405 O.3     1  UNL1       -0.2858
     29 O          24.6241   70.8681    1.0348 O.3     1  UNL1       -0.3226
     30 O          21.2649   71.9518    3.1817 O.3     1  UNL1       -0.3794
     31 O          21.0058   70.7782    0.5191 O.3     1  UNL1       -0.3775
     32 O          23.7140   73.4990    3.4248 O.3     1  UNL1       -0.3792
     33 C          22.2488   72.0696    2.1541 C.3     1  UNL1        0.1718
     34 C          22.2148   70.8242    1.2679 C.3     1  UNL1        0.1968
     35 C          23.6177   72.2091    2.8237 C.3     1  UNL1        0.1723
     36 C          23.4001   70.8077    0.3016 C.3     1  UNL1        0.2706
     37 C          24.7506   72.0563    1.8129 C.3     1  UNL1        0.1830
     38 H          20.3865   71.8619    2.7798 H       1  UNL1        0.2105
     39 H          20.2495   70.7886    1.1259 H       1  UNL1        0.2106
     40 H          22.9984   73.6092    4.0703 H       1  UNL1        0.2106
     41 O          26.4343   73.0016    3.1444 O.co2   1  UNL1       -0.5466
     42 O          26.7076   70.8288    2.5093 O.co2   1  UNL1       -0.5466
     43 C          26.0593   71.8646    2.5077 C.2     1  UNL1        0.0799
@<TRIPOS>UNITY_ATOM_ATTR
2 1
charge -1
26 1
charge -1
41 1
charge -1
@<TRIPOS>BOND
     1     1     4    1
     2     1    24    1
     3     1     2    1
     4     1     3    2
     5    25    28    1
     6    25    24    1
     7    25    26    1
     8    25    27    2
     9     6    11    1
    10     6    12    1
    11    29    36    1
    12    29    37    1
    13     7     9    1
    14     7    13    1
    15     8    10    1
    16     8    14    1
    17     4     5    1
    18    28    36    1
    19    30    33    1
    20    30    38    1
    21    31    34    1
    22    31    39    1
    23    32    35    1
    24    32    40    1
    25    41    43   ar
    26    15    19    2
    27    42    43   ar
    28    16    22    2
    29    17    12    1
    30    17    19   ar
    31    17    20   ar
    32    18    19   ar
    33    18    22   ar
    34    18    23    1
    35     9    10    1
    36     9    11    1
    37    10    12    1
    38    11     5    1
    39    33    34    1
    40    33    35    1
    41    34    36    1
    42    35    37    1
    43    37    43    1
    44    20    21   ar
    45    21    22   ar
@<TRIPOS>MOLECULE
*****
 43 45 0 0 0
SMALL
GASTEIGER

@<TRIPOS>ATOM
      1 P          21.4298   71.9879   -2.4553 P.3     1  UNL1        0.2189
      2 O          21.4925   73.5865   -2.2120 O.co2   1  UNL1       -0.4371
      3 O          22.2042   71.4970   -3.6433 O.2     1  UNL1       -0.5170
      4 O          19.8458   71.6580   -2.4640 O.3     1  UNL1       -0.3112
      5 C          19.3200   70.8947   -3.5342 C.3     1  UNL1        0.1811
      6 O          17.5857   71.7583   -4.9569 O.3     1  UNL1       -0.3308
      7 O          15.6596   70.2988   -3.1818 O.3     1  UNL1       -0.3794
      8 O          15.8537   68.6425   -5.3394 O.3     1  UNL1       -0.3779
      9 C          16.9715   69.9184   -3.5973 C.3     1  UNL1        0.1713
     10 C          16.9551   69.4762   -5.0452 C.3     1  UNL1        0.1895
     11 C          17.8280   71.1758   -3.6580 C.3     1  UNL1        0.1764
     12 C          16.8958   70.8045   -5.7801 C.3     1  UNL1        0.2383
     13 H          15.0938   69.5117   -3.1357 H       1  UNL1        0.2105
     14 H          15.9381   67.8100   -4.8478 H       1  UNL1        0.2106
     15 O          15.5333   70.3993   -8.2206 O.2     1  UNL1       -0.2464
     16 O          19.4449   70.6089  -10.6495 O.2     1  UNL1       -0.2670
     17 N          17.5336   70.7489   -7.0650 N.ar    1  UNL1       -0.2551
     18 N          17.4829   70.5031   -9.4279 N.ar    1  UNL1       -0.2743
     19 C          16.7576   70.5407   -8.2297 C.ar    1  UNL1        0.3323
     20 C          18.9113   70.9012   -7.1626 C.ar    1  UNL1        0.0869
     21 C          19.5886   70.8631   -8.3118 C.ar    1  UNL1        0.0795
     22 C          18.8528   70.6488   -9.5752 C.ar    1  UNL1        0.2626
     23 H          16.9646   70.3573  -10.2521 H       1  UNL1        0.1734
     24 O          21.9187   71.3855   -1.0372 O.3     1  UNL1       -0.2703
     25 P          21.4291   71.6938    0.4724 P.3     1  UNL1        0.2208
     26 O          21.4423   70.2336    1.1709 O.co2   1  UNL1       -0.4371
     27 O          20.1118   72.4087    0.5586 O.2     1  UNL1       -0.5170
     28 O          22.6635   72.4807    1.1503 O.3     1  UNL1       -0.2858
     29 O          24.4183   73.9496    0.5404 O.3     1  UNL1       -0.3226
     30 O          26.4388   71.0924    2.7363 O.3     1  UNL1       -0.3794
     31 O          24.3676   70.3056    0.8321 O.3     1  UNL1       -0.3775
     32 O          25.8772   73.6976    3.8975 O.3     1  UNL1       -0.3792
     33 C          25.3283   71.9133    2.3744 C.3     1  UNL1        0.1718
     34 C          24.9188   71.6136    0.9322 C.3     1  UNL1        0.1968
     35 C          25.7563   73.3760    2.5132 C.3     1  UNL1        0.1723
     36 C          23.8883   72.6278    0.4340 C.3     1  UNL1        0.2706
     37 C          24.7355   74.3176    1.8810 C.3     1  UNL1        0.1830
     38 H          26.1902   70.1580    2.6557 H       1  UNL1        0.2105
     39 H          25.0161   69.6570    1.1469 H       1  UNL1        0.2106
     40 H          26.5240   73.1053    4.3118 H       1  UNL1        0.2106
     41 O          24.4304   76.5008    1.0797 O.co2   1  UNL1       -0.5466
     42 O          26.4037   76.0433    2.1267 O.co2   1  UNL1       -0.5466
     43 C          25.3045   75.6904    1.7264 C.2     1  UNL1        0.0799
@<TRIPOS>UNITY_ATOM_ATTR
2 1
charge -1
26 1
charge -1
41 1
charge -1
@<TRIPOS>BOND
     1     1     4    1
     2     1    24    1
     3     1     2    1
     4     1     3    2
     5    25    28    1
     6    25    24    1
     7    25    26    1
     8    25    27    2
     9     6    11    1
    10     6    12    1
    11    29    36    1
    12    29    37    1
    13     7     9    1
    14     7    13    1
    15     8    10    1
    16     8    14    1
    17     4     5    1
    18    28    36    1
    19    30    33    1
    20    30    38    1
    21    31    34    1
    22    31    39    1
    23    32    35    1
    24    32    40    1
    25    41    43   ar
    26    15    19    2
    27    42    43   ar
    28    16    22    2
    29    17    12    1
    30    17    19   ar
    31    17    20   ar
    32    18    19   ar
    33    18    22   ar
    34    18    23    1
    35     9    10    1
    36     9    11    1
    37    10    12    1
    38    11     5    1
    39    33    34    1
    40    33    35    1
    41    34    36    1
    42    35    37    1
    43    37    43    1
    44    20    21   ar
    45    21    22   ar
@<TRIPOS>MOLECULE
*****
 43 45 0 0 0
SMALL
GASTEIGER

@<TRIPOS>ATOM
      1 P          22.9050   72.9718   -4.0098 P.3     1  UNL1        0.2189
      2 O          24.0942   71.8865   -3.8460 O.co2   1  UNL1       -0.4371
      3 O          23.3564   74.4015   -4.0732 O.2     1  UNL1       -0.5170
      4 O          21.8816   72.6107   -2.8097 O.3     1  UNL1       -0.3112
      5 C          21.1676   71.3898   -2.8745 C.3     1  UNL1        0.1811
      6 O          20.5601   70.7047   -0.6520 O.3     1  UNL1       -0.3308
      7 O          18.3771   72.7537   -0.8175 O.3     1  UNL1       -0.3794
      8 O          20.2725   74.0218    0.6777 O.3     1  UNL1       -0.3779
      9 C          19.7025   72.8007   -1.3462 C.3     1  UNL1        0.1713
     10 C          20.7028   73.0323   -0.2336 C.3     1  UNL1        0.1895
     11 C          20.0698   71.4006   -1.8185 C.3     1  UNL1        0.1764
     12 C          20.7948   71.6545    0.3997 C.3     1  UNL1        0.2383
     13 H          18.1201   73.6372   -0.5092 H       1  UNL1        0.2105
     14 H          20.2304   74.8802    0.2268 H       1  UNL1        0.2106
     15 O          21.4130   72.0019    3.1335 O.2     1  UNL1       -0.2464
     16 O          25.7762   70.6555    2.5058 O.2     1  UNL1       -0.2670
     17 N          22.0845   71.4021    0.9776 N.ar    1  UNL1       -0.2551
     18 N          23.5858   71.3320    2.8180 N.ar    1  UNL1       -0.2743
     19 C          22.2901   71.6084    2.3622 C.ar    1  UNL1        0.3323
     20 C          23.1278   70.9540    0.1765 C.ar    1  UNL1        0.0869
     21 C          24.3574   70.6947    0.6254 C.ar    1  UNL1        0.0795
     22 C          24.6560   70.8853    2.0600 C.ar    1  UNL1        0.2626
     23 H          23.7537   71.4701    3.7783 H       1  UNL1        0.1734
     24 O          22.1202   72.4545   -5.3248 O.3     1  UNL1       -0.2703
     25 P          21.2091   73.2490   -6.3982 P.3     1  UNL1        0.2208
     26 O          22.0060   73.0341   -7.7907 O.co2   1  UNL1       -0.4371
     27 O          20.9553   74.6863   -6.0464 O.2     1  UNL1       -0.5170
     28 O          19.8772   72.3513   -6.5486 O.3     1  UNL1       -0.2858
     29 O          19.3190   70.1735   -5.8038 O.3     1  UNL1       -0.3226
     30 O          17.4203   70.3205   -9.4701 O.3     1  UNL1       -0.3794
     31 O          20.1145   71.4047   -9.1532 O.3     1  UNL1       -0.3775
     32 O          15.8799   70.5744   -7.0178 O.3     1  UNL1       -0.3792
     33 C          17.9343   70.8469   -8.2467 C.3     1  UNL1        0.1718
     34 C          19.4434   70.6105   -8.1818 C.3     1  UNL1        0.1968
     35 C          17.2330   70.1291   -7.0913 C.3     1  UNL1        0.1723
     36 C          19.9914   70.9510   -6.7952 C.3     1  UNL1        0.2706
     37 C          17.9155   70.4205   -5.7580 C.3     1  UNL1        0.1830
     38 H          17.8517   70.7619  -10.2187 H       1  UNL1        0.2105
     39 H          19.7715   71.1940  -10.0354 H       1  UNL1        0.2106
     40 H          15.4342   70.3948   -7.8604 H       1  UNL1        0.2106
     41 O          16.5711   68.5751   -5.2211 O.co2   1  UNL1       -0.5466
     42 O          17.7903   69.5005   -3.5311 O.co2   1  UNL1       -0.5466
     43 C          17.4427   69.4750   -4.7022 C.2     1  UNL1        0.0799
@<TRIPOS>UNITY_ATOM_ATTR
2 1
charge -1
26 1
charge -1
41 1
charge -1
@<TRIPOS>BOND
     1     1     4    1
     2     1    24    1
     3     1     2    1
     4     1     3    2
     5    25    28    1
     6    25    24    1
     7    25    26    1
     8    25    27    2
     9     6    11    1
    10     6    12    1
    11    29    36    1
    12    29    37    1
    13     7     9    1
    14     7    13    1
    15     8    10    1
    16     8    14    1
    17     4     5    1
    18    28    36    1
    19    30    33    1
    20    30    38    1
    21    31    34    1
    22    31    39    1
    23    32    35    1
    24    32    40    1
    25    41    43   ar
    26    15    19    2
    27    42    43   ar
    28    16    22    2
    29    17    12    1
    30    17    19   ar
    31    17    20   ar
    32    18    19   ar
    33    18    22   ar
    34    18    23    1
    35     9    10    1
    36     9    11    1
    37    10    12    1
    38    11     5    1
    39    33    34    1
    40    33    35    1
    41    34    36    1
    42    35    37    1
    43    37    43    1
    44    20    21   ar
    45    21    22   ar
@<TRIPOS>MOLECULE
*****
 43 45 0 0 0
SMALL
GASTEIGER

@<TRIPOS>ATOM
      1 P          21.3824   72.6577   -4.6827 P.3     1  UNL1        0.2189
      2 O          21.2980   74.1502   -4.0628 O.co2   1  UNL1       -0.4371
      3 O          22.1654   72.5447   -5.9578 O.2     1  UNL1       -0.5170
      4 O          19.8379   72.1822   -4.7622 O.3     1  UNL1       -0.3112
      5 C          19.3299   71.3589   -3.7284 C.3     1  UNL1        0.1811
      6 O          17.4381   71.7024   -5.1708 O.3     1  UNL1       -0.3308
      7 O          15.8763   70.0645   -3.2037 O.3     1  UNL1       -0.3794
      8 O          16.3839   68.2757   -5.1984 O.3     1  UNL1       -0.3779
      9 C          17.2337   69.9212   -3.6228 C.3     1  UNL1        0.1713
     10 C          17.2923   69.3423   -5.0206 C.3     1  UNL1        0.1895
     11 C          17.8107   71.3148   -3.8306 C.3     1  UNL1        0.1764
     12 C          16.9509   70.5500   -5.8766 C.3     1  UNL1        0.2383
     13 H          15.4862   69.1869   -3.0645 H       1  UNL1        0.2105
     14 H          16.6444   67.5315   -4.6325 H       1  UNL1        0.2106
     15 O          15.5474   70.6672   -8.3247 O.2     1  UNL1       -0.2464
     16 O          19.4352   70.3412  -10.7789 O.2     1  UNL1       -0.2670
     17 N          17.5715   70.4979   -7.1701 N.ar    1  UNL1       -0.2551
     18 N          17.4850   70.5037   -9.5447 N.ar    1  UNL1       -0.2743
     19 C          16.7755   70.5642   -8.3380 C.ar    1  UNL1        0.3323
     20 C          18.9526   70.3841   -7.2727 C.ar    1  UNL1        0.0869
     21 C          19.6146   70.3278   -8.4300 C.ar    1  UNL1        0.0795
     22 C          18.8574   70.3899   -9.6973 C.ar    1  UNL1        0.2626
     23 H          16.9521   70.5460  -10.3715 H       1  UNL1        0.1734
     24 O          21.9680   71.7867   -3.4534 O.3     1  UNL1       -0.2703
     25 P          23.4024   71.8321   -2.7090 P.3     1  UNL1        0.2208
     26 O          24.0333   73.2371   -3.2070 O.co2   1  UNL1       -0.4371
     27 O          24.2710   70.6362   -2.9724 O.2     1  UNL1       -0.5170
     28 O          23.0488   72.0731   -1.1535 O.3     1  UNL1       -0.2858
     29 O          24.2717   71.0786    0.6141 O.3     1  UNL1       -0.3226
     30 O          20.6784   71.9435    2.4603 O.3     1  UNL1       -0.3794
     31 O          20.7260   70.8421   -0.2452 O.3     1  UNL1       -0.3775
     32 O          23.0175   73.5909    2.9758 O.3     1  UNL1       -0.3792
     33 C          21.7475   72.1370    1.5342 C.3     1  UNL1        0.1718
     34 C          21.8560   70.9192    0.6161 C.3     1  UNL1        0.1968
     35 C          23.0395   72.3171    2.3343 C.3     1  UNL1        0.1723
     36 C          23.1260   70.9859   -0.2333 C.3     1  UNL1        0.2706
     37 C          24.2680   72.2466    1.4319 C.3     1  UNL1        0.1830
     38 H          19.8468   71.8266    1.9745 H       1  UNL1        0.2105
     39 H          19.9165   70.7998    0.2872 H       1  UNL1        0.2106
     40 H          22.2401   73.6488    3.5531 H       1  UNL1        0.2106
     41 O          25.9573   70.8118    2.1995 O.co2   1  UNL1       -0.5466
     42 O          26.0642   72.9916    2.8602 O.co2   1  UNL1       -0.5466
     43 C          25.5135   72.0925    2.2426 C.2     1  UNL1        0.0799
@<TRIPOS>UNITY_ATOM_ATTR
2 1
charge -1
26 1
charge -1
41 1
charge -1
@<TRIPOS>BOND
     1     1     4    1
     2     1    24    1
     3     1     2    1
     4     1     3    2
     5    25    28    1
     6    25    24    1
     7    25    26    1
     8    25    27    2
     9     6    11    1
    10     6    12    1
    11    29    36    1
    12    29    37    1
    13     7     9    1
    14     7    13    1
    15     8    10    1
    16     8    14    1
    17     4     5    1
    18    28    36    1
    19    30    33    1
    20    30    38    1
    21    31    34    1
    22    31    39    1
    23    32    35    1
    24    32    40    1
    25    41    43   ar
    26    15    19    2
    27    42    43   ar
    28    16    22    2
    29    17    12    1
    30    17    19   ar
    31    17    20   ar
    32    18    19   ar
    33    18    22   ar
    34    18    23    1
    35     9    10    1
    36     9    11    1
    37    10    12    1
    38    11     5    1
    39    33    34    1
    40    33    35    1
    41    34    36    1
    42    35    37    1
    43    37    43    1
    44    20    21   ar
    45    21    22   ar
@<TRIPOS>MOLECULE
*****
 43 45 0 0 0
SMALL
GASTEIGER

@<TRIPOS>ATOM
      1 P          23.1980   72.0396   -2.8832 P.3     1  UNL1        0.2189
      2 O          23.7378   73.4523   -3.4593 O.co2   1  UNL1       -0.4371
      3 O          24.1617   70.8958   -3.0051 O.2     1  UNL1       -0.5170
      4 O          21.7721   71.8386   -3.6210 O.3     1  UNL1       -0.3112
      5 C          21.4265   72.7178   -4.6754 C.3     1  UNL1        0.1811
      6 O          20.6123   70.7078   -5.7121 O.3     1  UNL1       -0.3308
      7 O          20.9960   72.1230   -8.3277 O.3     1  UNL1       -0.3794
      8 O          18.3100   72.3503   -7.9156 O.3     1  UNL1       -0.3779
      9 C          20.5702   72.6481   -7.0701 C.3     1  UNL1        0.1713
     10 C          19.1443   72.2284   -6.7826 C.3     1  UNL1        0.1895
     11 C          21.3420   71.9261   -5.9740 C.3     1  UNL1        0.1764
     12 C          19.3231   70.7860   -6.3406 C.3     1  UNL1        0.2383
     13 H          20.5166   72.5691   -9.0438 H       1  UNL1        0.2105
     14 H          18.2276   73.2867   -8.1572 H       1  UNL1        0.2106
     15 O          16.7810   69.7863   -7.0584 O.2     1  UNL1       -0.2464
     16 O          15.5532   69.2300   -2.6508 O.2     1  UNL1       -0.2670
     17 N          18.3197   70.3725   -5.4008 N.ar    1  UNL1       -0.2551
     18 N          16.1715   69.5111   -4.8625 N.ar    1  UNL1       -0.2743
     19 C          17.0753   69.8851   -5.8657 C.ar    1  UNL1        0.3323
     20 C          18.5729   70.4501   -4.0367 C.ar    1  UNL1        0.0869
     21 C          17.7016   70.0898   -3.0924 C.ar    1  UNL1        0.0795
     22 C          16.3776   69.5707   -3.4937 C.ar    1  UNL1        0.2626
     23 H          15.2976   69.1706   -5.1617 H       1  UNL1        0.1734
     24 O          22.7742   72.4043   -1.3666 O.3     1  UNL1       -0.2703
     25 P          22.3636   71.4572   -0.1223 P.3     1  UNL1        0.2208
     26 O          23.7503   70.7073    0.2451 O.co2   1  UNL1       -0.4371
     27 O          21.2161   70.5314   -0.4055 O.2     1  UNL1       -0.5170
     28 O          22.1148   72.4764    1.1031 O.3     1  UNL1       -0.2858
     29 O          23.1201   74.4905    1.8394 O.3     1  UNL1       -0.3226
     30 O          22.4605   72.5248    5.4128 O.3     1  UNL1       -0.3794
     31 O          23.4663   71.0713    3.0869 O.3     1  UNL1       -0.3775
     32 O          20.7409   74.7314    4.6222 O.3     1  UNL1       -0.3792
     33 C          22.1937   72.8934    4.0597 C.3     1  UNL1        0.1718
     34 C          23.3742   72.4884    3.1767 C.3     1  UNL1        0.1968
     35 C          21.9902   74.4095    4.0139 C.3     1  UNL1        0.1723
     36 C          23.2288   73.0683    1.7690 C.3     1  UNL1        0.2706
     37 C          21.9816   74.9273    2.5785 C.3     1  UNL1        0.1830
     38 H          22.5933   71.5653    5.4665 H       1  UNL1        0.2105
     39 H          23.5585   70.6967    3.9765 H       1  UNL1        0.2106
     40 H          20.7333   74.4071    5.5363 H       1  UNL1        0.2106
     41 O          22.7832   76.8154    1.4409 O.co2   1  UNL1       -0.5466
     42 O          21.6804   77.1743    3.4041 O.co2   1  UNL1       -0.5466
     43 C          22.1142   76.4152    2.5505 C.2     1  UNL1        0.0799
@<TRIPOS>UNITY_ATOM_ATTR
2 1
charge -1
26 1
charge -1
41 1
charge -1
@<TRIPOS>BOND
     1     1     4    1
     2     1    24    1
     3     1     2    1
     4     1     3    2
     5    25    28    1
     6    25    24    1
     7    25    26    1
     8    25    27    2
     9     6    11    1
    10     6    12    1
    11    29    36    1
    12    29    37    1
    13     7     9    1
    14     7    13    1
    15     8    10    1
    16     8    14    1
    17     4     5    1
    18    28    36    1
    19    30    33    1
    20    30    38    1
    21    31    34    1
    22    31    39    1
    23    32    35    1
    24    32    40    1
    25    41    43   ar
    26    15    19    2
    27    42    43   ar
    28    16    22    2
    29    17    12    1
    30    17    19   ar
    31    17    20   ar
    32    18    19   ar
    33    18    22   ar
    34    18    23    1
    35     9    10    1
    36     9    11    1
    37    10    12    1
    38    11     5    1
    39    33    34    1
    40    33    35    1
    41    34    36    1
    42    35    37    1
    43    37    43    1
    44    20    21   ar
    45    21    22   ar
@<TRIPOS>MOLECULE
*****
 43 45 0 0 0
SMALL
GASTEIGER

@<TRIPOS>ATOM
      1 P          23.3373   71.8479   -3.0549 P.3     1  UNL1        0.2189
      2 O          23.8891   73.1961   -3.7596 O.co2   1  UNL1       -0.4371
      3 O          24.3106   70.7062   -3.0222 O.2     1  UNL1       -0.5170
      4 O          21.9385   71.5571   -3.8143 O.3     1  UNL1       -0.3112
      5 C          21.5025   72.4727   -4.8023 C.3     1  UNL1        0.1811
      6 O          20.5372   70.5429   -5.8615 O.3     1  UNL1       -0.3308
      7 O          20.8756   72.0236   -8.4470 O.3     1  UNL1       -0.3794
      8 O          18.2268   72.3742   -7.9018 O.3     1  UNL1       -0.3779
      9 C          20.5357   72.5273   -7.1549 C.3     1  UNL1        0.1713
     10 C          19.1042   72.1718   -6.8137 C.3     1  UNL1        0.1895
     11 C          21.3174   71.7304   -6.1195 C.3     1  UNL1        0.1764
     12 C          19.2266   70.7081   -6.4257 C.3     1  UNL1        0.2383
     13 H          20.3882   72.5174   -9.1254 H       1  UNL1        0.2105
     14 H          18.1830   73.3211   -8.1099 H       1  UNL1        0.2106
     15 O          16.6328   69.7864   -7.0575 O.2     1  UNL1       -0.2464
     16 O          15.5503   69.2283   -2.6122 O.2     1  UNL1       -0.2670
     17 N          18.2466   70.3152   -5.4530 N.ar    1  UNL1       -0.2551
     18 N          16.0958   69.5103   -4.8429 N.ar    1  UNL1       -0.2743
     19 C          16.9729   69.8669   -5.8757 C.ar    1  UNL1        0.3323
     20 C          18.5513   70.3743   -4.0985 C.ar    1  UNL1        0.0869
     21 C          17.7049   70.0309   -3.1257 C.ar    1  UNL1        0.0795
     22 C          16.3530   69.5526   -3.4821 C.ar    1  UNL1        0.2626
     23 H          15.2022   69.1970   -5.1125 H       1  UNL1        0.1734
     24 O          22.8601   72.3677   -1.6007 O.3     1  UNL1       -0.2703
     25 P          22.3212   71.5590   -0.3086 P.3     1  UNL1        0.2208
     26 O          23.6193   70.7185    0.1695 O.co2   1  UNL1       -0.4371
     27 O          21.1037   70.7206   -0.5707 O.2     1  UNL1       -0.5170
     28 O          22.1253   72.6871    0.8278 O.3     1  UNL1       -0.2858
     29 O          21.8719   72.5691    3.1796 O.3     1  UNL1       -0.3226
     30 O          19.3595   75.7051    2.2197 O.3     1  UNL1       -0.3794
     31 O          19.4252   73.2997    0.5631 O.3     1  UNL1       -0.3775
     32 O          21.9493   76.2287    3.4321 O.3     1  UNL1       -0.3792
     33 C          20.5010   74.8595    2.0783 C.3     1  UNL1        0.1718
     34 C          20.0450   73.4201    1.8383 C.3     1  UNL1        0.1968
     35 C          21.3196   74.9504    3.3681 C.3     1  UNL1        0.1723
     36 C          21.2270   72.4524    1.9108 C.3     1  UNL1        0.2706
     37 C          22.3982   73.8722    3.4205 C.3     1  UNL1        0.1830
     38 H          18.8240   75.6635    1.4118 H       1  UNL1        0.2105
     39 H          18.6744   73.9112    0.5100 H       1  UNL1        0.2106
     40 H          21.2737   76.9239    3.3994 H       1  UNL1        0.2106
     41 O          22.5697   72.5975    5.3820 O.co2   1  UNL1       -0.5466
     42 O          23.6883   74.5838    5.3312 O.co2   1  UNL1       -0.5466
     43 C          22.9652   73.7557    4.7979 C.2     1  UNL1        0.0799
@<TRIPOS>UNITY_ATOM_ATTR
2 1
charge -1
26 1
charge -1
41 1
charge -1
@<TRIPOS>BOND
     1     1     4    1
     2     1    24    1
     3     1     2    1
     4     1     3    2
     5    25    28    1
     6    25    24    1
     7    25    26    1
     8    25    27    2
     9     6    11    1
    10     6    12    1
    11    29    36    1
    12    29    37    1
    13     7     9    1
    14     7    13    1
    15     8    10    1
    16     8    14    1
    17     4     5    1
    18    28    36    1
    19    30    33    1
    20    30    38    1
    21    31    34    1
    22    31    39    1
    23    32    35    1
    24    32    40    1
    25    41    43   ar
    26    15    19    2
    27    42    43   ar
    28    16    22    2
    29    17    12    1
    30    17    19   ar
    31    17    20   ar
    32    18    19   ar
    33    18    22   ar
    34    18    23    1
    35     9    10    1
    36     9    11    1
    37    10    12    1
    38    11     5    1
    39    33    34    1
    40    33    35    1
    41    34    36    1
    42    35    37    1
    43    37    43    1
    44    20    21   ar
    45    21    22   ar
@<TRIPOS>MOLECULE
*****
 43 45 0 0 0
SMALL
GASTEIGER

@<TRIPOS>ATOM
      1 P          23.0329   73.4906   -4.6243 P.3     1  UNL1        0.2189
      2 O          24.1805   72.4383   -4.1832 O.co2   1  UNL1       -0.4371
      3 O          23.5414   74.8179   -5.1052 O.2     1  UNL1       -0.5170
      4 O          22.0393   73.5393   -3.3482 O.3     1  UNL1       -0.3112
      5 C          22.5822   73.3167   -2.0597 C.3     1  UNL1        0.1811
      6 O          23.2896   71.3672   -0.8445 O.3     1  UNL1       -0.3308
      7 O          20.3845   70.6418   -0.6837 O.3     1  UNL1       -0.3794
      8 O          20.8744   71.6904    1.7854 O.3     1  UNL1       -0.3779
      9 C          20.9986   71.9297   -0.6311 C.3     1  UNL1        0.1713
     10 C          21.6733   72.1343    0.7087 C.3     1  UNL1        0.1895
     11 C          22.1836   71.9245   -1.5871 C.3     1  UNL1        0.1764
     12 C          22.9451   71.3189    0.5492 C.3     1  UNL1        0.2383
     13 H          19.6244   70.6208   -0.0809 H       1  UNL1        0.2105
     14 H          20.0774   72.2411    1.8452 H       1  UNL1        0.2106
     15 O          24.7883   69.7433    1.9971 O.2     1  UNL1       -0.2464
     16 O          27.0892   73.4576    3.4646 O.2     1  UNL1       -0.2670
     17 N          24.0356   71.8483    1.3183 N.ar    1  UNL1       -0.2551
     18 N          25.9319   71.5948    2.7274 N.ar    1  UNL1       -0.2743
     19 C          24.9040   70.9702    2.0088 C.ar    1  UNL1        0.3323
     20 C          24.2371   73.2217    1.3817 C.ar    1  UNL1        0.0869
     21 C          25.2215   73.8023    2.0708 C.ar    1  UNL1        0.0795
     22 C          26.1724   72.9560    2.8211 C.ar    1  UNL1        0.2626
     23 H          26.5481   71.0041    3.2181 H       1  UNL1        0.1734
     24 O          22.1798   72.6600   -5.7175 O.3     1  UNL1       -0.2703
     25 P          21.2234   73.1607   -6.9210 P.3     1  UNL1        0.2208
     26 O          21.8872   72.4772   -8.2296 O.co2   1  UNL1       -0.4371
     27 O          21.0753   74.6520   -7.0101 O.2     1  UNL1       -0.5170
     28 O          19.8388   72.3622   -6.7027 O.3     1  UNL1       -0.2858
     29 O          19.4159   70.2499   -5.7186 O.3     1  UNL1       -0.3226
     30 O          16.5036   70.4124   -8.6443 O.3     1  UNL1       -0.3794
     31 O          19.2214   71.3237   -9.2080 O.3     1  UNL1       -0.3775
     32 O          15.7976   70.8422   -5.8573 O.3     1  UNL1       -0.3792
     33 C          17.3929   70.9401   -7.6601 C.3     1  UNL1        0.1718
     34 C          18.8352   70.6057   -8.0418 C.3     1  UNL1        0.1968
     35 C          17.0380   70.3058   -6.3134 C.3     1  UNL1        0.1723
     36 C          19.7964   70.9506   -6.9034 C.3     1  UNL1        0.2706
     37 C          18.1083   70.5912   -5.2639 C.3     1  UNL1        0.1830
     38 H          16.7103   70.8013   -9.5088 H       1  UNL1        0.2105
     39 H          18.6155   71.1098   -9.9343 H       1  UNL1        0.2106
     40 H          15.1078   70.6674   -6.5164 H       1  UNL1        0.2106
     41 O          16.8900   68.8591   -4.2554 O.co2   1  UNL1       -0.5466
     42 O          18.6181   69.7471   -3.0619 O.co2   1  UNL1       -0.5466
     43 C          17.9282   69.7116   -4.0697 C.2     1  UNL1        0.0799
@<TRIPOS>UNITY_ATOM_ATTR
2 1
charge -1
26 1
charge -1
41 1
charge -1
@<TRIPOS>BOND
     1     1     4    1
     2     1    24    1
     3     1     2    1
     4     1     3    2
     5    25    28    1
     6    25    24    1
     7    25    26    1
     8    25    27    2
     9     6    11    1
    10     6    12    1
    11    29    36    1
    12    29    37    1
    13     7     9    1
    14     7    13    1
    15     8    10    1
    16     8    14    1
    17     4     5    1
    18    28    36    1
    19    30    33    1
    20    30    38    1
    21    31    34    1
    22    31    39    1
    23    32    35    1
    24    32    40    1
    25    41    43   ar
    26    15    19    2
    27    42    43   ar
    28    16    22    2
    29    17    12    1
    30    17    19   ar
    31    17    20   ar
    32    18    19   ar
    33    18    22   ar
    34    18    23    1
    35     9    10    1
    36     9    11    1
    37    10    12    1
    38    11     5    1
    39    33    34    1
    40    33    35    1
    41    34    36    1
    42    35    37    1
    43    37    43    1
    44    20    21   ar
    45    21    22   ar
@<TRIPOS>MOLECULE
*****
 43 45 0 0 0
SMALL
GASTEIGER

@<TRIPOS>ATOM
      1 P          23.4533   72.2555   -3.4506 P.3     1  UNL1        0.2189
      2 O          23.9855   70.7555   -3.1580 O.co2   1  UNL1       -0.4371
      3 O          24.4743   73.1873   -4.0347 O.2     1  UNL1       -0.5170
      4 O          22.8033   72.7186   -2.0431 O.3     1  UNL1       -0.3112
      5 C          23.6321   72.7577   -0.8960 C.3     1  UNL1        0.1811
      6 O          24.5999   71.2492    0.7057 O.3     1  UNL1       -0.3308
      7 O          21.8061   70.2806    1.2035 O.3     1  UNL1       -0.3794
      8 O          22.2456   71.9447    3.3186 O.3     1  UNL1       -0.3779
      9 C          22.2665   71.6002    0.9117 C.3     1  UNL1        0.1713
     10 C          22.9535   72.1953    2.1225 C.3     1  UNL1        0.1895
     11 C          23.4140   71.4883   -0.0828 C.3     1  UNL1        0.1764
     12 C          24.3065   71.5054    2.0883 C.3     1  UNL1        0.2383
     13 H          21.0726   70.3264    1.8372 H       1  UNL1        0.2105
     14 H          21.3919   72.4055    3.2917 H       1  UNL1        0.2106
     15 O          26.9775   70.6552    2.4338 O.2     1  UNL1       -0.2464
     16 O          28.2281   74.7108    4.2317 O.2     1  UNL1       -0.2670
     17 N          25.3507   72.3188    2.6442 N.ar    1  UNL1       -0.2551
     18 N          27.5976   72.6756    3.3299 N.ar    1  UNL1       -0.2743
     19 C          26.6590   71.7959    2.7746 C.ar    1  UNL1        0.3323
     20 C          25.0749   73.6184    3.0516 C.ar    1  UNL1        0.0869
     21 C          25.9801   74.4449    3.5790 C.ar    1  UNL1        0.0795
     22 C          27.3709   73.9760    3.7505 C.ar    1  UNL1        0.2626
     23 H          28.5150   72.3333    3.4325 H       1  UNL1        0.1734
     24 O          22.1578   72.0052   -4.3843 O.3     1  UNL1       -0.2703
     25 P          20.5860   72.2666   -4.1111 P.3     1  UNL1        0.2208
     26 O          20.5272   73.8490   -3.7750 O.co2   1  UNL1       -0.4371
     27 O          19.9907   71.3867   -3.0503 O.2     1  UNL1       -0.5170
     28 O          19.8906   72.1320   -5.5605 O.3     1  UNL1       -0.2858
     29 O          19.0174   69.9307   -5.5857 O.3     1  UNL1       -0.3226
     30 O          17.5853   71.4440   -9.1531 O.3     1  UNL1       -0.3794
     31 O          20.3256   71.9957   -8.3043 O.3     1  UNL1       -0.3775
     32 O          15.8065   71.1545   -6.8721 O.3     1  UNL1       -0.3792
     33 C          18.0073   71.4982   -7.7904 C.3     1  UNL1        0.1718
     34 C          19.4641   71.0459   -7.6875 C.3     1  UNL1        0.1968
     35 C          17.1028   70.5689   -6.9779 C.3     1  UNL1        0.1723
     36 C          19.8807   70.8707   -6.2265 C.3     1  UNL1        0.2706
     37 C          17.6531   70.3448   -5.5724 C.3     1  UNL1        0.1830
     38 H          18.1460   72.0270   -9.6889 H       1  UNL1        0.2105
     39 H          20.0668   72.1121   -9.2316 H       1  UNL1        0.2106
     40 H          15.4451   71.3024   -7.7599 H       1  UNL1        0.2106
     41 O          16.1698   68.5411   -5.7911 O.co2   1  UNL1       -0.5466
     42 O          17.0873   68.8895   -3.7330 O.co2   1  UNL1       -0.5466
     43 C          16.9612   69.1992   -4.9082 C.2     1  UNL1        0.0799
@<TRIPOS>UNITY_ATOM_ATTR
2 1
charge -1
26 1
charge -1
41 1
charge -1
@<TRIPOS>BOND
     1     1     4    1
     2     1    24    1
     3     1     2    1
     4     1     3    2
     5    25    28    1
     6    25    24    1
     7    25    26    1
     8    25    27    2
     9     6    11    1
    10     6    12    1
    11    29    36    1
    12    29    37    1
    13     7     9    1
    14     7    13    1
    15     8    10    1
    16     8    14    1
    17     4     5    1
    18    28    36    1
    19    30    33    1
    20    30    38    1
    21    31    34    1
    22    31    39    1
    23    32    35    1
    24    32    40    1
    25    41    43   ar
    26    15    19    2
    27    42    43   ar
    28    16    22    2
    29    17    12    1
    30    17    19   ar
    31    17    20   ar
    32    18    19   ar
    33    18    22   ar
    34    18    23    1
    35     9    10    1
    36     9    11    1
    37    10    12    1
    38    11     5    1
    39    33    34    1
    40    33    35    1
    41    34    36    1
    42    35    37    1
    43    37    43    1
    44    20    21   ar
    45    21    22   ar
@<TRIPOS>MOLECULE
*****
 43 45 0 0 0
SMALL
GASTEIGER

@<TRIPOS>ATOM
      1 P          19.2107   72.0221   -1.3297 P.3     1  UNL1        0.2189
      2 O          19.7246   73.0993   -2.4226 O.co2   1  UNL1       -0.4371
      3 O          19.8463   70.6665   -1.4288 O.2     1  UNL1       -0.5170
      4 O          17.5999   72.0555   -1.4790 O.3     1  UNL1       -0.3112
      5 C          17.0443   72.3967   -2.7357 C.3     1  UNL1        0.1811
      6 O          16.0967   71.2335   -4.6137 O.3     1  UNL1       -0.3308
      7 O          15.3419   69.0838   -2.6641 O.3     1  UNL1       -0.3794
      8 O          17.5736   68.0575   -3.8483 O.3     1  UNL1       -0.3779
      9 C          16.5056   69.9107   -2.6918 C.3     1  UNL1        0.1713
     10 C          17.4408   69.4626   -3.7949 C.3     1  UNL1        0.1895
     11 C          16.0876   71.2941   -3.1709 C.3     1  UNL1        0.1764
     12 C          16.7671   70.0337   -5.0309 C.3     1  UNL1        0.2383
     13 H          15.5840   68.1944   -2.3610 H       1  UNL1        0.2105
     14 H          18.0081   67.7429   -3.0394 H       1  UNL1        0.2106
     15 O          16.1383   70.1326   -7.7825 O.2     1  UNL1       -0.2464
     16 O          20.4525   71.2961   -8.9132 O.2     1  UNL1       -0.2670
     17 N          17.7069   70.3597   -6.0660 N.ar    1  UNL1       -0.2551
     18 N          18.2878   70.7110   -8.3431 N.ar    1  UNL1       -0.2743
     19 C          17.2889   70.3814   -7.4176 C.ar    1  UNL1        0.3323
     20 C          19.0246   70.6551   -5.7385 C.ar    1  UNL1        0.0869
     21 C          19.9654   70.9676   -6.6318 C.ar    1  UNL1        0.0795
     22 C          19.6115   71.0117   -8.0657 C.ar    1  UNL1        0.2626
     23 H          18.0212   70.7305   -9.2907 H       1  UNL1        0.1734
     24 O          19.4613   72.7823    0.0747 O.3     1  UNL1       -0.2703
     25 P          20.8014   72.9590    0.9616 P.3     1  UNL1        0.2208
     26 O          21.3055   71.4360    1.1775 O.co2   1  UNL1       -0.4371
     27 O          20.6005   73.7302    2.2339 O.2     1  UNL1       -0.5170
     28 O          21.8794   73.6051   -0.0499 O.3     1  UNL1       -0.2858
     29 O          23.4479   72.3527   -1.3069 O.3     1  UNL1       -0.3226
     30 O          25.2836   76.0489   -1.1150 O.3     1  UNL1       -0.3794
     31 O          23.9601   74.9288    1.2363 O.3     1  UNL1       -0.3775
     32 O          23.9884   75.1887   -3.5713 O.3     1  UNL1       -0.3792
     33 C          24.1824   75.1420   -1.1702 C.3     1  UNL1        0.1718
     34 C          24.2277   74.2077    0.0392 C.3     1  UNL1        0.1968
     35 C          24.2959   74.3388   -2.4678 C.3     1  UNL1        0.1723
     36 C          23.2046   73.0799   -0.1022 C.3     1  UNL1        0.2706
     37 C          23.3301   73.1575   -2.4780 C.3     1  UNL1        0.1830
     38 H          25.2326   76.5703   -0.2984 H       1  UNL1        0.2105
     39 H          24.6055   75.6462    1.3322 H       1  UNL1        0.2106
     40 H          24.5960   75.9448   -3.5762 H       1  UNL1        0.2106
     41 O          24.0932   71.0194   -3.0679 O.co2   1  UNL1       -0.5466
     42 O          23.5809   72.4473   -4.7702 O.co2   1  UNL1       -0.5466
     43 C          23.6705   72.2034   -3.5763 C.2     1  UNL1        0.0799
@<TRIPOS>UNITY_ATOM_ATTR
2 1
charge -1
26 1
charge -1
41 1
charge -1
@<TRIPOS>BOND
     1     1     4    1
     2     1    24    1
     3     1     2    1
     4     1     3    2
     5    25    28    1
     6    25    24    1
     7    25    26    1
     8    25    27    2
     9     6    11    1
    10     6    12    1
    11    29    36    1
    12    29    37    1
    13     7     9    1
    14     7    13    1
    15     8    10    1
    16     8    14    1
    17     4     5    1
    18    28    36    1
    19    30    33    1
    20    30    38    1
    21    31    34    1
    22    31    39    1
    23    32    35    1
    24    32    40    1
    25    41    43   ar
    26    15    19    2
    27    42    43   ar
    28    16    22    2
    29    17    12    1
    30    17    19   ar
    31    17    20   ar
    32    18    19   ar
    33    18    22   ar
    34    18    23    1
    35     9    10    1
    36     9    11    1
    37    10    12    1
    38    11     5    1
    39    33    34    1
    40    33    35    1
    41    34    36    1
    42    35    37    1
    43    37    43    1
    44    20    21   ar
    45    21    22   ar
@<TRIPOS>MOLECULE
*****
 43 45 0 0 0
SMALL
GASTEIGER

@<TRIPOS>ATOM
      1 P          22.8508   72.7675   -3.6275 P.3     1  UNL1        0.2189
      2 O          23.2717   74.0210   -4.5605 O.co2   1  UNL1       -0.4371
      3 O          23.8136   71.6166   -3.6405 O.2     1  UNL1       -0.5170
      4 O          21.3402   72.4251   -4.0952 O.3     1  UNL1       -0.3112
      5 C          20.8038   71.1552   -3.7722 C.3     1  UNL1        0.1811
      6 O          18.6845   71.7796   -4.7189 O.3     1  UNL1       -0.3308
      7 O          17.4359   70.2709   -2.4482 O.3     1  UNL1       -0.3794
      8 O          17.2277   68.5097   -4.5196 O.3     1  UNL1       -0.3779
      9 C          18.6267   69.9797   -3.1802 C.3     1  UNL1        0.1713
     10 C          18.2801   69.4508   -4.5558 C.3     1  UNL1        0.1895
     11 C          19.3104   71.2997   -3.5093 C.3     1  UNL1        0.1764
     12 C          17.9026   70.7222   -5.2967 C.3     1  UNL1        0.2383
     13 H          16.9815   69.4426   -2.2265 H       1  UNL1        0.2105
     14 H          17.5177   67.7187   -4.0378 H       1  UNL1        0.2106
     15 O          15.9513   70.3446   -7.3033 O.2     1  UNL1       -0.2464
     16 O          19.1155   70.4358  -10.6534 O.2     1  UNL1       -0.2670
     17 N          18.1888   70.6435   -6.7012 N.ar    1  UNL1       -0.2551
     18 N          17.5292   70.3894   -8.9698 N.ar    1  UNL1       -0.2743
     19 C          17.1357   70.4520   -7.6266 C.ar    1  UNL1        0.3323
     20 C          19.4992   70.7573   -7.1494 C.ar    1  UNL1        0.0869
     21 C          19.8588   70.6957   -8.4330 C.ar    1  UNL1        0.0795
     22 C          18.8191   70.4965   -9.4639 C.ar    1  UNL1        0.2626
     23 H          16.8137   70.2545   -9.6325 H       1  UNL1        0.1734
     24 O          22.6366   73.4499   -2.1779 O.3     1  UNL1       -0.2703
     25 P          21.2873   73.8196   -1.3678 P.3     1  UNL1        0.2208
     26 O          20.9165   72.4351   -0.6155 O.co2   1  UNL1       -0.4371
     27 O          20.1857   74.3716   -2.2255 O.2     1  UNL1       -0.5170
     28 O          21.7755   74.8059   -0.1882 O.3     1  UNL1       -0.2858
     29 O          22.8216   74.2838    1.8715 O.3     1  UNL1       -0.3226
     30 O          23.7746   70.9788   -0.4169 O.3     1  UNL1       -0.3794
     31 O          23.9046   73.6621   -1.5647 O.3     1  UNL1       -0.3775
     32 O          21.7098   70.7962    1.6213 O.3     1  UNL1       -0.3792
     33 C          22.9707   72.0762    0.0160 C.3     1  UNL1        0.1718
     34 C          23.7403   73.3827   -0.1792 C.3     1  UNL1        0.1968
     35 C          22.6432   71.8674    1.4963 C.3     1  UNL1        0.1723
     36 C          23.0092   74.5523    0.4814 C.3     1  UNL1        0.2706
     37 C          22.0317   73.1217    2.1138 C.3     1  UNL1        0.1830
     38 H          23.9952   71.0898   -1.3552 H       1  UNL1        0.2105
     39 H          24.3676   72.9240   -1.9903 H       1  UNL1        0.2106
     40 H          22.0868   69.9918    1.2318 H       1  UNL1        0.2106
     41 O          21.2658   74.0179    4.1416 O.co2   1  UNL1       -0.5466
     42 O          22.6081   72.1784    4.2584 O.co2   1  UNL1       -0.5466
     43 C          22.0215   73.0280    3.6049 C.2     1  UNL1        0.0799
@<TRIPOS>UNITY_ATOM_ATTR
2 1
charge -1
26 1
charge -1
41 1
charge -1
@<TRIPOS>BOND
     1     1     4    1
     2     1    24    1
     3     1     2    1
     4     1     3    2
     5    25    28    1
     6    25    24    1
     7    25    26    1
     8    25    27    2
     9     6    11    1
    10     6    12    1
    11    29    36    1
    12    29    37    1
    13     7     9    1
    14     7    13    1
    15     8    10    1
    16     8    14    1
    17     4     5    1
    18    28    36    1
    19    30    33    1
    20    30    38    1
    21    31    34    1
    22    31    39    1
    23    32    35    1
    24    32    40    1
    25    41    43   ar
    26    15    19    2
    27    42    43   ar
    28    16    22    2
    29    17    12    1
    30    17    19   ar
    31    17    20   ar
    32    18    19   ar
    33    18    22   ar
    34    18    23    1
    35     9    10    1
    36     9    11    1
    37    10    12    1
    38    11     5    1
    39    33    34    1
    40    33    35    1
    41    34    36    1
    42    35    37    1
    43    37    43    1
    44    20    21   ar
    45    21    22   ar
@<TRIPOS>MOLECULE
*****
 43 45 0 0 0
SMALL
GASTEIGER

@<TRIPOS>ATOM
      1 P          23.2990   72.0107   -3.1172 P.3     1  UNL1        0.2189
      2 O          24.3458   72.5741   -4.2152 O.co2   1  UNL1       -0.4371
      3 O          23.8603   70.9885   -2.1727 O.2     1  UNL1       -0.5170
      4 O          22.0310   71.5302   -4.0000 O.3     1  UNL1       -0.3112
      5 C          21.5018   72.4216   -4.9643 C.3     1  UNL1        0.1811
      6 O          20.5059   70.4891   -5.9897 O.3     1  UNL1       -0.3308
      7 O          20.8092   71.9451   -8.5935 O.3     1  UNL1       -0.3794
      8 O          18.1726   72.3180   -8.0060 O.3     1  UNL1       -0.3779
      9 C          20.4950   72.4622   -7.3003 C.3     1  UNL1        0.1713
     10 C          19.0672   72.1192   -6.9314 C.3     1  UNL1        0.1895
     11 C          21.2892   71.6691   -6.2715 C.3     1  UNL1        0.1764
     12 C          19.1868   70.6581   -6.5327 C.3     1  UNL1        0.2383
     13 H          20.3135   72.4363   -9.2678 H       1  UNL1        0.2105
     14 H          18.1314   73.2634   -8.2216 H       1  UNL1        0.2106
     15 O          16.5638   69.7849   -7.1103 O.2     1  UNL1       -0.2464
     16 O          15.5679   69.2340   -2.6439 O.2     1  UNL1       -0.2670
     17 N          18.2212   70.2802   -5.5399 N.ar    1  UNL1       -0.2551
     18 N          16.0700   69.5123   -4.8852 N.ar    1  UNL1       -0.2743
     19 C          16.9307   69.8560   -5.9359 C.ar    1  UNL1        0.3323
     20 C          18.5562   70.3301   -4.1923 C.ar    1  UNL1        0.0869
     21 C          17.7250   69.9993   -3.2021 C.ar    1  UNL1        0.0795
     22 C          16.3573   69.5463   -3.5303 C.ar    1  UNL1        0.2626
     23 H          15.1653   69.2159   -5.1361 H       1  UNL1        0.1734
     24 O          22.7576   73.3581   -2.4070 O.3     1  UNL1       -0.2703
     25 P          23.5508   74.6179   -1.7766 P.3     1  UNL1        0.2208
     26 O          22.3624   75.5472   -1.1898 O.co2   1  UNL1       -0.4371
     27 O          24.4630   75.3171   -2.7425 O.2     1  UNL1       -0.5170
     28 O          24.2874   74.0252   -0.4695 O.3     1  UNL1       -0.2858
     29 O          22.6219   73.2492    1.0248 O.3     1  UNL1       -0.3226
     30 O          26.0838   72.4288    3.1249 O.3     1  UNL1       -0.3794
     31 O          25.7909   74.9508    1.6797 O.3     1  UNL1       -0.3775
     32 O          24.6283   70.2805    1.8146 O.3     1  UNL1       -0.3792
     33 C          25.2746   72.5969    1.9609 C.3     1  UNL1        0.1718
     34 C          24.7348   74.0266    1.9150 C.3     1  UNL1        0.1968
     35 C          24.1208   71.5946    2.0383 C.3     1  UNL1        0.1723
     36 C          23.6845   74.1797    0.8140 C.3     1  UNL1        0.2706
     37 C          23.0541   71.8909    0.9881 C.3     1  UNL1        0.1830
     38 H          26.8238   73.0557    3.0978 H       1  UNL1        0.2105
     39 H          26.4611   74.8589    2.3745 H       1  UNL1        0.2106
     40 H          25.3084   70.0795    2.4764 H       1  UNL1        0.2106
     41 O          20.9035   71.9171    1.9240 O.co2   1  UNL1       -0.5466
     42 O          21.6005   69.9652    0.9736 O.co2   1  UNL1       -0.5466
     43 C          21.8000   71.1319    1.2770 C.2     1  UNL1        0.0799
@<TRIPOS>UNITY_ATOM_ATTR
2 1
charge -1
26 1
charge -1
41 1
charge -1
@<TRIPOS>BOND
     1     1     4    1
     2     1    24    1
     3     1     2    1
     4     1     3    2
     5    25    28    1
     6    25    24    1
     7    25    26    1
     8    25    27    2
     9     6    11    1
    10     6    12    1
    11    29    36    1
    12    29    37    1
    13     7     9    1
    14     7    13    1
    15     8    10    1
    16     8    14    1
    17     4     5    1
    18    28    36    1
    19    30    33    1
    20    30    38    1
    21    31    34    1
    22    31    39    1
    23    32    35    1
    24    32    40    1
    25    41    43   ar
    26    15    19    2
    27    42    43   ar
    28    16    22    2
    29    17    12    1
    30    17    19   ar
    31    17    20   ar
    32    18    19   ar
    33    18    22   ar
    34    18    23    1
    35     9    10    1
    36     9    11    1
    37    10    12    1
    38    11     5    1
    39    33    34    1
    40    33    35    1
    41    34    36    1
    42    35    37    1
    43    37    43    1
    44    20    21   ar
    45    21    22   ar
@<TRIPOS>MOLECULE
*****
 43 45 0 0 0
SMALL
GASTEIGER

@<TRIPOS>ATOM
      1 P          21.9344   72.4841   -5.7567 P.3     1  UNL1        0.2189
      2 O          21.2874   73.9148   -5.3650 O.co2   1  UNL1       -0.4371
      3 O          23.1298   72.5556   -6.6610 O.2     1  UNL1       -0.5170
      4 O          20.6794   71.6305   -6.3173 O.3     1  UNL1       -0.3112
      5 C          20.1122   71.9997   -7.5609 C.3     1  UNL1        0.1811
      6 O          18.9072   69.9638   -7.1358 O.3     1  UNL1       -0.3308
      7 O          18.1297   70.0382  -10.0308 O.3     1  UNL1       -0.3794
      8 O          15.8929   70.9816   -8.7887 O.3     1  UNL1       -0.3779
      9 C          18.2989   71.1184   -9.1125 C.3     1  UNL1        0.1713
     10 C          17.1356   71.1707   -8.1449 C.3     1  UNL1        0.1895
     11 C          19.4630   70.7753   -8.1931 C.3     1  UNL1        0.1764
     12 C          17.4738   70.0437   -7.1839 C.3     1  UNL1        0.2383
     13 H          17.3912   70.2346  -10.6289 H       1  UNL1        0.2105
     14 H          15.7234   71.7250   -9.3891 H       1  UNL1        0.2106
     15 O          16.3005   68.0708   -5.5385 O.2     1  UNL1       -0.2464
     16 O          15.5944   71.0811   -2.1204 O.2     1  UNL1       -0.2670
     17 N          16.9749   70.2845   -5.8596 N.ar    1  UNL1       -0.2551
     18 N          15.9490   69.5722   -3.8381 N.ar    1  UNL1       -0.2743
     19 C          16.4037   69.2242   -5.1168 C.ar    1  UNL1        0.3323
     20 C          17.0553   71.5578   -5.3090 C.ar    1  UNL1        0.0869
     21 C          16.6176   71.8742   -4.0887 C.ar    1  UNL1        0.0795
     22 C          16.0066   70.8242   -3.2475 C.ar    1  UNL1        0.2626
     23 H          15.5455   68.8511   -3.3028 H       1  UNL1        0.1734
     24 O          22.2192   71.8081   -4.3163 O.3     1  UNL1       -0.2703
     25 P          23.4855   71.9295   -3.3186 P.3     1  UNL1        0.2208
     26 O          24.3735   73.1051   -3.9893 O.co2   1  UNL1       -0.4371
     27 O          24.2259   70.6412   -3.1038 O.2     1  UNL1       -0.5170
     28 O          22.8856   72.5890   -1.9741 O.3     1  UNL1       -0.2858
     29 O          22.9836   71.0497   -0.1770 O.3     1  UNL1       -0.3226
     30 O          21.0149   74.2414    1.5565 O.3     1  UNL1       -0.3794
     31 O          20.3498   73.3882   -1.1572 O.3     1  UNL1       -0.3775
     32 O          23.8137   73.7472    2.1675 O.3     1  UNL1       -0.3792
     33 C          21.9327   73.6028    0.6689 C.3     1  UNL1        0.1718
     34 C          21.1722   72.6538   -0.2577 C.3     1  UNL1        0.1968
     35 C          22.9440   72.8248    1.5138 C.3     1  UNL1        0.1723
     36 C          22.1387   71.7845   -1.0633 C.3     1  UNL1        0.2706
     37 C          23.7855   71.8875    0.6525 C.3     1  UNL1        0.1830
     38 H          20.3624   74.7421    1.0419 H       1  UNL1        0.2105
     39 H          19.7342   73.9423   -0.6528 H       1  UNL1        0.2106
     40 H          23.2905   74.3497    2.7189 H       1  UNL1        0.2106
     41 O          25.5082   70.3017    0.7902 O.co2   1  UNL1       -0.5466
     42 O          24.2886   70.6793    2.6794 O.co2   1  UNL1       -0.5466
     43 C          24.5264   70.9076    1.5028 C.2     1  UNL1        0.0799
@<TRIPOS>UNITY_ATOM_ATTR
2 1
charge -1
26 1
charge -1
41 1
charge -1
@<TRIPOS>BOND
     1     1     4    1
     2     1    24    1
     3     1     2    1
     4     1     3    2
     5    25    28    1
     6    25    24    1
     7    25    26    1
     8    25    27    2
     9     6    11    1
    10     6    12    1
    11    29    36    1
    12    29    37    1
    13     7     9    1
    14     7    13    1
    15     8    10    1
    16     8    14    1
    17     4     5    1
    18    28    36    1
    19    30    33    1
    20    30    38    1
    21    31    34    1
    22    31    39    1
    23    32    35    1
    24    32    40    1
    25    41    43   ar
    26    15    19    2
    27    42    43   ar
    28    16    22    2
    29    17    12    1
    30    17    19   ar
    31    17    20   ar
    32    18    19   ar
    33    18    22   ar
    34    18    23    1
    35     9    10    1
    36     9    11    1
    37    10    12    1
    38    11     5    1
    39    33    34    1
    40    33    35    1
    41    34    36    1
    42    35    37    1
    43    37    43    1
    44    20    21   ar
    45    21    22   ar
@<TRIPOS>MOLECULE
*****
 43 45 0 0 0
SMALL
GASTEIGER

@<TRIPOS>ATOM
      1 P          20.9086   71.4345   -4.8254 P.3     1  UNL1        0.2189
      2 O          20.8619   70.1893   -3.7928 O.co2   1  UNL1       -0.4371
      3 O          19.9185   72.5269   -4.5458 O.2     1  UNL1       -0.5170
      4 O          20.7930   70.7370   -6.2807 O.3     1  UNL1       -0.3112
      5 C          20.1137   71.4309   -7.3110 C.3     1  UNL1        0.1811
      6 O          18.4277   69.7336   -7.0782 O.3     1  UNL1       -0.3308
      7 O          17.8147   70.2075   -9.9749 O.3     1  UNL1       -0.3794
      8 O          15.8290   71.5857   -8.7125 O.3     1  UNL1       -0.3779
      9 C          18.2060   71.1425   -8.9693 C.3     1  UNL1        0.1713
     10 C          17.0518   71.4128   -8.0274 C.3     1  UNL1        0.1895
     11 C          19.2101   70.4553   -8.0540 C.3     1  UNL1        0.1764
     12 C          17.0614   70.1709   -7.1525 C.3     1  UNL1        0.2383
     13 H          17.1731   70.6240  -10.5721 H       1  UNL1        0.2105
     14 H          15.8732   72.3892   -9.2550 H       1  UNL1        0.2106
     15 O          16.6071   68.1810   -5.2004 O.2     1  UNL1       -0.2464
     16 O          15.2209   71.2888   -2.0918 O.2     1  UNL1       -0.2670
     17 N          16.5820   70.4322   -5.8248 N.ar    1  UNL1       -0.2551
     18 N          15.9162   69.7306   -3.6543 N.ar    1  UNL1       -0.2743
     19 C          16.3873   69.3610   -4.9210 C.ar    1  UNL1        0.3323
     20 C          16.3116   71.7366   -5.4292 C.ar    1  UNL1        0.0869
     21 C          15.8632   72.0733   -4.2183 C.ar    1  UNL1        0.0795
     22 C          15.6324   71.0136   -3.2148 C.ar    1  UNL1        0.2626
     23 H          15.7710   69.0018   -3.0085 H       1  UNL1        0.1734
     24 O          22.4563   71.8972   -4.7661 O.3     1  UNL1       -0.2703
     25 P          23.4590   72.0907   -3.5128 P.3     1  UNL1        0.2208
     26 O          24.4981   73.2142   -4.0405 O.co2   1  UNL1       -0.4371
     27 O          24.1075   70.8214   -3.0414 O.2     1  UNL1       -0.5170
     28 O          22.5754   72.8464   -2.3946 O.3     1  UNL1       -0.2858
     29 O          23.3475   73.1637   -0.1782 O.3     1  UNL1       -0.3226
     30 O          19.2637   73.5811    0.2864 O.3     1  UNL1       -0.3794
     31 O          20.3520   71.4822   -1.4295 O.3     1  UNL1       -0.3775
     32 O          20.9826   75.9254    0.3145 O.3     1  UNL1       -0.3792
     33 C          20.5135   73.6720   -0.3975 C.3     1  UNL1        0.1718
     34 C          21.1235   72.2769   -0.5362 C.3     1  UNL1        0.1968
     35 C          21.4361   74.5773    0.4216 C.3     1  UNL1        0.1723
     36 C          22.5600   72.3570   -1.0548 C.3     1  UNL1        0.2706
     37 C          22.8756   74.5056   -0.0798 C.3     1  UNL1        0.1830
     38 H          18.6608   73.0105   -0.2157 H       1  UNL1        0.2105
     39 H          19.4392   71.4273   -1.1068 H       1  UNL1        0.2106
     40 H          20.0674   75.9847    0.6304 H       1  UNL1        0.2106
     41 O          25.0955   74.7830    0.6249 O.co2   1  UNL1       -0.5466
     42 O          23.4784   75.8293    1.8453 O.co2   1  UNL1       -0.5466
     43 C          23.8128   75.1192    0.9088 C.2     1  UNL1        0.0799
@<TRIPOS>UNITY_ATOM_ATTR
2 1
charge -1
26 1
charge -1
41 1
charge -1
@<TRIPOS>BOND
     1     1     4    1
     2     1    24    1
     3     1     2    1
     4     1     3    2
     5    25    28    1
     6    25    24    1
     7    25    26    1
     8    25    27    2
     9     6    11    1
    10     6    12    1
    11    29    36    1
    12    29    37    1
    13     7     9    1
    14     7    13    1
    15     8    10    1
    16     8    14    1
    17     4     5    1
    18    28    36    1
    19    30    33    1
    20    30    38    1
    21    31    34    1
    22    31    39    1
    23    32    35    1
    24    32    40    1
    25    41    43   ar
    26    15    19    2
    27    42    43   ar
    28    16    22    2
    29    17    12    1
    30    17    19   ar
    31    17    20   ar
    32    18    19   ar
    33    18    22   ar
    34    18    23    1
    35     9    10    1
    36     9    11    1
    37    10    12    1
    38    11     5    1
    39    33    34    1
    40    33    35    1
    41    34    36    1
    42    35    37    1
    43    37    43    1
    44    20    21   ar
    45    21    22   ar
@<TRIPOS>MOLECULE
*****
 43 45 0 0 0
SMALL
GASTEIGER

@<TRIPOS>ATOM
      1 P          23.6914   72.8157   -3.9780 P.3     1  UNL1        0.2189
      2 O          24.9644   73.8133   -3.9227 O.co2   1  UNL1       -0.4371
      3 O          23.9160   71.4671   -3.3593 O.2     1  UNL1       -0.5170
      4 O          23.2693   72.8106   -5.5399 O.3     1  UNL1       -0.3112
      5 C          22.1195   72.0808   -5.9272 C.3     1  UNL1        0.1811
      6 O          20.3172   72.0278   -7.5167 O.3     1  UNL1       -0.3308
      7 O          20.4841   75.0218   -7.5254 O.3     1  UNL1       -0.3794
      8 O          18.3441   74.5490   -5.9027 O.3     1  UNL1       -0.3779
      9 C          20.6735   74.1093   -6.4437 C.3     1  UNL1        0.1713
     10 C          19.3413   73.5526   -5.9882 C.3     1  UNL1        0.1895
     11 C          21.3667   72.8691   -6.9912 C.3     1  UNL1        0.1764
     12 C          19.0464   72.5208   -7.0635 C.3     1  UNL1        0.2383
     13 H          20.0427   75.8223   -7.2000 H       1  UNL1        0.2105
     14 H          18.5777   75.1811   -5.2042 H       1  UNL1        0.2106
     15 O          17.4063   70.8767   -8.6708 O.2     1  UNL1       -0.2464
     16 O          16.1060   68.3284   -5.0570 O.2     1  UNL1       -0.2670
     17 N          18.2683   71.4206   -6.5685 N.ar    1  UNL1       -0.2551
     18 N          16.7595   69.6097   -6.8692 N.ar    1  UNL1       -0.2743
     19 C          17.4775   70.6578   -7.4600 C.ar    1  UNL1        0.3323
     20 C          18.2946   71.1058   -5.2153 C.ar    1  UNL1        0.0869
     21 C          17.6048   70.1037   -4.6669 C.ar    1  UNL1        0.0795
     22 C          16.7530   69.2584   -5.5290 C.ar    1  UNL1        0.2626
     23 H          16.2000   69.0658   -7.4696 H       1  UNL1        0.1734
     24 O          22.5177   73.6864   -3.2872 O.3     1  UNL1       -0.2703
     25 P          21.4541   73.3057   -2.1307 P.3     1  UNL1        0.2208
     26 O          20.6948   72.0115   -2.7379 O.co2   1  UNL1       -0.4371
     27 O          20.5410   74.4312   -1.7391 O.2     1  UNL1       -0.5170
     28 O          22.3525   72.7219   -0.9246 O.3     1  UNL1       -0.2858
     29 O          23.2212   70.7911    0.1368 O.3     1  UNL1       -0.3226
     30 O          20.6251   72.2331    3.0089 O.3     1  UNL1       -0.3794
     31 O          19.8551   72.2170    0.1909 O.3     1  UNL1       -0.3775
     32 O          23.4930   72.5909    3.3226 O.3     1  UNL1       -0.3792
     33 C          21.5491   72.3231    1.9245 C.3     1  UNL1        0.1718
     34 C          21.0002   71.5584    0.7197 C.3     1  UNL1        0.1968
     35 C          22.8762   71.7136    2.3821 C.3     1  UNL1        0.1723
     36 C          22.0569   71.4374   -0.3792 C.3     1  UNL1        0.2706
     37 C          23.8294   71.5090    1.2082 C.3     1  UNL1        0.1830
     38 H          19.7741   72.6143    2.7413 H       1  UNL1        0.2105
     39 H          19.1806   72.2975    0.8830 H       1  UNL1        0.2106
     40 H          22.8964   72.7296    4.0748 H       1  UNL1        0.2106
     41 O          24.7109   70.0013    2.7739 O.co2   1  UNL1       -0.5466
     42 O          25.9967   70.4800    0.9527 O.co2   1  UNL1       -0.5466
     43 C          24.9699   70.6263    1.5986 C.2     1  UNL1        0.0799
@<TRIPOS>UNITY_ATOM_ATTR
2 1
charge -1
26 1
charge -1
41 1
charge -1
@<TRIPOS>BOND
     1     1     4    1
     2     1    24    1
     3     1     2    1
     4     1     3    2
     5    25    28    1
     6    25    24    1
     7    25    26    1
     8    25    27    2
     9     6    11    1
    10     6    12    1
    11    29    36    1
    12    29    37    1
    13     7     9    1
    14     7    13    1
    15     8    10    1
    16     8    14    1
    17     4     5    1
    18    28    36    1
    19    30    33    1
    20    30    38    1
    21    31    34    1
    22    31    39    1
    23    32    35    1
    24    32    40    1
    25    41    43   ar
    26    15    19    2
    27    42    43   ar
    28    16    22    2
    29    17    12    1
    30    17    19   ar
    31    17    20   ar
    32    18    19   ar
    33    18    22   ar
    34    18    23    1
    35     9    10    1
    36     9    11    1
    37    10    12    1
    38    11     5    1
    39    33    34    1
    40    33    35    1
    41    34    36    1
    42    35    37    1
    43    37    43    1
    44    20    21   ar
    45    21    22   ar
@<TRIPOS>MOLECULE
*****
 43 45 0 0 0
SMALL
GASTEIGER

@<TRIPOS>ATOM
      1 P          21.6651   71.5828   -0.5282 P.3     1  UNL1        0.2189
      2 O          23.1127   71.0412   -1.0076 O.co2   1  UNL1       -0.4371
      3 O          20.7164   70.5209   -0.0546 O.2     1  UNL1       -0.5170
      4 O          21.1525   72.4774   -1.7751 O.3     1  UNL1       -0.3112
      5 C          20.5094   71.8262   -2.8553 C.3     1  UNL1        0.1811
      6 O          20.9402   70.5732   -4.8608 O.3     1  UNL1       -0.3308
      7 O          23.2939   72.3863   -5.2658 O.3     1  UNL1       -0.3794
      8 O          21.4369   73.4315   -6.9674 O.3     1  UNL1       -0.3779
      9 C          22.0066   72.6839   -4.7248 C.3     1  UNL1        0.1713
     10 C          20.9727   72.7350   -5.8298 C.3     1  UNL1        0.1895
     11 C          21.5476   71.4793   -3.9146 C.3     1  UNL1        0.1764
     12 C          20.7319   71.2605   -6.1048 C.3     1  UNL1        0.2383
     13 H          23.6081   73.1416   -5.7879 H       1  UNL1        0.2105
     14 H          21.5747   74.3651   -6.7409 H       1  UNL1        0.2106
     15 O          18.7633   69.9047   -4.6005 O.2     1  UNL1       -0.2464
     16 O          15.6448   70.3161   -7.9693 O.2     1  UNL1       -0.2670
     17 N          19.3972   70.9997   -6.5646 N.ar    1  UNL1       -0.2551
     18 N          17.2123   70.1100   -6.2802 N.ar    1  UNL1       -0.2743
     19 C          18.4854   70.3104   -5.7306 C.ar    1  UNL1        0.3323
     20 C          19.0028   71.4260   -7.8270 C.ar    1  UNL1        0.0869
     21 C          17.7858   71.2277   -8.3371 C.ar    1  UNL1        0.0795
     22 C          16.7736   70.5147   -7.5305 C.ar    1  UNL1        0.2626
     23 H          16.5608   69.6306   -5.7189 H       1  UNL1        0.1734
     24 O          22.0431   72.6928    0.5844 O.3     1  UNL1       -0.2703
     25 P          21.1813   73.3068    1.8067 P.3     1  UNL1        0.2208
     26 O          20.6160   71.9897    2.5590 O.co2   1  UNL1       -0.4371
     27 O          20.1200   74.2807    1.3837 O.2     1  UNL1       -0.5170
     28 O          22.2814   73.9132    2.8190 O.3     1  UNL1       -0.2858
     29 O          23.6032   72.0330    3.3906 O.3     1  UNL1       -0.3226
     30 O          25.6942   75.1089    5.1892 O.3     1  UNL1       -0.3794
     31 O          22.7768   75.0273    5.3188 O.3     1  UNL1       -0.3775
     32 O          26.6800   73.9187    2.7270 O.3     1  UNL1       -0.3792
     33 C          24.8640   74.5019    4.1991 C.3     1  UNL1        0.1718
     34 C          23.5956   73.9588    4.8577 C.3     1  UNL1        0.1968
     35 C          25.6560   73.3642    3.5507 C.3     1  UNL1        0.1723
     36 C          22.7927   73.1038    3.8764 C.3     1  UNL1        0.2706
     37 C          24.7588   72.4828    2.6866 C.3     1  UNL1        0.1830
     38 H          25.2118   75.8351    5.6150 H       1  UNL1        0.2105
     39 H          23.2801   75.5742    5.9418 H       1  UNL1        0.2106
     40 H          27.2580   74.4821    3.2649 H       1  UNL1        0.2106
     41 O          24.5517   70.2526    1.9902 O.co2   1  UNL1       -0.5466
     42 O          26.6624   71.0415    2.3396 O.co2   1  UNL1       -0.5466
     43 C          25.4519   71.2080    2.3305 C.2     1  UNL1        0.0799
@<TRIPOS>UNITY_ATOM_ATTR
2 1
charge -1
26 1
charge -1
41 1
charge -1
@<TRIPOS>BOND
     1     1     4    1
     2     1    24    1
     3     1     2    1
     4     1     3    2
     5    25    28    1
     6    25    24    1
     7    25    26    1
     8    25    27    2
     9     6    11    1
    10     6    12    1
    11    29    36    1
    12    29    37    1
    13     7     9    1
    14     7    13    1
    15     8    10    1
    16     8    14    1
    17     4     5    1
    18    28    36    1
    19    30    33    1
    20    30    38    1
    21    31    34    1
    22    31    39    1
    23    32    35    1
    24    32    40    1
    25    41    43   ar
    26    15    19    2
    27    42    43   ar
    28    16    22    2
    29    17    12    1
    30    17    19   ar
    31    17    20   ar
    32    18    19   ar
    33    18    22   ar
    34    18    23    1
    35     9    10    1
    36     9    11    1
    37    10    12    1
    38    11     5    1
    39    33    34    1
    40    33    35    1
    41    34    36    1
    42    35    37    1
    43    37    43    1
    44    20    21   ar
    45    21    22   ar
@<TRIPOS>MOLECULE
*****
 43 45 0 0 0
SMALL
GASTEIGER

@<TRIPOS>ATOM
      1 P          20.6796   71.3919   -4.7777 P.3     1  UNL1        0.2189
      2 O          21.3293   70.4025   -3.6740 O.co2   1  UNL1       -0.4371
      3 O          19.5283   72.2197   -4.2868 O.2     1  UNL1       -0.5170
      4 O          20.3620   70.4199   -6.0316 O.3     1  UNL1       -0.3112
      5 C          20.2299   70.9968   -7.3177 C.3     1  UNL1        0.1811
      6 O          18.3427   69.5134   -7.1929 O.3     1  UNL1       -0.3308
      7 O          17.8160   70.2429  -10.0533 O.3     1  UNL1       -0.3794
      8 O          16.0092   71.7769   -8.7048 O.3     1  UNL1       -0.3779
      9 C          18.3137   71.0559   -8.9903 C.3     1  UNL1        0.1713
     10 C          17.1955   71.4088   -8.0326 C.3     1  UNL1        0.1895
     11 C          19.2168   70.1914   -8.1211 C.3     1  UNL1        0.1764
     12 C          17.0426   70.1226   -7.2386 C.3     1  UNL1        0.2383
     13 H          17.2362   70.7736  -10.6224 H       1  UNL1        0.2105
     14 H          16.1579   72.6012   -9.1950 H       1  UNL1        0.2106
     15 O          16.4092   68.0842   -5.3893 O.2     1  UNL1       -0.2464
     16 O          15.3142   71.1405   -2.1176 O.2     1  UNL1       -0.2670
     17 N          16.5896   70.3576   -5.8968 N.ar    1  UNL1       -0.2551
     18 N          15.8635   69.6084   -3.7619 N.ar    1  UNL1       -0.2743
     19 C          16.2982   69.2633   -5.0484 C.ar    1  UNL1        0.3323
     20 C          16.4398   71.6590   -5.4332 C.ar    1  UNL1        0.0869
     21 C          16.0246   71.9721   -4.2042 C.ar    1  UNL1        0.0795
     22 C          15.6983   70.8873   -3.2555 C.ar    1  UNL1        0.2626
     23 H          15.6525   68.8634   -3.1538 H       1  UNL1        0.1734
     24 O          21.9516   72.2459   -5.2930 O.3     1  UNL1       -0.2703
     25 P          22.9398   73.2565   -4.5083 P.3     1  UNL1        0.2208
     26 O          24.2171   72.3263   -4.1569 O.co2   1  UNL1       -0.4371
     27 O          22.3168   73.9268   -3.3182 O.2     1  UNL1       -0.5170
     28 O          23.4744   74.2701   -5.6438 O.3     1  UNL1       -0.2858
     29 O          23.4471   76.6382   -5.6209 O.3     1  UNL1       -0.3226
     30 O          23.1851   75.8336   -9.6646 O.3     1  UNL1       -0.3794
     31 O          21.6461   74.2649   -7.7398 O.3     1  UNL1       -0.3775
     32 O          25.6941   76.7522   -8.5192 O.3     1  UNL1       -0.3792
     33 C          23.5856   75.6047   -8.3136 C.3     1  UNL1        0.1718
     34 C          22.3464   75.4640   -7.4293 C.3     1  UNL1        0.1968
     35 C          24.4292   76.7988   -7.8616 C.3     1  UNL1        0.1723
     36 C          22.7296   75.4478   -5.9489 C.3     1  UNL1        0.2706
     37 C          24.6623   76.7773   -6.3537 C.3     1  UNL1        0.1830
     38 H          22.6475   75.0874   -9.9736 H       1  UNL1        0.2105
     39 H          21.4000   74.2682   -8.6778 H       1  UNL1        0.2106
     40 H          25.5599   76.7652   -9.4798 H       1  UNL1        0.2106
     41 O          25.1357   78.1707   -4.5273 O.co2   1  UNL1       -0.5466
     42 O          25.6190   78.9780   -6.6043 O.co2   1  UNL1       -0.5466
     43 C          25.1912   78.0918   -5.8800 C.2     1  UNL1        0.0799
@<TRIPOS>UNITY_ATOM_ATTR
2 1
charge -1
26 1
charge -1
41 1
charge -1
@<TRIPOS>BOND
     1     1     4    1
     2     1    24    1
     3     1     2    1
     4     1     3    2
     5    25    28    1
     6    25    24    1
     7    25    26    1
     8    25    27    2
     9     6    11    1
    10     6    12    1
    11    29    36    1
    12    29    37    1
    13     7     9    1
    14     7    13    1
    15     8    10    1
    16     8    14    1
    17     4     5    1
    18    28    36    1
    19    30    33    1
    20    30    38    1
    21    31    34    1
    22    31    39    1
    23    32    35    1
    24    32    40    1
    25    41    43   ar
    26    15    19    2
    27    42    43   ar
    28    16    22    2
    29    17    12    1
    30    17    19   ar
    31    17    20   ar
    32    18    19   ar
    33    18    22   ar
    34    18    23    1
    35     9    10    1
    36     9    11    1
    37    10    12    1
    38    11     5    1
    39    33    34    1
    40    33    35    1
    41    34    36    1
    42    35    37    1
    43    37    43    1
    44    20    21   ar
    45    21    22   ar
