@<TRIPOS>MOLECULE
UD1
 46 48 0 0 0
SMALL
GASTEIGER

@<TRIPOS>ATOM
      1 P          20.7297   71.2786   -2.2202 P.3     1  UNL1        0.2189
      2 O          20.8686   72.7445   -2.3637 O.2     1  UNL1       -0.5170
      3 O          22.1010   70.5631   -2.6679 O.3     1  UNL1       -0.4371
      4 O          19.5252   70.7602   -3.1548 O.3     1  UNL1       -0.3112
      5 C          18.3083   71.1221   -2.5002 C.3     1  UNL1        0.1811
      6 C          16.8512   70.6169   -5.7481 C.3     1  UNL1        0.2383
      7 C          16.8929   69.2026   -5.1171 C.3     1  UNL1        0.1895
      8 O          15.8143   68.3978   -5.5948 O.3     1  UNL1       -0.3779
      9 C          16.7240   69.5145   -3.6074 C.3     1  UNL1        0.1713
     10 C          17.1422   70.9923   -3.4813 C.3     1  UNL1        0.1764
     11 O          17.5498   71.4362   -4.7867 O.3     1  UNL1       -0.3308
     12 O          15.3629   69.3373   -3.2090 O.3     1  UNL1       -0.3794
     13 H          15.8977   67.5346   -5.1664 H       1  UNL1        0.2106
     14 H          15.1442   68.4093   -3.3672 H       1  UNL1        0.2105
     15 N          17.5429   70.6309   -7.0376 N.ar    1  UNL1       -0.2551
     16 C          16.8347   70.5183   -8.1748 C.ar    1  UNL1        0.3323
     17 N          17.4441   70.5321   -9.3751 N.ar    1  UNL1       -0.2743
     18 C          18.7848   70.6507   -9.4551 C.ar    1  UNL1        0.2626
     19 C          19.5431   70.7640   -8.2656 C.ar    1  UNL1        0.0795
     20 C          18.9058   70.7527   -7.0752 C.ar    1  UNL1        0.0869
     21 O          15.6248   70.4107   -8.1190 O.2     1  UNL1       -0.2464
     22 O          19.3373   70.6584  -10.5396 O.2     1  UNL1       -0.2670
     23 H          16.9172   70.4545  -10.1854 H       1  UNL1        0.1734
     24 O          20.4111   70.9173   -0.6850 O.3     1  UNL1       -0.2703
     25 P          21.7866   71.0983    0.1302 P.3     1  UNL1        0.2208
     26 O          22.9280   71.0396   -0.8092 O.2     1  UNL1       -0.5170
     27 O          21.9261   69.9189    1.2173 O.3     1  UNL1       -0.4371
     28 O          21.7831   72.5214    0.8820 O.3     1  UNL1       -0.2865
     29 C          21.7144   72.2499    2.2830 C.3     1  UNL1        0.2611
     30 C          21.3401   73.5323    3.0282 C.3     1  UNL1        0.1582
     31 C          22.3933   74.6071    2.7364 C.3     1  UNL1        0.1625
     32 C          23.7775   74.0401    3.0689 C.3     1  UNL1        0.1686
     33 C          23.9691   72.7207    2.3180 C.3     1  UNL1        0.1760
     34 O          22.1378   75.7591    3.5421 O.3     1  UNL1       -0.3801
     35 O          24.7844   74.9709    2.6670 O.3     1  UNL1       -0.3794
     36 O          22.9816   71.7796    2.7373 O.3     1  UNL1       -0.3263
     37 H          22.8218   76.4080    3.3266 H       1  UNL1        0.2105
     38 H          25.6378   74.5748    2.8934 H       1  UNL1        0.2105
     39 C          19.0919   74.3567    3.4757 C.2     1  UNL1        0.2231
     40 C          17.7402   74.8339    3.0094 C.3     1  UNL1        0.0946
     41 N          20.0270   73.9964    2.5757 N.am    1  UNL1       -0.2994
     42 O          19.3377   74.2964    4.6615 O.2     1  UNL1       -0.2751
     43 H          19.8305   74.0443    1.6267 H       1  UNL1        0.1496
     44 C          25.3617   72.1622    2.6179 C.3     1  UNL1        0.1693
     45 O          25.5598   70.9543    1.8806 O.3     1  UNL1       -0.3794
     46 H          26.4465   70.6361    2.0979 H       1  UNL1        0.2105
@<TRIPOS>BOND
     1    29    30    1
     2    29    28    1
     3    29    36    1
     4    30    31    1
     5    30    41    1
     6    31    32    1
     7    31    34    1
     8    32    33    1
     9    32    35    1
    10    33    44    1
    11    33    36    1
    12    44    45    1
    13    39    40    1
    14    39    41   am
    15    39    42    2
    16    41    43    1
    17    28    25    1
    18    34    37    1
    19    35    38    1
    20    45    46    1
    21    15    16   ar
    22    15    20   ar
    23    15     6    1
    24    16    17   ar
    25    16    21    2
    26    17    18   ar
    27    17    23    1
    28    18    19   ar
    29    18    22    2
    30    19    20   ar
    31     6     7    1
    32     6    11    1
    33     7     8    1
    34     7     9    1
    35     8    13    1
    36     9    10    1
    37     9    12    1
    38    10    11    1
    39    10     5    1
    40    12    14    1
    41     5     4    1
    42     4     1    1
    43     1     2    2
    44     1     3    1
    45     1    24    1
    46    24    25    1
    47    25    26    2
    48    25    27    1
@<TRIPOS>MOLECULE
UD1
 46 48 0 0 0
SMALL
GASTEIGER

@<TRIPOS>ATOM
      1 P          21.0660   70.8816   -3.3725 P.3     1  UNL1        0.2189
      2 O          20.6593   69.5783   -3.9423 O.2     1  UNL1       -0.5170
      3 O          21.7404   70.6492   -1.9290 O.3     1  UNL1       -0.4371
      4 O          19.7706   71.8246   -3.2129 O.3     1  UNL1       -0.3112
      5 C          18.7606   71.0369   -2.5806 C.3     1  UNL1        0.1811
      6 C          17.0662   70.6032   -5.7220 C.3     1  UNL1        0.2383
      7 C          17.0714   69.1907   -5.0855 C.3     1  UNL1        0.1895
      8 O          15.9208   68.4455   -5.4856 O.3     1  UNL1       -0.3779
      9 C          17.0203   69.5163   -3.5700 C.3     1  UNL1        0.1713
     10 C          17.5268   70.9689   -3.4819 C.3     1  UNL1        0.1764
     11 O          17.8710   71.3855   -4.8143 O.3     1  UNL1       -0.3308
     12 O          15.6808   69.4162   -3.0816 O.3     1  UNL1       -0.3794
     13 H          15.9846   67.5805   -5.0577 H       1  UNL1        0.2106
     14 H          15.4012   68.5013   -3.2188 H       1  UNL1        0.2105
     15 N          17.6707   70.5747   -7.0543 N.ar    1  UNL1       -0.2551
     16 C          16.8867   70.4497   -8.1392 C.ar    1  UNL1        0.3323
     17 N          17.4151   70.4245   -9.3771 N.ar    1  UNL1       -0.2743
     18 C          18.7494   70.5158   -9.5483 C.ar    1  UNL1        0.2626
     19 C          19.5869   70.6418   -8.4145 C.ar    1  UNL1        0.0795
     20 C          19.0301   70.6697   -7.1847 C.ar    1  UNL1        0.0869
     21 O          15.6815   70.3664   -8.0011 O.2     1  UNL1       -0.2464
     22 O          19.2286   70.4884  -10.6668 O.2     1  UNL1       -0.2670
     23 H          16.8343   70.3386  -10.1487 H       1  UNL1        0.1734
     24 O          22.1268   71.5889   -4.3539 O.3     1  UNL1       -0.2703
     25 P          23.3298   72.1250   -3.4294 P.3     1  UNL1        0.2208
     26 O          24.2057   73.0127   -4.2255 O.2     1  UNL1       -0.5170
     27 O          24.1865   70.8755   -2.8843 O.3     1  UNL1       -0.4371
     28 O          22.7260   72.9445   -2.1827 O.3     1  UNL1       -0.2865
     29 C          23.7736   73.7824   -1.6911 C.3     1  UNL1        0.2611
     30 C          23.7387   73.7898   -0.1618 C.3     1  UNL1        0.1582
     31 C          22.3717   74.3017    0.3060 C.3     1  UNL1        0.1625
     32 C          22.1017   75.6557   -0.3589 C.3     1  UNL1        0.1686
     33 C          22.2570   75.5067   -1.8738 C.3     1  UNL1        0.1760
     34 O          22.3783   74.4549    1.7265 O.3     1  UNL1       -0.3801
     35 O          20.7726   76.0817   -0.0529 O.3     1  UNL1       -0.3794
     36 O          23.5915   75.1078   -2.1847 O.3     1  UNL1       -0.3263
     37 H          21.5015   74.7775    1.9768 H       1  UNL1        0.2105
     38 H          20.6447   76.9352   -0.4906 H       1  UNL1        0.2105
     39 C          24.6584   72.2308    1.4686 C.2     1  UNL1        0.2231
     40 C          24.8775   70.8313    1.9841 C.3     1  UNL1        0.0946
     41 N          23.9514   72.4305    0.3397 N.am    1  UNL1       -0.2994
     42 O          25.1194   73.1775    2.0699 O.2     1  UNL1       -0.2751
     43 H          23.5825   71.6731   -0.1418 H       1  UNL1        0.1496
     44 C          21.9575   76.8462   -2.5501 C.3     1  UNL1        0.1693
     45 O          20.5794   76.8933   -2.9250 O.3     1  UNL1       -0.3794
     46 H          20.4332   77.7509   -3.3467 H       1  UNL1        0.2105
@<TRIPOS>BOND
     1    29    30    1
     2    29    28    1
     3    29    36    1
     4    30    31    1
     5    30    41    1
     6    31    32    1
     7    31    34    1
     8    32    33    1
     9    32    35    1
    10    33    44    1
    11    33    36    1
    12    44    45    1
    13    39    40    1
    14    39    41   am
    15    39    42    2
    16    41    43    1
    17    28    25    1
    18    34    37    1
    19    35    38    1
    20    45    46    1
    21    15    16   ar
    22    15    20   ar
    23    15     6    1
    24    16    17   ar
    25    16    21    2
    26    17    18   ar
    27    17    23    1
    28    18    19   ar
    29    18    22    2
    30    19    20   ar
    31     6     7    1
    32     6    11    1
    33     7     8    1
    34     7     9    1
    35     8    13    1
    36     9    10    1
    37     9    12    1
    38    10    11    1
    39    10     5    1
    40    12    14    1
    41     5     4    1
    42     4     1    1
    43     1     2    2
    44     1     3    1
    45     1    24    1
    46    24    25    1
    47    25    26    2
    48    25    27    1
@<TRIPOS>MOLECULE
UD1
 46 48 0 0 0
SMALL
GASTEIGER

@<TRIPOS>ATOM
      1 P          20.7665   71.6252   -1.9899 P.3     1  UNL1        0.2189
      2 O          21.1801   73.0291   -1.7740 O.2     1  UNL1       -0.5170
      3 O          22.0139   70.7794   -2.5566 O.3     1  UNL1       -0.4371
      4 O          19.5601   71.5795   -3.0554 O.3     1  UNL1       -0.3112
      5 C          18.4871   70.8690   -2.4355 C.3     1  UNL1        0.1811
      6 C          16.9273   70.5314   -5.6573 C.3     1  UNL1        0.2383
      7 C          16.9326   69.0953   -5.0762 C.3     1  UNL1        0.1895
      8 O          15.8125   68.3475   -5.5511 O.3     1  UNL1       -0.3779
      9 C          16.8153   69.3601   -3.5526 C.3     1  UNL1        0.1713
     10 C          17.2916   70.8163   -3.3880 C.3     1  UNL1        0.1764
     11 O          17.6810   71.2905   -4.6882 O.3     1  UNL1       -0.3308
     12 O          15.4594   69.2188   -3.1231 O.3     1  UNL1       -0.3794
     13 H          15.8748   67.4675   -5.1548 H       1  UNL1        0.2106
     14 H          15.2021   68.3055   -3.3068 H       1  UNL1        0.2105
     15 N          17.5848   70.5653   -6.9642 N.ar    1  UNL1       -0.2551
     16 C          16.8462   70.4793   -8.0842 C.ar    1  UNL1        0.3323
     17 N          17.4239   70.5119   -9.2997 N.ar    1  UNL1       -0.2743
     18 C          18.7628   70.6228   -9.4129 C.ar    1  UNL1        0.2626
     19 C          19.5530   70.7082   -8.2419 C.ar    1  UNL1        0.0795
     20 C          18.9472   70.6785   -7.0354 C.ar    1  UNL1        0.0869
     21 O          15.6374   70.3790   -7.9984 O.2     1  UNL1       -0.2464
     22 O          19.2866   70.6475  -10.5113 O.2     1  UNL1       -0.2670
     23 H          16.8753   70.4534  -10.0970 H       1  UNL1        0.1734
     24 O          20.2752   70.9899   -0.5957 O.3     1  UNL1       -0.2703
     25 P          21.4347   71.2803    0.4817 P.3     1  UNL1        0.2208
     26 O          22.5412   72.0144   -0.1705 O.2     1  UNL1       -0.5170
     27 O          21.9876   69.8853    1.0652 O.3     1  UNL1       -0.4371
     28 O          20.8397   72.1661    1.6866 O.3     1  UNL1       -0.2865
     29 C          21.6050   73.3717    1.7317 C.3     1  UNL1        0.2611
     30 C          22.5571   73.3211    2.9279 C.3     1  UNL1        0.1582
     31 C          21.7390   73.1511    4.2129 C.3     1  UNL1        0.1625
     32 C          20.6795   74.2567    4.2692 C.3     1  UNL1        0.1686
     33 C          19.8668   74.2347    2.9729 C.3     1  UNL1        0.1760
     34 O          22.6021   73.2523    5.3470 O.3     1  UNL1       -0.3801
     35 O          19.8124   74.0315    5.3823 O.3     1  UNL1       -0.3794
     36 O          20.7255   74.4867    1.8613 O.3     1  UNL1       -0.3263
     37 H          22.0474   73.1394    6.1312 H       1  UNL1        0.2105
     38 H          19.1619   74.7480    5.3798 H       1  UNL1        0.2105
     39 C          24.7687   72.4057    2.4751 C.2     1  UNL1        0.2231
     40 C          25.7120   71.2402    2.3190 C.3     1  UNL1        0.0946
     41 N          23.4739   72.1893    2.7767 N.am    1  UNL1       -0.2994
     42 O          25.1753   73.5385    2.3283 O.2     1  UNL1       -0.2751
     43 H          23.1483   71.2828    2.8939 H       1  UNL1        0.1496
     44 C          18.7844   75.3145    3.0326 C.3     1  UNL1        0.1693
     45 O          17.6009   74.8393    2.3878 O.3     1  UNL1       -0.3794
     46 H          16.9461   75.5480    2.4473 H       1  UNL1        0.2105
@<TRIPOS>BOND
     1    29    30    1
     2    29    28    1
     3    29    36    1
     4    30    31    1
     5    30    41    1
     6    31    32    1
     7    31    34    1
     8    32    33    1
     9    32    35    1
    10    33    44    1
    11    33    36    1
    12    44    45    1
    13    39    40    1
    14    39    41   am
    15    39    42    2
    16    41    43    1
    17    28    25    1
    18    34    37    1
    19    35    38    1
    20    45    46    1
    21    15    16   ar
    22    15    20   ar
    23    15     6    1
    24    16    17   ar
    25    16    21    2
    26    17    18   ar
    27    17    23    1
    28    18    19   ar
    29    18    22    2
    30    19    20   ar
    31     6     7    1
    32     6    11    1
    33     7     8    1
    34     7     9    1
    35     8    13    1
    36     9    10    1
    37     9    12    1
    38    10    11    1
    39    10     5    1
    40    12    14    1
    41     5     4    1
    42     4     1    1
    43     1     2    2
    44     1     3    1
    45     1    24    1
    46    24    25    1
    47    25    26    2
    48    25    27    1
@<TRIPOS>MOLECULE
UD1
 46 48 0 0 0
SMALL
GASTEIGER

@<TRIPOS>ATOM
      1 P          20.8154   71.2229   -2.3023 P.3     1  UNL1        0.2189
      2 O          20.9775   72.6914   -2.3792 O.2     1  UNL1       -0.5170
      3 O          22.1813   70.5072   -2.7657 O.3     1  UNL1       -0.4371
      4 O          19.6147   70.7646   -3.2724 O.3     1  UNL1       -0.3112
      5 C          18.3974   70.9936   -2.5610 C.3     1  UNL1        0.1811
      6 C          16.8867   70.5670   -5.7957 C.3     1  UNL1        0.2383
      7 C          16.8962   69.1449   -5.1810 C.3     1  UNL1        0.1895
      8 O          15.7896   68.3762   -5.6540 O.3     1  UNL1       -0.3779
      9 C          16.7549   69.4440   -3.6659 C.3     1  UNL1        0.1713
     10 C          17.2161   70.9079   -3.5287 C.3     1  UNL1        0.1764
     11 O          17.6200   71.3552   -4.8341 O.3     1  UNL1       -0.3308
     12 O          15.3943   69.3006   -3.2523 O.3     1  UNL1       -0.3794
     13 H          15.8538   67.5062   -5.2363 H       1  UNL1        0.2106
     14 H          15.1475   68.3809   -3.4181 H       1  UNL1        0.2105
     15 N          17.5626   70.5764   -7.0936 N.ar    1  UNL1       -0.2551
     16 C          16.8369   70.5080   -8.2232 C.ar    1  UNL1        0.3323
     17 N          17.4316   70.5187   -9.4308 N.ar    1  UNL1       -0.2743
     18 C          18.7747   70.5894   -9.5262 C.ar    1  UNL1        0.2626
     19 C          19.5511   70.6559   -8.3449 C.ar    1  UNL1        0.0795
     20 C          18.9285   70.6488   -7.1467 C.ar    1  UNL1        0.0869
     21 O          15.6246   70.4438   -8.1535 O.2     1  UNL1       -0.2464
     22 O          19.3137   70.5944  -10.6174 O.2     1  UNL1       -0.2670
     23 H          16.8923   70.4735  -10.2354 H       1  UNL1        0.1734
     24 O          20.4732   70.7992   -0.7883 O.3     1  UNL1       -0.2703
     25 P          21.7603   71.1745    0.1016 P.3     1  UNL1        0.2208
     26 O          22.9680   71.1739   -0.7530 O.2     1  UNL1       -0.5170
     27 O          21.9355   70.0889    1.2777 O.3     1  UNL1       -0.4371
     28 O          21.5606   72.6353    0.7471 O.3     1  UNL1       -0.2865
     29 C          20.4702   72.5372    1.6651 C.3     1  UNL1        0.2611
     30 C          19.7885   73.9012    1.7871 C.3     1  UNL1        0.1582
     31 C          20.8136   74.9322    2.2726 C.3     1  UNL1        0.1625
     32 C          21.4624   74.4101    3.5590 C.3     1  UNL1        0.1686
     33 C          22.0206   73.0088    3.3023 C.3     1  UNL1        0.1760
     34 O          20.1570   76.1741    2.5335 O.3     1  UNL1       -0.3801
     35 O          22.5231   75.2847    3.9483 O.3     1  UNL1       -0.3794
     36 O          20.9595   72.1261    2.9398 O.3     1  UNL1       -0.3263
     37 H          20.8372   76.7918    2.8353 H       1  UNL1        0.2105
     38 H          22.9034   74.9193    4.7597 H       1  UNL1        0.2105
     39 C          19.9821   75.1340   -0.3050 C.2     1  UNL1        0.2231
     40 C          19.4437   75.5513   -1.6498 C.3     1  UNL1        0.0946
     41 N          19.2662   74.3065    0.4805 N.am    1  UNL1       -0.2994
     42 O          21.0597   75.5438    0.0703 O.2     1  UNL1       -0.2751
     43 H          18.4037   73.9785    0.1804 H       1  UNL1        0.1496
     44 C          22.6996   72.4912    4.5720 C.3     1  UNL1        0.1693
     45 O          21.9894   72.9633    5.7187 O.3     1  UNL1       -0.3794
     46 H          22.4489   72.6157    6.4951 H       1  UNL1        0.2105
@<TRIPOS>BOND
     1    29    30    1
     2    29    28    1
     3    29    36    1
     4    30    31    1
     5    30    41    1
     6    31    32    1
     7    31    34    1
     8    32    33    1
     9    32    35    1
    10    33    44    1
    11    33    36    1
    12    44    45    1
    13    39    40    1
    14    39    41   am
    15    39    42    2
    16    41    43    1
    17    28    25    1
    18    34    37    1
    19    35    38    1
    20    45    46    1
    21    15    16   ar
    22    15    20   ar
    23    15     6    1
    24    16    17   ar
    25    16    21    2
    26    17    18   ar
    27    17    23    1
    28    18    19   ar
    29    18    22    2
    30    19    20   ar
    31     6     7    1
    32     6    11    1
    33     7     8    1
    34     7     9    1
    35     8    13    1
    36     9    10    1
    37     9    12    1
    38    10    11    1
    39    10     5    1
    40    12    14    1
    41     5     4    1
    42     4     1    1
    43     1     2    2
    44     1     3    1
    45     1    24    1
    46    24    25    1
    47    25    26    2
    48    25    27    1
@<TRIPOS>MOLECULE
UD1
 46 48 0 0 0
SMALL
GASTEIGER

@<TRIPOS>ATOM
      1 P          20.9426   70.8472   -3.4463 P.3     1  UNL1        0.2189
      2 O          21.8670   71.4783   -4.4137 O.2     1  UNL1       -0.5170
      3 O          20.4528   69.4252   -4.0213 O.3     1  UNL1       -0.4371
      4 O          19.6661   71.8029   -3.2227 O.3     1  UNL1       -0.3112
      5 C          18.6539   71.0045   -2.6076 C.3     1  UNL1        0.1811
      6 C          17.0069   70.5916   -5.7768 C.3     1  UNL1        0.2383
      7 C          17.0262   69.1700   -5.1613 C.3     1  UNL1        0.1895
      8 O          15.8928   68.4131   -5.5874 O.3     1  UNL1       -0.3779
      9 C          16.9506   69.4720   -3.6420 C.3     1  UNL1        0.1713
     10 C          17.4330   70.9308   -3.5257 C.3     1  UNL1        0.1764
     11 O          17.7876   71.3727   -4.8472 O.3     1  UNL1       -0.3308
     12 O          15.6067   69.3437   -3.1726 O.3     1  UNL1       -0.3794
     13 H          15.9647   67.5428   -5.1716 H       1  UNL1        0.2106
     14 H          15.3434   68.4266   -3.3270 H       1  UNL1        0.2105
     15 N          17.6288   70.5926   -7.1014 N.ar    1  UNL1       -0.2551
     16 C          16.8576   70.5115   -8.1996 C.ar    1  UNL1        0.3323
     17 N          17.4022   70.5143   -9.4308 N.ar    1  UNL1       -0.2743
     18 C          18.7399   70.5897   -9.5819 C.ar    1  UNL1        0.2626
     19 C          19.5639   70.6695   -8.4341 C.ar    1  UNL1        0.0795
     20 C          18.9911   70.6702   -7.2113 C.ar    1  UNL1        0.0869
     21 O          15.6495   70.4430   -8.0797 O.2     1  UNL1       -0.2464
     22 O          19.2336   70.5874  -10.6944 O.2     1  UNL1       -0.2670
     23 H          16.8305   70.4599  -10.2121 H       1  UNL1        0.1734
     24 O          21.7007   70.6279   -2.0442 O.3     1  UNL1       -0.2703
     25 P          22.9540   71.6370   -2.0306 P.3     1  UNL1        0.2208
     26 O          22.6039   72.8682   -2.7724 O.2     1  UNL1       -0.5170
     27 O          24.2201   70.9310   -2.7311 O.3     1  UNL1       -0.4371
     28 O          23.3247   72.0138   -0.5103 O.3     1  UNL1       -0.2865
     29 C          22.9202   70.9094    0.3008 C.3     1  UNL1        0.2611
     30 C          21.8520   71.3752    1.2917 C.3     1  UNL1        0.1582
     31 C          22.4286   72.5005    2.1582 C.3     1  UNL1        0.1625
     32 C          23.7357   72.0112    2.7908 C.3     1  UNL1        0.1686
     33 C          24.6632   71.5003    1.6863 C.3     1  UNL1        0.1760
     34 O          21.4944   72.8414    3.1842 O.3     1  UNL1       -0.3801
     35 O          24.3648   73.0910    3.4836 O.3     1  UNL1       -0.3794
     36 O          24.0492   70.4038    1.0101 O.3     1  UNL1       -0.3263
     37 H          21.8966   73.5511    3.7036 H       1  UNL1        0.2105
     38 H          25.1822   72.7402    3.8650 H       1  UNL1        0.2105
     39 C          20.5287   73.1917    0.3518 C.2     1  UNL1        0.2231
     40 C          19.3273   73.7004   -0.4033 C.3     1  UNL1        0.0946
     41 N          20.6853   71.8699    0.5578 N.am    1  UNL1       -0.2994
     42 O          21.3543   73.9726    0.7747 O.2     1  UNL1       -0.2751
     43 H          20.0247   71.2448    0.2197 H       1  UNL1        0.1496
     44 C          25.9847   71.0392    2.3045 C.3     1  UNL1        0.1693
     45 O          26.6748   72.1657    2.8495 O.3     1  UNL1       -0.3794
     46 H          27.4997   71.8324    3.2276 H       1  UNL1        0.2105
@<TRIPOS>BOND
     1    29    30    1
     2    29    28    1
     3    29    36    1
     4    30    31    1
     5    30    41    1
     6    31    32    1
     7    31    34    1
     8    32    33    1
     9    32    35    1
    10    33    44    1
    11    33    36    1
    12    44    45    1
    13    39    40    1
    14    39    41   am
    15    39    42    2
    16    41    43    1
    17    28    25    1
    18    34    37    1
    19    35    38    1
    20    45    46    1
    21    15    16   ar
    22    15    20   ar
    23    15     6    1
    24    16    17   ar
    25    16    21    2
    26    17    18   ar
    27    17    23    1
    28    18    19   ar
    29    18    22    2
    30    19    20   ar
    31     6     7    1
    32     6    11    1
    33     7     8    1
    34     7     9    1
    35     8    13    1
    36     9    10    1
    37     9    12    1
    38    10    11    1
    39    10     5    1
    40    12    14    1
    41     5     4    1
    42     4     1    1
    43     1     2    2
    44     1     3    1
    45     1    24    1
    46    24    25    1
    47    25    26    2
    48    25    27    1
@<TRIPOS>MOLECULE
UD1
 46 48 0 0 0
SMALL
GASTEIGER

@<TRIPOS>ATOM
      1 P          20.8935   71.3823   -1.0657 P.3     1  UNL1        0.2189
      2 O          21.7943   70.9065   -2.1385 O.2     1  UNL1       -0.5170
      3 O          20.9553   70.3624    0.1788 O.3     1  UNL1       -0.4371
      4 O          19.3852   71.4543   -1.6248 O.3     1  UNL1       -0.3112
      5 C          19.2250   70.3574   -2.5257 C.3     1  UNL1        0.1811
      6 C          17.3335   70.4707   -5.5813 C.3     1  UNL1        0.2383
      7 C          17.1540   69.0203   -5.0671 C.3     1  UNL1        0.1895
      8 O          15.8851   68.4934   -5.4564 O.3     1  UNL1       -0.3779
      9 C          17.2269   69.2085   -3.5295 C.3     1  UNL1        0.1713
     10 C          17.9529   70.5560   -3.3512 C.3     1  UNL1        0.1764
     11 O          18.2914   71.0383   -4.6627 O.3     1  UNL1       -0.3308
     12 O          15.9132   69.2627   -2.9691 O.3     1  UNL1       -0.3794
     13 H          15.8368   67.5926   -5.1074 H       1  UNL1        0.2106
     14 H          15.4909   68.4157   -3.1650 H       1  UNL1        0.2105
     15 N          17.8611   70.4763   -6.9462 N.ar    1  UNL1       -0.2551
     16 C          17.0140   70.4154   -7.9883 C.ar    1  UNL1        0.3323
     17 N          17.4710   70.4230   -9.2545 N.ar    1  UNL1       -0.2743
     18 C          18.7957   70.4829   -9.4984 C.ar    1  UNL1        0.2626
     19 C          19.6991   70.5414   -8.4105 C.ar    1  UNL1        0.0795
     20 C          19.2132   70.5378   -7.1506 C.ar    1  UNL1        0.0869
     21 O          15.8164   70.3610   -7.7845 O.2     1  UNL1       -0.2464
     22 O          19.2103   70.4849  -10.6427 O.2     1  UNL1       -0.2670
     23 H          16.8454   70.3832   -9.9942 H       1  UNL1        0.1734
     24 O          21.3578   72.8459   -0.5848 O.3     1  UNL1       -0.2703
     25 P          21.8207   72.7059    0.9500 P.3     1  UNL1        0.2208
     26 O          22.9449   71.7484    1.0406 O.2     1  UNL1       -0.5170
     27 O          20.5879   72.1704    1.8363 O.3     1  UNL1       -0.4371
     28 O          22.2931   74.1419    1.5025 O.3     1  UNL1       -0.2865
     29 C          22.7713   73.9372    2.8331 C.3     1  UNL1        0.2611
     30 C          22.0200   74.8662    3.7883 C.3     1  UNL1        0.1582
     31 C          22.2405   76.3189    3.3516 C.3     1  UNL1        0.1625
     32 C          23.7475   76.5749    3.2437 C.3     1  UNL1        0.1686
     33 C          24.3680   75.5185    2.3269 C.3     1  UNL1        0.1760
     34 O          21.6695   77.2017    4.3191 O.3     1  UNL1       -0.3801
     35 O          23.9733   77.8758    2.6976 O.3     1  UNL1       -0.3794
     36 O          24.1681   74.2198    2.8834 O.3     1  UNL1       -0.3263
     37 H          21.8306   78.1021    4.0051 H       1  UNL1        0.2105
     38 H          24.9323   77.9950    2.6464 H       1  UNL1        0.2105
     39 C          19.8808   74.5018    4.8951 C.2     1  UNL1        0.2231
     40 C          18.4085   74.1803    4.8563 C.3     1  UNL1        0.0946
     41 N          20.5897   74.5545    3.7511 N.am    1  UNL1       -0.2994
     42 O          20.4275   74.7124    5.9567 O.2     1  UNL1       -0.2751
     43 H          20.1524   74.3857    2.9014 H       1  UNL1        0.1496
     44 C          25.8682   75.7848    2.1865 C.3     1  UNL1        0.1693
     45 O          26.5955   74.8445    2.9796 O.3     1  UNL1       -0.3794
     46 H          27.5337   75.0469    2.8633 H       1  UNL1        0.2105
@<TRIPOS>BOND
     1    29    30    1
     2    29    28    1
     3    29    36    1
     4    30    31    1
     5    30    41    1
     6    31    32    1
     7    31    34    1
     8    32    33    1
     9    32    35    1
    10    33    44    1
    11    33    36    1
    12    44    45    1
    13    39    40    1
    14    39    41   am
    15    39    42    2
    16    41    43    1
    17    28    25    1
    18    34    37    1
    19    35    38    1
    20    45    46    1
    21    15    16   ar
    22    15    20   ar
    23    15     6    1
    24    16    17   ar
    25    16    21    2
    26    17    18   ar
    27    17    23    1
    28    18    19   ar
    29    18    22    2
    30    19    20   ar
    31     6     7    1
    32     6    11    1
    33     7     8    1
    34     7     9    1
    35     8    13    1
    36     9    10    1
    37     9    12    1
    38    10    11    1
    39    10     5    1
    40    12    14    1
    41     5     4    1
    42     4     1    1
    43     1     2    2
    44     1     3    1
    45     1    24    1
    46    24    25    1
    47    25    26    2
    48    25    27    1
@<TRIPOS>MOLECULE
UD1
 46 48 0 0 0
SMALL
GASTEIGER

@<TRIPOS>ATOM
      1 P          22.4761   71.3591   -2.1899 P.3     1  UNL1        0.2189
      2 O          23.8983   70.9700   -2.3113 O.2     1  UNL1       -0.5170
      3 O          22.2901   72.8772   -2.6932 O.3     1  UNL1       -0.4371
      4 O          22.0187   71.2453   -0.6502 O.3     1  UNL1       -0.3112
      5 C          23.2006   71.0091    0.1163 C.3     1  UNL1        0.1811
      6 C          24.9489   72.9671    2.5733 C.3     1  UNL1        0.2383
      7 C          24.9086   73.8696    1.3147 C.3     1  UNL1        0.1895
      8 O          24.8722   75.2505    1.6769 O.3     1  UNL1       -0.3779
      9 C          23.5775   73.4374    0.6465 C.3     1  UNL1        0.1713
     10 C          23.2966   72.0430    1.2392 C.3     1  UNL1        0.1764
     11 O          24.3929   71.7179    2.1108 O.3     1  UNL1       -0.3308
     12 O          22.5302   74.3506    0.9811 O.3     1  UNL1       -0.3794
     13 H          24.8488   75.7558    0.8525 H       1  UNL1        0.2106
     14 H          22.7921   75.2145    0.6359 H       1  UNL1        0.2105
     15 N          26.3251   72.7802    3.0345 N.ar    1  UNL1       -0.2551
     16 C          26.8698   73.6690    3.8834 C.ar    1  UNL1        0.3323
     17 N          28.1320   73.5201    4.3272 N.ar    1  UNL1       -0.2743
     18 C          28.8776   72.4744    3.9167 C.ar    1  UNL1        0.2626
     19 C          28.3186   71.5344    3.0185 C.ar    1  UNL1        0.0795
     20 C          27.0484   71.7050    2.5933 C.ar    1  UNL1        0.0869
     21 O          26.2099   74.6173    4.2628 O.2     1  UNL1       -0.2464
     22 O          30.0205   72.3413    4.3135 O.2     1  UNL1       -0.2670
     23 H          28.5072   74.1683    4.9430 H       1  UNL1        0.1734
     24 O          21.5728   70.3793   -3.0916 O.3     1  UNL1       -0.2703
     25 P          20.0567   70.9054   -2.9740 P.3     1  UNL1        0.2208
     26 O          20.0564   72.3752   -2.8052 O.2     1  UNL1       -0.5170
     27 O          19.3471   70.2197   -1.7018 O.3     1  UNL1       -0.4371
     28 O          19.2479   70.5187   -4.3107 O.3     1  UNL1       -0.2865
     29 C          18.7205   71.7353   -4.8426 C.3     1  UNL1        0.2611
     30 C          17.2445   71.5360   -5.1915 C.3     1  UNL1        0.1582
     31 C          17.1198   70.3999   -6.2130 C.3     1  UNL1        0.1625
     32 C          18.0352   70.7079   -7.4027 C.3     1  UNL1        0.1686
     33 C          19.4525   70.9667   -6.8871 C.3     1  UNL1        0.1760
     34 O          15.7658   70.3033   -6.6588 O.3     1  UNL1       -0.3801
     35 O          18.0467   69.5942   -8.2977 O.3     1  UNL1       -0.3794
     36 O          19.4493   72.0956   -6.0141 O.3     1  UNL1       -0.3263
     37 H          15.7332   69.5781   -7.2978 H       1  UNL1        0.2105
     38 H          18.6341   69.8297   -9.0298 H       1  UNL1        0.2105
     39 C          16.2931   69.8991   -3.6587 C.2     1  UNL1        0.2231
     40 C          15.5232   69.5445   -2.4122 C.3     1  UNL1        0.0946
     41 N          16.4971   71.1910   -3.9804 N.am    1  UNL1       -0.2994
     42 O          16.7284   69.0211   -4.3727 O.2     1  UNL1       -0.2751
     43 H          16.1486   71.8938   -3.4093 H       1  UNL1        0.1496
     44 C          20.3818   71.2433   -8.0707 C.3     1  UNL1        0.1693
     45 O          20.8932   72.5742   -7.9744 O.3     1  UNL1       -0.3794
     46 H          21.4721   72.7075   -8.7371 H       1  UNL1        0.2105
@<TRIPOS>BOND
     1    29    30    1
     2    29    28    1
     3    29    36    1
     4    30    31    1
     5    30    41    1
     6    31    32    1
     7    31    34    1
     8    32    33    1
     9    32    35    1
    10    33    44    1
    11    33    36    1
    12    44    45    1
    13    39    40    1
    14    39    41   am
    15    39    42    2
    16    41    43    1
    17    28    25    1
    18    34    37    1
    19    35    38    1
    20    45    46    1
    21    15    16   ar
    22    15    20   ar
    23    15     6    1
    24    16    17   ar
    25    16    21    2
    26    17    18   ar
    27    17    23    1
    28    18    19   ar
    29    18    22    2
    30    19    20   ar
    31     6     7    1
    32     6    11    1
    33     7     8    1
    34     7     9    1
    35     8    13    1
    36     9    10    1
    37     9    12    1
    38    10    11    1
    39    10     5    1
    40    12    14    1
    41     5     4    1
    42     4     1    1
    43     1     2    2
    44     1     3    1
    45     1    24    1
    46    24    25    1
    47    25    26    2
    48    25    27    1
@<TRIPOS>MOLECULE
UD1
 46 48 0 0 0
SMALL
GASTEIGER

@<TRIPOS>ATOM
      1 P          21.3572   71.1334   -3.0601 P.3     1  UNL1        0.2189
      2 O          22.5599   70.2988   -3.2744 O.2     1  UNL1       -0.5170
      3 O          21.4115   71.7850   -1.5887 O.3     1  UNL1       -0.4371
      4 O          20.0391   70.2180   -3.1922 O.3     1  UNL1       -0.3112
      5 C          18.9876   70.9061   -2.5130 C.3     1  UNL1        0.1811
      6 C          17.1962   70.6006   -5.6153 C.3     1  UNL1        0.2383
      7 C          17.1695   69.1749   -5.0097 C.3     1  UNL1        0.1895
      8 O          15.9836   68.4783   -5.3941 O.3     1  UNL1       -0.3779
      9 C          17.1701   69.4680   -3.4868 C.3     1  UNL1        0.1713
     10 C          17.7286   70.9002   -3.3814 C.3     1  UNL1        0.1764
     11 O          18.0514   71.3345   -4.7134 O.3     1  UNL1       -0.3308
     12 O          15.8414   69.4025   -2.9642 O.3     1  UNL1       -0.3794
     13 H          16.0288   67.6022   -4.9868 H       1  UNL1        0.2106
     14 H          15.5268   68.5009   -3.1132 H       1  UNL1        0.2105
     15 N          17.7637   70.5814   -6.9640 N.ar    1  UNL1       -0.2551
     16 C          16.9512   70.4510   -8.0271 C.ar    1  UNL1        0.3323
     17 N          17.4452   70.4342   -9.2792 N.ar    1  UNL1       -0.2743
     18 C          18.7732   70.5394   -9.4872 C.ar    1  UNL1        0.2626
     19 C          19.6406   70.6713   -8.3767 C.ar    1  UNL1        0.0795
     20 C          19.1179   70.6906   -7.1318 C.ar    1  UNL1        0.0869
     21 O          15.7511   70.3551   -7.8557 O.2     1  UNL1       -0.2464
     22 O          19.2214   70.5196  -10.6186 O.2     1  UNL1       -0.2670
     23 H          16.8440   70.3442  -10.0346 H       1  UNL1        0.1734
     24 O          21.3114   72.3025   -4.1645 O.3     1  UNL1       -0.2703
     25 P          22.8375   72.6438   -4.5438 P.3     1  UNL1        0.2208
     26 O          23.0764   72.3189   -5.9672 O.2     1  UNL1       -0.5170
     27 O          23.8283   71.7720   -3.6215 O.3     1  UNL1       -0.4371
     28 O          23.1159   74.2097   -4.2969 O.3     1  UNL1       -0.2865
     29 C          23.4953   74.3522   -2.9269 C.3     1  UNL1        0.2611
     30 C          22.6282   75.4290   -2.2721 C.3     1  UNL1        0.1582
     31 C          22.8157   76.7505   -3.0258 C.3     1  UNL1        0.1625
     32 C          24.3131   77.0695   -3.0907 C.3     1  UNL1        0.1686
     33 C          25.0528   75.8699   -3.6867 C.3     1  UNL1        0.1760
     34 O          22.1293   77.7967   -2.3361 O.3     1  UNL1       -0.3801
     35 O          24.5217   78.2185   -3.9140 O.3     1  UNL1       -0.3794
     36 O          24.8691   74.7270   -2.8521 O.3     1  UNL1       -0.3263
     37 H          22.2733   78.6073   -2.8436 H       1  UNL1        0.2105
     38 H          25.4752   78.3832   -3.9280 H       1  UNL1        0.2105
     39 C          20.4989   74.9359   -1.1962 C.2     1  UNL1        0.2231
     40 C          19.0508   74.5215   -1.2558 C.3     1  UNL1        0.0946
     41 N          21.2213   75.0269   -2.3295 N.am    1  UNL1       -0.2994
     42 O          21.0142   75.1870   -0.1278 O.2     1  UNL1       -0.2751
     43 H          20.8092   74.8258   -3.1846 H       1  UNL1        0.1496
     44 C          26.5456   76.1908   -3.7860 C.3     1  UNL1        0.1693
     45 O          27.1830   75.2356   -4.6366 O.3     1  UNL1       -0.3794
     46 H          28.1194   75.4732   -4.6717 H       1  UNL1        0.2105
@<TRIPOS>BOND
     1    29    30    1
     2    29    28    1
     3    29    36    1
     4    30    31    1
     5    30    41    1
     6    31    32    1
     7    31    34    1
     8    32    33    1
     9    32    35    1
    10    33    44    1
    11    33    36    1
    12    44    45    1
    13    39    40    1
    14    39    41   am
    15    39    42    2
    16    41    43    1
    17    28    25    1
    18    34    37    1
    19    35    38    1
    20    45    46    1
    21    15    16   ar
    22    15    20   ar
    23    15     6    1
    24    16    17   ar
    25    16    21    2
    26    17    18   ar
    27    17    23    1
    28    18    19   ar
    29    18    22    2
    30    19    20   ar
    31     6     7    1
    32     6    11    1
    33     7     8    1
    34     7     9    1
    35     8    13    1
    36     9    10    1
    37     9    12    1
    38    10    11    1
    39    10     5    1
    40    12    14    1
    41     5     4    1
    42     4     1    1
    43     1     2    2
    44     1     3    1
    45     1    24    1
    46    24    25    1
    47    25    26    2
    48    25    27    1
@<TRIPOS>MOLECULE
UD1
 46 48 0 0 0
SMALL
GASTEIGER

@<TRIPOS>ATOM
      1 P          20.7071   71.3783   -1.1789 P.3     1  UNL1        0.2189
      2 O          21.5126   70.6560   -2.1880 O.2     1  UNL1       -0.5170
      3 O          20.8186   70.6222    0.2383 O.3     1  UNL1       -0.4371
      4 O          19.1670   71.4135   -1.6475 O.3     1  UNL1       -0.3112
      5 C          18.9548   70.2574   -2.4591 C.3     1  UNL1        0.1811
      6 C          17.1814   70.4315   -5.5819 C.3     1  UNL1        0.2383
      7 C          16.9996   68.9660   -5.1135 C.3     1  UNL1        0.1895
      8 O          15.7531   68.4358   -5.5655 O.3     1  UNL1       -0.3779
      9 C          17.0109   69.1138   -3.5697 C.3     1  UNL1        0.1713
     10 C          17.7132   70.4639   -3.3280 C.3     1  UNL1        0.1764
     11 O          18.0963   70.9849   -4.6122 O.3     1  UNL1       -0.3308
     12 O          15.6760   69.1385   -3.0597 O.3     1  UNL1       -0.3794
     13 H          15.7022   67.5255   -5.2425 H       1  UNL1        0.2106
     14 H          15.2718   68.2925   -3.2941 H       1  UNL1        0.2105
     15 N          17.7612   70.4795   -6.9246 N.ar    1  UNL1       -0.2551
     16 C          16.9554   70.4415   -8.0001 C.ar    1  UNL1        0.3323
     17 N          17.4608   70.4881   -9.2469 N.ar    1  UNL1       -0.2743
     18 C          18.7934   70.5648   -9.4375 C.ar    1  UNL1        0.2626
     19 C          19.6536   70.5996   -8.3142 C.ar    1  UNL1        0.0795
     20 C          19.1196   70.5569   -7.0747 C.ar    1  UNL1        0.0869
     21 O          15.7514   70.3724   -7.8445 O.2     1  UNL1       -0.2464
     22 O          19.2517   70.6022  -10.5644 O.2     1  UNL1       -0.2670
     23 H          16.8645   70.4644  -10.0112 H       1  UNL1        0.1734
     24 O          21.2571   72.8831   -1.0302 O.3     1  UNL1       -0.2703
     25 P          22.8036   72.7724   -0.5997 P.3     1  UNL1        0.2208
     26 O          23.2408   71.3618   -0.6897 O.2     1  UNL1       -0.5170
     27 O          22.9786   73.2921    0.9140 O.3     1  UNL1       -0.4371
     28 O          23.7017   73.6762   -1.5831 O.3     1  UNL1       -0.2865
     29 C          22.9693   74.8788   -1.8251 C.3     1  UNL1        0.2611
     30 C          22.9334   75.1542   -3.3293 C.3     1  UNL1        0.1582
     31 C          24.3695   75.2812   -3.8500 C.3     1  UNL1        0.1625
     32 C          25.1035   76.3333   -3.0119 C.3     1  UNL1        0.1686
     33 C          24.9783   75.9671   -1.5315 C.3     1  UNL1        0.1760
     34 O          24.3480   75.6856   -5.2202 O.3     1  UNL1       -0.3801
     35 O          26.4830   76.3628   -3.3832 O.3     1  UNL1       -0.3794
     36 O          23.6030   75.9635   -1.1504 O.3     1  UNL1       -0.3263
     37 H          25.2695   75.7526   -5.5062 H       1  UNL1        0.2105
     38 H          26.9066   77.0362   -2.8322 H       1  UNL1        0.2105
     39 C          22.9787   73.0252   -4.5122 C.2     1  UNL1        0.2231
     40 C          22.2844   71.8880   -5.2172 C.3     1  UNL1        0.0946
     41 N          22.2594   74.0490   -4.0138 N.am    1  UNL1       -0.2994
     42 O          24.1855   73.0189   -4.3942 O.2     1  UNL1       -0.2751
     43 H          21.2937   74.0544   -4.1083 H       1  UNL1        0.1496
     44 C          25.7358   76.9942   -0.6875 C.3     1  UNL1        0.1693
     45 O          25.7694   76.5610    0.6739 O.3     1  UNL1       -0.3794
     46 H          26.2540   77.2345    1.1700 H       1  UNL1        0.2105
@<TRIPOS>BOND
     1    29    30    1
     2    29    28    1
     3    29    36    1
     4    30    31    1
     5    30    41    1
     6    31    32    1
     7    31    34    1
     8    32    33    1
     9    32    35    1
    10    33    44    1
    11    33    36    1
    12    44    45    1
    13    39    40    1
    14    39    41   am
    15    39    42    2
    16    41    43    1
    17    28    25    1
    18    34    37    1
    19    35    38    1
    20    45    46    1
    21    15    16   ar
    22    15    20   ar
    23    15     6    1
    24    16    17   ar
    25    16    21    2
    26    17    18   ar
    27    17    23    1
    28    18    19   ar
    29    18    22    2
    30    19    20   ar
    31     6     7    1
    32     6    11    1
    33     7     8    1
    34     7     9    1
    35     8    13    1
    36     9    10    1
    37     9    12    1
    38    10    11    1
    39    10     5    1
    40    12    14    1
    41     5     4    1
    42     4     1    1
    43     1     2    2
    44     1     3    1
    45     1    24    1
    46    24    25    1
    47    25    26    2
    48    25    27    1
@<TRIPOS>MOLECULE
UD1
 46 48 0 0 0
SMALL
GASTEIGER

@<TRIPOS>ATOM
      1 P          16.2907   69.6395   -2.5950 P.3     1  UNL1        0.2189
      2 O          15.9684   69.1674   -3.9595 O.2     1  UNL1       -0.5170
      3 O          17.0591   68.4747   -1.7916 O.3     1  UNL1       -0.4371
      4 O          14.9290   70.0148   -1.8219 O.3     1  UNL1       -0.3112
      5 C          14.7927   69.0833   -0.7476 C.3     1  UNL1        0.1811
      6 C          12.0509   67.9644    1.2914 C.3     1  UNL1        0.2383
      7 C          12.3219   69.4138    1.7667 C.3     1  UNL1        0.1895
      8 O          11.1198   70.0355    2.2225 O.3     1  UNL1       -0.3779
      9 C          12.8376   70.0907    0.4702 C.3     1  UNL1        0.1713
     10 C          13.3122   68.9133   -0.4034 C.3     1  UNL1        0.1764
     11 O          13.1226   67.7090    0.3588 O.3     1  UNL1       -0.3308
     12 O          11.7819   70.8067   -0.1745 O.3     1  UNL1       -0.3794
     13 H          11.3562   70.9303    2.5033 H       1  UNL1        0.2106
     14 H          11.4889   71.4890    0.4442 H       1  UNL1        0.2105
     15 N          12.1110   67.0294    2.4155 N.ar    1  UNL1       -0.2551
     16 C          13.3029   66.5790    2.8444 C.ar    1  UNL1        0.3323
     17 N          13.3885   65.7214    3.8786 N.ar    1  UNL1       -0.2743
     18 C          12.2712   65.2909    4.4985 C.ar    1  UNL1        0.2626
     19 C          11.0096   65.7524    4.0533 C.ar    1  UNL1        0.0795
     20 C          10.9529   66.6164    3.0172 C.ar    1  UNL1        0.0869
     21 O          14.3195   66.9582    2.2956 O.2     1  UNL1       -0.2464
     22 O          12.3471   64.5118    5.4306 O.2     1  UNL1       -0.2670
     23 H          14.2568   65.4105    4.1778 H       1  UNL1        0.1734
     24 O          17.2322   70.9411   -2.6859 O.3     1  UNL1       -0.2703
     25 P          18.7286   70.4146   -2.9558 P.3     1  UNL1        0.2208
     26 O          18.6774   69.0354   -3.4887 O.2     1  UNL1       -0.5170
     27 O          19.5591   70.4257   -1.5766 O.3     1  UNL1       -0.4371
     28 O          19.4526   71.3761   -4.0243 O.3     1  UNL1       -0.2865
     29 C          20.5469   70.6382   -4.5712 C.3     1  UNL1        0.2611
     30 C          21.8318   71.4546   -4.4213 C.3     1  UNL1        0.1582
     31 C          21.6634   72.7925   -5.1501 C.3     1  UNL1        0.1625
     32 C          21.2329   72.5134   -6.5940 C.3     1  UNL1        0.1686
     33 C          19.9912   71.6195   -6.5799 C.3     1  UNL1        0.1760
     34 O          22.9047   73.5000   -5.1452 O.3     1  UNL1       -0.3801
     35 O          20.9285   73.7464   -7.2488 O.3     1  UNL1       -0.3794
     36 O          20.2993   70.3761   -5.9509 O.3     1  UNL1       -0.3263
     37 H          22.7532   74.3332   -5.6123 H       1  UNL1        0.2105
     38 H          20.6620   73.5249   -8.1524 H       1  UNL1        0.2105
     39 C          23.2764   71.3432   -2.4630 C.2     1  UNL1        0.2231
     40 C          23.5458   71.5944   -1.0013 C.3     1  UNL1        0.0946
     41 N          22.0942   71.6989   -3.0015 N.am    1  UNL1       -0.2994
     42 O          24.1239   70.8200   -3.1545 O.2     1  UNL1       -0.2751
     43 H          21.4157   72.1174   -2.4483 H       1  UNL1        0.1496
     44 C          19.5338   71.3612   -8.0170 C.3     1  UNL1        0.1693
     45 O          20.6072   71.6438   -8.9170 O.3     1  UNL1       -0.3794
     46 H          20.2779   71.4690   -9.8089 H       1  UNL1        0.2105
@<TRIPOS>BOND
     1    29    30    1
     2    29    28    1
     3    29    36    1
     4    30    31    1
     5    30    41    1
     6    31    32    1
     7    31    34    1
     8    32    33    1
     9    32    35    1
    10    33    44    1
    11    33    36    1
    12    44    45    1
    13    39    40    1
    14    39    41   am
    15    39    42    2
    16    41    43    1
    17    28    25    1
    18    34    37    1
    19    35    38    1
    20    45    46    1
    21    15    16   ar
    22    15    20   ar
    23    15     6    1
    24    16    17   ar
    25    16    21    2
    26    17    18   ar
    27    17    23    1
    28    18    19   ar
    29    18    22    2
    30    19    20   ar
    31     6     7    1
    32     6    11    1
    33     7     8    1
    34     7     9    1
    35     8    13    1
    36     9    10    1
    37     9    12    1
    38    10    11    1
    39    10     5    1
    40    12    14    1
    41     5     4    1
    42     4     1    1
    43     1     2    2
    44     1     3    1
    45     1    24    1
    46    24    25    1
    47    25    26    2
    48    25    27    1
@<TRIPOS>MOLECULE
UD1
 46 48 0 0 0
SMALL
GASTEIGER

@<TRIPOS>ATOM
      1 P          21.7322   72.5774   -6.4254 P.3     1  UNL1        0.2189
      2 O          20.7049   73.5547   -6.8477 O.2     1  UNL1       -0.5170
      3 O          23.1703   73.0335   -6.9878 O.3     1  UNL1       -0.4371
      4 O          21.3635   71.1244   -7.0132 O.3     1  UNL1       -0.3112
      5 C          20.5852   71.3398   -8.1914 C.3     1  UNL1        0.1811
      6 C          17.4536   70.0992   -6.9340 C.3     1  UNL1        0.2383
      7 C          17.0551   71.1189   -8.0301 C.3     1  UNL1        0.1895
      8 O          15.8258   70.7453   -8.6533 O.3     1  UNL1       -0.3779
      9 C          18.2379   71.0046   -9.0267 C.3     1  UNL1        0.1713
     10 C          19.3788   70.3997   -8.1858 C.3     1  UNL1        0.1764
     11 O          18.8870   70.2433   -6.8438 O.3     1  UNL1       -0.3308
     12 O          17.8956   70.1404  -10.1124 O.3     1  UNL1       -0.3794
     13 H          15.6349   71.4177   -9.3218 H       1  UNL1        0.2106
     14 H          17.1403   70.5424  -10.5619 H       1  UNL1        0.2105
     15 N          16.8200   70.4339   -5.6581 N.ar    1  UNL1       -0.2551
     16 C          16.4331   69.4499   -4.8278 C.ar    1  UNL1        0.3323
     17 N          15.8513   69.7286   -3.6462 N.ar    1  UNL1       -0.2743
     18 C          15.6380   71.0082   -3.2790 C.ar    1  UNL1        0.2626
     19 C          16.0349   72.0539   -4.1461 C.ar    1  UNL1        0.0795
     20 C          16.6211   71.7462   -5.3230 C.ar    1  UNL1        0.0869
     21 O          16.6188   68.2908   -5.1450 O.2     1  UNL1       -0.2464
     22 O          15.1078   71.2613   -2.2130 O.2     1  UNL1       -0.2670
     23 H          15.5829   69.0063   -3.0576 H       1  UNL1        0.1734
     24 O          21.7801   72.5097   -4.8185 O.3     1  UNL1       -0.2703
     25 P          22.9795   73.4738   -4.3482 P.3     1  UNL1        0.2208
     26 O          23.2009   74.5202   -5.3704 O.2     1  UNL1       -0.5170
     27 O          24.3251   72.6085   -4.1669 O.3     1  UNL1       -0.4371
     28 O          22.5953   74.1657   -2.9466 O.3     1  UNL1       -0.2865
     29 C          23.0102   73.2693   -1.9144 C.3     1  UNL1        0.2611
     30 C          21.8230   72.9718   -0.9967 C.3     1  UNL1        0.1582
     31 C          21.3105   74.2865   -0.3980 C.3     1  UNL1        0.1625
     32 C          22.4842   75.0119    0.2686 C.3     1  UNL1        0.1686
     33 C          23.6205   75.1582   -0.7457 C.3     1  UNL1        0.1760
     34 O          20.3008   74.0086    0.5740 O.3     1  UNL1       -0.3801
     35 O          22.0613   76.3052    0.7045 O.3     1  UNL1       -0.3794
     36 O          24.0639   73.8674   -1.1625 O.3     1  UNL1       -0.3263
     37 H          20.0074   74.8612    0.9236 H       1  UNL1        0.2105
     38 H          22.8290   76.7265    1.1165 H       1  UNL1        0.2105
     39 C          20.2737   71.1342   -1.3930 C.2     1  UNL1        0.2231
     40 C          19.1739   70.4788   -2.1887 C.3     1  UNL1        0.0946
     41 N          20.7542   72.3350   -1.7691 N.am    1  UNL1       -0.2994
     42 O          20.7267   70.5801   -0.4143 O.2     1  UNL1       -0.2751
     43 H          20.3920   72.7785   -2.5524 H       1  UNL1        0.1496
     44 C          24.7857   75.9104   -0.0994 C.3     1  UNL1        0.1693
     45 O          24.6246   77.3140   -0.3141 O.3     1  UNL1       -0.3794
     46 H          25.3777   77.7498    0.1074 H       1  UNL1        0.2105
@<TRIPOS>BOND
     1    29    30    1
     2    29    28    1
     3    29    36    1
     4    30    31    1
     5    30    41    1
     6    31    32    1
     7    31    34    1
     8    32    33    1
     9    32    35    1
    10    33    44    1
    11    33    36    1
    12    44    45    1
    13    39    40    1
    14    39    41   am
    15    39    42    2
    16    41    43    1
    17    28    25    1
    18    34    37    1
    19    35    38    1
    20    45    46    1
    21    15    16   ar
    22    15    20   ar
    23    15     6    1
    24    16    17   ar
    25    16    21    2
    26    17    18   ar
    27    17    23    1
    28    18    19   ar
    29    18    22    2
    30    19    20   ar
    31     6     7    1
    32     6    11    1
    33     7     8    1
    34     7     9    1
    35     8    13    1
    36     9    10    1
    37     9    12    1
    38    10    11    1
    39    10     5    1
    40    12    14    1
    41     5     4    1
    42     4     1    1
    43     1     2    2
    44     1     3    1
    45     1    24    1
    46    24    25    1
    47    25    26    2
    48    25    27    1
@<TRIPOS>MOLECULE
UD1
 46 48 0 0 0
SMALL
GASTEIGER

@<TRIPOS>ATOM
      1 P          20.1111   71.2546   -2.0743 P.3     1  UNL1        0.2189
      2 O          20.1203   72.7222   -2.2615 O.2     1  UNL1       -0.5170
      3 O          20.9489   70.5571   -3.2593 O.3     1  UNL1       -0.4371
      4 O          18.5927   70.7197   -2.1052 O.3     1  UNL1       -0.3112
      5 C          17.7938   71.7729   -2.6465 C.3     1  UNL1        0.1811
      6 C          16.7348   70.4590   -5.8213 C.3     1  UNL1        0.2383
      7 C          17.1360   69.2092   -4.9983 C.3     1  UNL1        0.1895
      8 O          16.3587   68.0741   -5.3811 O.3     1  UNL1       -0.3779
      9 C          16.7963   69.6498   -3.5507 C.3     1  UNL1        0.1713
     10 C          16.7724   71.1888   -3.6236 C.3     1  UNL1        0.1764
     11 O          17.1153   71.5605   -4.9696 O.3     1  UNL1       -0.3308
     12 O          15.5192   69.1412   -3.1595 O.3     1  UNL1       -0.3794
     13 H          16.6564   67.3335   -4.8347 H       1  UNL1        0.2106
     14 H          15.5809   68.1772   -3.1911 H       1  UNL1        0.2105
     15 N          17.4700   70.5063   -7.0857 N.ar    1  UNL1       -0.2551
     16 C          16.7954   70.5692   -8.2468 C.ar    1  UNL1        0.3323
     17 N          17.4457   70.6177   -9.4245 N.ar    1  UNL1       -0.2743
     18 C          18.7934   70.5945   -9.4580 C.ar    1  UNL1        0.2626
     19 C          19.5160   70.5224   -8.2434 C.ar    1  UNL1        0.0795
     20 C          18.8386   70.4802   -7.0760 C.ar    1  UNL1        0.0869
     21 O          15.5797   70.5909   -8.2330 O.2     1  UNL1       -0.2464
     22 O          19.3822   70.6335  -10.5225 O.2     1  UNL1       -0.2670
     23 H          16.9431   70.6676  -10.2522 H       1  UNL1        0.1734
     24 O          20.7795   70.8903   -0.6568 O.3     1  UNL1       -0.2703
     25 P          20.7412   72.2302    0.2334 P.3     1  UNL1        0.2208
     26 O          21.1036   71.9047    1.6304 O.2     1  UNL1       -0.5170
     27 O          19.2590   72.8577    0.1965 O.3     1  UNL1       -0.4371
     28 O          21.7896   73.2988   -0.3578 O.3     1  UNL1       -0.2865
     29 C          23.0809   72.6906   -0.2958 C.3     1  UNL1        0.2611
     30 C          24.0415   73.6195    0.4488 C.3     1  UNL1        0.1582
     31 C          24.1107   74.9627   -0.2865 C.3     1  UNL1        0.1625
     32 C          24.4639   74.7003   -1.7544 C.3     1  UNL1        0.1686
     33 C          23.4694   73.6920   -2.3337 C.3     1  UNL1        0.1760
     34 O          25.1148   75.7847    0.3114 O.3     1  UNL1       -0.3801
     35 O          24.3899   75.9232   -2.4897 O.3     1  UNL1       -0.3794
     36 O          23.5602   72.4602   -1.6189 O.3     1  UNL1       -0.3263
     37 H          25.1239   76.6172   -0.1807 H       1  UNL1        0.2105
     38 H          24.6182   75.7127   -3.4063 H       1  UNL1        0.2105
     39 C          24.1695   73.2250    2.8492 C.2     1  UNL1        0.2231
     40 C          23.6705   73.4438    4.2547 C.3     1  UNL1        0.0946
     41 N          23.5574   73.8322    1.8144 N.am    1  UNL1       -0.2994
     42 O          25.1218   72.5015    2.6497 O.2     1  UNL1       -0.2751
     43 H          22.7952   74.4110    1.9737 H       1  UNL1        0.1496
     44 C          23.7937   73.4476   -3.8089 C.3     1  UNL1        0.1693
     45 O          24.2524   72.1051   -3.9801 O.3     1  UNL1       -0.3794
     46 H          24.4455   71.9931   -4.9207 H       1  UNL1        0.2105
@<TRIPOS>BOND
     1    29    30    1
     2    29    28    1
     3    29    36    1
     4    30    31    1
     5    30    41    1
     6    31    32    1
     7    31    34    1
     8    32    33    1
     9    32    35    1
    10    33    44    1
    11    33    36    1
    12    44    45    1
    13    39    40    1
    14    39    41   am
    15    39    42    2
    16    41    43    1
    17    28    25    1
    18    34    37    1
    19    35    38    1
    20    45    46    1
    21    15    16   ar
    22    15    20   ar
    23    15     6    1
    24    16    17   ar
    25    16    21    2
    26    17    18   ar
    27    17    23    1
    28    18    19   ar
    29    18    22    2
    30    19    20   ar
    31     6     7    1
    32     6    11    1
    33     7     8    1
    34     7     9    1
    35     8    13    1
    36     9    10    1
    37     9    12    1
    38    10    11    1
    39    10     5    1
    40    12    14    1
    41     5     4    1
    42     4     1    1
    43     1     2    2
    44     1     3    1
    45     1    24    1
    46    24    25    1
    47    25    26    2
    48    25    27    1
@<TRIPOS>MOLECULE
UD1
 46 48 0 0 0
SMALL
GASTEIGER

@<TRIPOS>ATOM
      1 P          20.1342   70.9352   -2.7860 P.3     1  UNL1        0.2189
      2 O          20.4938   69.9414   -3.8214 O.2     1  UNL1       -0.5170
      3 O          19.3620   70.1986   -1.5803 O.3     1  UNL1       -0.4371
      4 O          19.1755   72.0572   -3.4299 O.3     1  UNL1       -0.3112
      5 C          17.9229   71.9718   -2.7487 C.3     1  UNL1        0.1811
      6 C          16.7070   70.7922   -5.9201 C.3     1  UNL1        0.2383
      7 C          16.8802   69.5092   -5.0692 C.3     1  UNL1        0.1895
      8 O          15.9295   68.5130   -5.4471 O.3     1  UNL1       -0.3779
      9 C          16.5972   70.0285   -3.6355 C.3     1  UNL1        0.1713
     10 C          16.8330   71.5481   -3.7345 C.3     1  UNL1        0.1764
     11 O          17.2539   71.8308   -5.0799 O.3     1  UNL1       -0.3308
     12 O          15.2471   69.7486   -3.2594 O.3     1  UNL1       -0.3794
     13 H          16.0904   67.7438   -4.8832 H       1  UNL1        0.2106
     14 H          15.1467   68.7875   -3.2738 H       1  UNL1        0.2105
     15 N          17.4590   70.6911   -7.1713 N.ar    1  UNL1       -0.2551
     16 C          16.7997   70.6030   -8.3396 C.ar    1  UNL1        0.3323
     17 N          17.4655   70.5128   -9.5062 N.ar    1  UNL1       -0.2743
     18 C          18.8137   70.5002   -9.5199 C.ar    1  UNL1        0.2626
     19 C          19.5203   70.5863   -8.2967 C.ar    1  UNL1        0.0795
     20 C          18.8275   70.6812   -7.1416 C.ar    1  UNL1        0.0869
     21 O          15.5837   70.6131   -8.3437 O.2     1  UNL1       -0.2464
     22 O          19.4166   70.4139  -10.5736 O.2     1  UNL1       -0.2670
     23 H          16.9738   70.4548  -10.3399 H       1  UNL1        0.1734
     24 O          21.4711   71.6310   -2.2226 O.3     1  UNL1       -0.2703
     25 P          21.2693   71.8092   -0.6362 P.3     1  UNL1        0.2208
     26 O          21.0649   70.4830   -0.0130 O.2     1  UNL1       -0.5170
     27 O          19.9821   72.7358   -0.3590 O.3     1  UNL1       -0.4371
     28 O          22.5754   72.5042   -0.0025 O.3     1  UNL1       -0.2865
     29 C          22.1295   73.6733    0.6871 C.3     1  UNL1        0.2611
     30 C          23.1702   74.7827    0.5255 C.3     1  UNL1        0.1582
     31 C          24.5104   74.2991    1.0908 C.3     1  UNL1        0.1625
     32 C          24.2902   73.8160    2.5283 C.3     1  UNL1        0.1686
     33 C          23.1670   72.7771    2.5384 C.3     1  UNL1        0.1760
     34 O          25.4500   75.3754    1.0825 O.3     1  UNL1       -0.3801
     35 O          25.4935   73.2258    3.0237 O.3     1  UNL1       -0.3794
     36 O          21.9568   73.3709    2.0699 O.3     1  UNL1       -0.3263
     37 H          26.2764   75.0277    1.4449 H       1  UNL1        0.2105
     38 H          25.3107   72.9354    3.9286 H       1  UNL1        0.2105
     39 C          22.5147   76.0146   -1.4713 C.2     1  UNL1        0.2231
     40 C          22.6739   76.3470   -2.9329 C.3     1  UNL1        0.0946
     41 N          23.3248   75.1063   -0.8943 N.am    1  UNL1       -0.2994
     42 O          21.6565   76.5645   -0.8144 O.2     1  UNL1       -0.2751
     43 H          24.0115   74.6660   -1.4197 H       1  UNL1        0.1496
     44 C          22.9611   72.2642    3.9651 C.3     1  UNL1        0.1693
     45 O          21.6991   72.7188    4.4578 O.3     1  UNL1       -0.3794
     46 H          21.6093   72.3748    5.3568 H       1  UNL1        0.2105
@<TRIPOS>BOND
     1    29    30    1
     2    29    28    1
     3    29    36    1
     4    30    31    1
     5    30    41    1
     6    31    32    1
     7    31    34    1
     8    32    33    1
     9    32    35    1
    10    33    44    1
    11    33    36    1
    12    44    45    1
    13    39    40    1
    14    39    41   am
    15    39    42    2
    16    41    43    1
    17    28    25    1
    18    34    37    1
    19    35    38    1
    20    45    46    1
    21    15    16   ar
    22    15    20   ar
    23    15     6    1
    24    16    17   ar
    25    16    21    2
    26    17    18   ar
    27    17    23    1
    28    18    19   ar
    29    18    22    2
    30    19    20   ar
    31     6     7    1
    32     6    11    1
    33     7     8    1
    34     7     9    1
    35     8    13    1
    36     9    10    1
    37     9    12    1
    38    10    11    1
    39    10     5    1
    40    12    14    1
    41     5     4    1
    42     4     1    1
    43     1     2    2
    44     1     3    1
    45     1    24    1
    46    24    25    1
    47    25    26    2
    48    25    27    1
@<TRIPOS>MOLECULE
UD1
 46 48 0 0 0
SMALL
GASTEIGER

@<TRIPOS>ATOM
      1 P          20.6969   71.4908   -1.5918 P.3     1  UNL1        0.2189
      2 O          20.4013   70.6305   -0.4250 O.2     1  UNL1       -0.5170
      3 O          21.2704   72.9067   -1.0830 O.3     1  UNL1       -0.4371
      4 O          19.3471   71.7317   -2.4360 O.3     1  UNL1       -0.3112
      5 C          18.6029   70.5136   -2.3831 C.3     1  UNL1        0.1811
      6 C          17.0050   70.4772   -5.6037 C.3     1  UNL1        0.2383
      7 C          16.9003   69.0152   -5.1019 C.3     1  UNL1        0.1895
      8 O          15.7224   68.3848   -5.6064 O.3     1  UNL1       -0.3779
      9 C          16.8119   69.2040   -3.5651 C.3     1  UNL1        0.1713
     10 C          17.4021   70.6072   -3.3257 C.3     1  UNL1        0.1764
     11 O          17.8210   71.1204   -4.6018 O.3     1  UNL1       -0.3308
     12 O          15.4513   69.1458   -3.1313 O.3     1  UNL1       -0.3794
     13 H          15.7173   67.4820   -5.2593 H       1  UNL1        0.2106
     14 H          15.1220   68.2669   -3.3621 H       1  UNL1        0.2105
     15 N          17.6566   70.5316   -6.9129 N.ar    1  UNL1       -0.2551
     16 C          16.9113   70.4820   -8.0307 C.ar    1  UNL1        0.3323
     17 N          17.4834   70.5340   -9.2481 N.ar    1  UNL1       -0.2743
     18 C          18.8233   70.6281   -9.3658 C.ar    1  UNL1        0.2626
     19 C          19.6203   70.6751   -8.1973 C.ar    1  UNL1        0.0795
     20 C          19.0201   70.6266   -6.9887 C.ar    1  UNL1        0.0869
     21 O          15.7016   70.3972   -7.9409 O.2     1  UNL1       -0.2464
     22 O          19.3420   70.6703  -10.4661 O.2     1  UNL1       -0.2670
     23 H          16.9301   70.5018  -10.0438 H       1  UNL1        0.1734
     24 O          21.7922   70.7712   -2.5253 O.3     1  UNL1       -0.2703
     25 P          23.1919   71.5198   -2.2614 P.3     1  UNL1        0.2208
     26 O          24.2619   70.8519   -3.0346 O.2     1  UNL1       -0.5170
     27 O          23.5467   71.4583   -0.6921 O.3     1  UNL1       -0.4371
     28 O          23.0754   73.0570   -2.7239 O.3     1  UNL1       -0.2865
     29 C          24.1692   73.3079   -3.6080 C.3     1  UNL1        0.2611
     30 C          24.5434   74.7896   -3.5406 C.3     1  UNL1        0.1582
     31 C          23.3252   75.6327   -3.9341 C.3     1  UNL1        0.1625
     32 C          22.8147   75.1504   -5.2961 C.3     1  UNL1        0.1686
     33 C          22.5679   73.6417   -5.2300 C.3     1  UNL1        0.1760
     34 O          23.7023   77.0081   -4.0201 O.3     1  UNL1       -0.3801
     35 O          21.5944   75.8222   -5.6143 O.3     1  UNL1       -0.3794
     36 O          23.7905   72.9655   -4.9394 O.3     1  UNL1       -0.3263
     37 H          22.9081   77.5005   -4.2691 H       1  UNL1        0.2105
     38 H          21.3084   75.4891   -6.4767 H       1  UNL1        0.2105
     39 C          24.0563   75.6229   -1.3040 C.2     1  UNL1        0.2231
     40 C          24.4810   75.9729    0.0994 C.3     1  UNL1        0.0946
     41 N          24.9554   75.1293   -2.1771 N.am    1  UNL1       -0.2994
     42 O          22.9050   75.7861   -1.6475 O.2     1  UNL1       -0.2751
     43 H          25.8768   74.9988   -1.9025 H       1  UNL1        0.1496
     44 C          22.0268   73.1553   -6.5760 C.3     1  UNL1        0.1693
     45 O          22.9425   72.2190   -7.1478 O.3     1  UNL1       -0.3794
     46 H          22.5649   71.9384   -7.9924 H       1  UNL1        0.2105
@<TRIPOS>BOND
     1    29    30    1
     2    29    28    1
     3    29    36    1
     4    30    31    1
     5    30    41    1
     6    31    32    1
     7    31    34    1
     8    32    33    1
     9    32    35    1
    10    33    44    1
    11    33    36    1
    12    44    45    1
    13    39    40    1
    14    39    41   am
    15    39    42    2
    16    41    43    1
    17    28    25    1
    18    34    37    1
    19    35    38    1
    20    45    46    1
    21    15    16   ar
    22    15    20   ar
    23    15     6    1
    24    16    17   ar
    25    16    21    2
    26    17    18   ar
    27    17    23    1
    28    18    19   ar
    29    18    22    2
    30    19    20   ar
    31     6     7    1
    32     6    11    1
    33     7     8    1
    34     7     9    1
    35     8    13    1
    36     9    10    1
    37     9    12    1
    38    10    11    1
    39    10     5    1
    40    12    14    1
    41     5     4    1
    42     4     1    1
    43     1     2    2
    44     1     3    1
    45     1    24    1
    46    24    25    1
    47    25    26    2
    48    25    27    1
@<TRIPOS>MOLECULE
UD1
 46 48 0 0 0
SMALL
GASTEIGER

@<TRIPOS>ATOM
      1 P          16.2457   69.7593   -2.8620 P.3     1  UNL1        0.2189
      2 O          15.8862   69.0857   -4.1291 O.2     1  UNL1       -0.5170
      3 O          16.7938   68.6693   -1.8113 O.3     1  UNL1       -0.4371
      4 O          14.9436   70.4840   -2.2519 O.3     1  UNL1       -0.3112
      5 C          14.5761   69.7559   -1.0792 C.3     1  UNL1        0.1811
      6 C          11.1009   68.8710   -0.8204 C.3     1  UNL1        0.2383
      7 C          11.6867   68.5568    0.5790 C.3     1  UNL1        0.1895
      8 O          10.7015   68.7348    1.5972 O.3     1  UNL1       -0.3779
      9 C          12.8119   69.6164    0.7064 C.3     1  UNL1        0.1713
     10 C          13.1072   70.0258   -0.7496 C.3     1  UNL1        0.1764
     11 O          12.2616   69.2317   -1.5990 O.3     1  UNL1       -0.3308
     12 O          12.3586   70.7387    1.4663 O.3     1  UNL1       -0.3794
     13 H          11.1277   68.5239    2.4395 H       1  UNL1        0.2106
     14 H          12.1338   70.4078    2.3462 H       1  UNL1        0.2105
     15 N          10.4461   67.6909   -1.3863 N.ar    1  UNL1       -0.2551
     16 C           9.4030   67.8435   -2.2206 C.ar    1  UNL1        0.3323
     17 N           8.7841   66.7761   -2.7589 N.ar    1  UNL1       -0.2743
     18 C           9.1983   65.5283   -2.4602 C.ar    1  UNL1        0.2626
     19 C          10.2915   65.3531   -1.5786 C.ar    1  UNL1        0.0795
     20 C          10.8974   66.4412   -1.0570 C.ar    1  UNL1        0.0869
     21 O           9.0178   68.9625   -2.4997 O.2     1  UNL1       -0.2464
     22 O           8.6365   64.5624   -2.9426 O.2     1  UNL1       -0.2670
     23 H           8.0363   66.9048   -3.3625 H       1  UNL1        0.1734
     24 O          17.3882   70.8569   -3.1431 O.3     1  UNL1       -0.2703
     25 P          18.7988   70.0849   -3.0853 P.3     1  UNL1        0.2208
     26 O          18.5846   68.6456   -3.3527 O.2     1  UNL1       -0.5170
     27 O          19.4518   70.2672   -1.6250 O.3     1  UNL1       -0.4371
     28 O          19.7917   70.6948   -4.1955 O.3     1  UNL1       -0.2865
     29 C          19.6089   72.1117   -4.1814 C.3     1  UNL1        0.2611
     30 C          19.3718   72.6045   -5.6100 C.3     1  UNL1        0.1582
     31 C          20.5760   72.2229   -6.4782 C.3     1  UNL1        0.1625
     32 C          21.8495   72.7509   -5.8093 C.3     1  UNL1        0.1686
     33 C          21.9012   72.2444   -4.3664 C.3     1  UNL1        0.1760
     34 O          20.4353   72.8060   -7.7750 O.3     1  UNL1       -0.3801
     35 O          22.9945   72.2812   -6.5235 O.3     1  UNL1       -0.3794
     36 O          20.7731   72.7344   -3.6427 O.3     1  UNL1       -0.3263
     37 H          21.2121   72.5407   -8.2864 H       1  UNL1        0.2105
     38 H          23.7721   72.6354   -6.0693 H       1  UNL1        0.2105
     39 C          18.2517   70.8547   -6.8819 C.2     1  UNL1        0.2231
     40 C          17.0054   70.2136   -7.4368 C.3     1  UNL1        0.0946
     41 N          18.1613   71.9810   -6.1488 N.am    1  UNL1       -0.2994
     42 O          19.3364   70.3570   -7.0961 O.2     1  UNL1       -0.2751
     43 H          17.2934   72.3797   -5.9774 H       1  UNL1        0.1496
     44 C          23.1860   72.7395   -3.6991 C.3     1  UNL1        0.1693
     45 O          24.1771   71.7114   -3.7512 O.3     1  UNL1       -0.3794
     46 H          24.9682   72.0632   -3.3211 H       1  UNL1        0.2105
@<TRIPOS>BOND
     1    29    30    1
     2    29    28    1
     3    29    36    1
     4    30    31    1
     5    30    41    1
     6    31    32    1
     7    31    34    1
     8    32    33    1
     9    32    35    1
    10    33    44    1
    11    33    36    1
    12    44    45    1
    13    39    40    1
    14    39    41   am
    15    39    42    2
    16    41    43    1
    17    28    25    1
    18    34    37    1
    19    35    38    1
    20    45    46    1
    21    15    16   ar
    22    15    20   ar
    23    15     6    1
    24    16    17   ar
    25    16    21    2
    26    17    18   ar
    27    17    23    1
    28    18    19   ar
    29    18    22    2
    30    19    20   ar
    31     6     7    1
    32     6    11    1
    33     7     8    1
    34     7     9    1
    35     8    13    1
    36     9    10    1
    37     9    12    1
    38    10    11    1
    39    10     5    1
    40    12    14    1
    41     5     4    1
    42     4     1    1
    43     1     2    2
    44     1     3    1
    45     1    24    1
    46    24    25    1
    47    25    26    2
    48    25    27    1
@<TRIPOS>MOLECULE
UD1
 46 48 0 0 0
SMALL
GASTEIGER

@<TRIPOS>ATOM
      1 P          21.6026   72.1570   -6.0940 P.3     1  UNL1        0.2189
      2 O          21.1706   71.5630   -4.8098 O.2     1  UNL1       -0.5170
      3 O          20.6466   73.4001   -6.4589 O.3     1  UNL1       -0.4371
      4 O          21.5063   71.0477   -7.2571 O.3     1  UNL1       -0.3112
      5 C          20.4934   71.4858   -8.1640 C.3     1  UNL1        0.1811
      6 C          17.4221   70.1062   -6.9028 C.3     1  UNL1        0.2383
      7 C          16.9775   71.0988   -8.0061 C.3     1  UNL1        0.1895
      8 O          15.7683   70.6633   -8.6284 O.3     1  UNL1       -0.3779
      9 C          18.1660   71.0343   -9.0003 C.3     1  UNL1        0.1713
     10 C          19.3329   70.4896   -8.1540 C.3     1  UNL1        0.1764
     11 O          18.8469   70.3186   -6.8117 O.3     1  UNL1       -0.3308
     12 O          17.8668   70.1479  -10.0808 O.3     1  UNL1       -0.3794
     13 H          15.5468   71.3216   -9.3016 H       1  UNL1        0.2106
     14 H          17.0940   70.5108  -10.5339 H       1  UNL1        0.2105
     15 N          16.7712   70.4187   -5.6300 N.ar    1  UNL1       -0.2551
     16 C          16.4351   69.4232   -4.7913 C.ar    1  UNL1        0.3323
     17 N          15.8390   69.6816   -3.6123 N.ar    1  UNL1       -0.2743
     18 C          15.5596   70.9516   -3.2561 C.ar    1  UNL1        0.2626
     19 C          15.9026   72.0089   -4.1321 C.ar    1  UNL1        0.0795
     20 C          16.5046   71.7218   -5.3062 C.ar    1  UNL1        0.0869
     21 O          16.6805   68.2725   -5.0985 O.2     1  UNL1       -0.2464
     22 O          15.0164   71.1861   -2.1925 O.2     1  UNL1       -0.2670
     23 H          15.6078   68.9515   -3.0175 H       1  UNL1        0.1734
     24 O          23.1229   72.6678   -5.9645 O.3     1  UNL1       -0.2703
     25 P          23.3047   73.2099   -4.4604 P.3     1  UNL1        0.2208
     26 O          24.0276   72.2001   -3.6563 O.2     1  UNL1       -0.5170
     27 O          21.8577   73.4789   -3.8076 O.3     1  UNL1       -0.4371
     28 O          24.1460   74.5818   -4.4810 O.3     1  UNL1       -0.2865
     29 C          25.1165   74.4886   -3.4368 C.3     1  UNL1        0.2611
     30 C          24.8279   75.5584   -2.3821 C.3     1  UNL1        0.1582
     31 C          24.8759   76.9403   -3.0437 C.3     1  UNL1        0.1625
     32 C          26.2154   77.0883   -3.7730 C.3     1  UNL1        0.1686
     33 C          26.3979   75.9045   -4.7251 C.3     1  UNL1        0.1760
     34 O          24.7566   77.9542   -2.0440 O.3     1  UNL1       -0.3801
     35 O          26.2220   78.3078   -4.5176 O.3     1  UNL1       -0.3794
     36 O          26.4193   74.6866   -3.9816 O.3     1  UNL1       -0.3263
     37 H          24.7912   78.8046   -2.5032 H       1  UNL1        0.2105
     38 H          27.0808   78.3604   -4.9606 H       1  UNL1        0.2105
     39 C          23.3581   74.5623   -0.7143 C.2     1  UNL1        0.2231
     40 C          21.9901   74.3322   -0.1245 C.3     1  UNL1        0.0946
     41 N          23.4993   75.3350   -1.8085 N.am    1  UNL1       -0.2994
     42 O          24.3321   74.0511   -0.2042 O.2     1  UNL1       -0.2751
     43 H          22.7200   75.7440   -2.2171 H       1  UNL1        0.1496
     44 C          27.7183   76.0596   -5.4826 C.3     1  UNL1        0.1693
     45 O          28.4155   74.8122   -5.4857 O.3     1  UNL1       -0.3794
     46 H          29.2395   74.9535   -5.9713 H       1  UNL1        0.2105
@<TRIPOS>BOND
     1    29    30    1
     2    29    28    1
     3    29    36    1
     4    30    31    1
     5    30    41    1
     6    31    32    1
     7    31    34    1
     8    32    33    1
     9    32    35    1
    10    33    44    1
    11    33    36    1
    12    44    45    1
    13    39    40    1
    14    39    41   am
    15    39    42    2
    16    41    43    1
    17    28    25    1
    18    34    37    1
    19    35    38    1
    20    45    46    1
    21    15    16   ar
    22    15    20   ar
    23    15     6    1
    24    16    17   ar
    25    16    21    2
    26    17    18   ar
    27    17    23    1
    28    18    19   ar
    29    18    22    2
    30    19    20   ar
    31     6     7    1
    32     6    11    1
    33     7     8    1
    34     7     9    1
    35     8    13    1
    36     9    10    1
    37     9    12    1
    38    10    11    1
    39    10     5    1
    40    12    14    1
    41     5     4    1
    42     4     1    1
    43     1     2    2
    44     1     3    1
    45     1    24    1
    46    24    25    1
    47    25    26    2
    48    25    27    1
@<TRIPOS>MOLECULE
UD1
 46 48 0 0 0
SMALL
GASTEIGER

@<TRIPOS>ATOM
      1 P          22.6776   71.5815   -2.5145 P.3     1  UNL1        0.2189
      2 O          23.9087   71.3020   -3.2858 O.2     1  UNL1       -0.5170
      3 O          22.5160   73.1716   -2.3193 O.3     1  UNL1       -0.4371
      4 O          22.7758   70.8720   -1.0724 O.3     1  UNL1       -0.3112
      5 C          21.4715   70.9298   -0.4930 C.3     1  UNL1        0.1811
      6 C          23.2393   71.9464    2.4682 C.3     1  UNL1        0.2383
      7 C          22.6573   73.2618    1.8927 C.3     1  UNL1        0.1895
      8 O          22.3703   74.1933    2.9363 O.3     1  UNL1       -0.3779
      9 C          21.3518   72.7710    1.2145 C.3     1  UNL1        0.1713
     10 C          21.5876   71.2641    0.9950 C.3     1  UNL1        0.1764
     11 O          22.9143   70.9645    1.4613 O.3     1  UNL1       -0.3308
     12 O          20.2298   72.9886    2.0727 O.3     1  UNL1       -0.3794
     13 H          22.0133   74.9866    2.5134 H       1  UNL1        0.2106
     14 H          20.1715   73.9420    2.2198 H       1  UNL1        0.2105
     15 N          24.6890   72.0505    2.6386 N.ar    1  UNL1       -0.2551
     16 C          25.4587   70.9599    2.4789 C.ar    1  UNL1        0.3323
     17 N          26.7952   71.0273    2.6257 N.ar    1  UNL1       -0.2743
     18 C          27.3855   72.1963    2.9464 C.ar    1  UNL1        0.2626
     19 C          26.5865   73.3509    3.1233 C.ar    1  UNL1        0.0795
     20 C          25.2489   73.2563    2.9648 C.ar    1  UNL1        0.0869
     21 O          24.9411   69.8984    2.1895 O.2     1  UNL1       -0.2464
     22 O          28.5933   72.2573    3.0840 O.2     1  UNL1       -0.2670
     23 H          27.3355   70.2317    2.5021 H       1  UNL1        0.1734
     24 O          21.4033   71.0052   -3.3102 O.3     1  UNL1       -0.2703
     25 P          21.0279   72.0919   -4.4360 P.3     1  UNL1        0.2208
     26 O          21.9070   71.9077   -5.6117 O.2     1  UNL1       -0.5170
     27 O          21.2318   73.5742   -3.8414 O.3     1  UNL1       -0.4371
     28 O          19.4925   71.8994   -4.8787 O.3     1  UNL1       -0.2865
     29 C          19.2962   70.5011   -5.0967 C.3     1  UNL1        0.2611
     30 C          18.2969   70.3033   -6.2378 C.3     1  UNL1        0.1582
     31 C          16.9741   70.9845   -5.8695 C.3     1  UNL1        0.1625
     32 C          16.5166   70.4606   -4.5040 C.3     1  UNL1        0.1686
     33 C          17.6494   70.6495   -3.4928 C.3     1  UNL1        0.1760
     34 O          15.9877   70.6808   -6.8575 O.3     1  UNL1       -0.3801
     35 O          15.3644   71.1883   -4.0746 O.3     1  UNL1       -0.3794
     36 O          18.7930   69.9018   -3.9047 O.3     1  UNL1       -0.3263
     37 H          15.1742   71.1284   -6.5870 H       1  UNL1        0.2105
     38 H          15.1110   70.8278   -3.2130 H       1  UNL1        0.2105
     39 C          18.6757   70.2662   -8.6440 C.2     1  UNL1        0.2231
     40 C          19.2254   70.8792   -9.9066 C.3     1  UNL1        0.0946
     41 N          18.8303   70.8986   -7.4648 N.am    1  UNL1       -0.2994
     42 O          18.0947   69.2030   -8.6893 O.2     1  UNL1       -0.2751
     43 H          19.2955   71.7494   -7.4282 H       1  UNL1        0.1496
     44 C          17.1909   70.1590   -2.1179 C.3     1  UNL1        0.1693
     45 O          16.4346   68.9560   -2.2686 O.3     1  UNL1       -0.3794
     46 H          16.1655   68.6816   -1.3815 H       1  UNL1        0.2105
@<TRIPOS>BOND
     1    29    30    1
     2    29    28    1
     3    29    36    1
     4    30    31    1
     5    30    41    1
     6    31    32    1
     7    31    34    1
     8    32    33    1
     9    32    35    1
    10    33    44    1
    11    33    36    1
    12    44    45    1
    13    39    40    1
    14    39    41   am
    15    39    42    2
    16    41    43    1
    17    28    25    1
    18    34    37    1
    19    35    38    1
    20    45    46    1
    21    15    16   ar
    22    15    20   ar
    23    15     6    1
    24    16    17   ar
    25    16    21    2
    26    17    18   ar
    27    17    23    1
    28    18    19   ar
    29    18    22    2
    30    19    20   ar
    31     6     7    1
    32     6    11    1
    33     7     8    1
    34     7     9    1
    35     8    13    1
    36     9    10    1
    37     9    12    1
    38    10    11    1
    39    10     5    1
    40    12    14    1
    41     5     4    1
    42     4     1    1
    43     1     2    2
    44     1     3    1
    45     1    24    1
    46    24    25    1
    47    25    26    2
    48    25    27    1
@<TRIPOS>MOLECULE
UD1
 46 48 0 0 0
SMALL
GASTEIGER

@<TRIPOS>ATOM
      1 P          21.6072   72.1469   -5.9399 P.3     1  UNL1        0.2189
      2 O          21.2026   71.5132   -4.6657 O.2     1  UNL1       -0.5170
      3 O          20.6073   73.3636   -6.2754 O.3     1  UNL1       -0.4371
      4 O          21.5424   71.0581   -7.1244 O.3     1  UNL1       -0.3112
      5 C          20.5617   71.5176   -8.0558 C.3     1  UNL1        0.1811
      6 C          17.4450   70.1714   -6.8721 C.3     1  UNL1        0.2383
      7 C          17.0376   71.1875   -7.9683 C.3     1  UNL1        0.1895
      8 O          15.8331   70.7816   -8.6193 O.3     1  UNL1       -0.3779
      9 C          18.2431   71.1176   -8.9414 C.3     1  UNL1        0.1713
     10 C          19.3849   70.5411   -8.0820 C.3     1  UNL1        0.1764
     11 O          18.8712   70.3585   -6.7516 O.3     1  UNL1       -0.3308
     12 O          17.9495   70.2524  -10.0405 O.3     1  UNL1       -0.3794
     13 H          15.6351   71.4533   -9.2865 H       1  UNL1        0.2106
     14 H          17.1915   70.6348  -10.5021 H       1  UNL1        0.2105
     15 N          16.7757   70.4761   -5.6069 N.ar    1  UNL1       -0.2551
     16 C          16.4359   69.4760   -4.7752 C.ar    1  UNL1        0.3323
     17 N          15.8230   69.7272   -3.6032 N.ar    1  UNL1       -0.2743
     18 C          15.5303   70.9943   -3.2474 C.ar    1  UNL1        0.2626
     19 C          15.8771   72.0562   -4.1163 C.ar    1  UNL1        0.0795
     20 C          16.4960   71.7764   -5.2833 C.ar    1  UNL1        0.0869
     21 O          16.6932   68.3279   -5.0821 O.2     1  UNL1       -0.2464
     22 O          14.9719   71.2222   -2.1902 O.2     1  UNL1       -0.2670
     23 H          15.5893   68.9940   -3.0134 H       1  UNL1        0.1734
     24 O          23.1098   72.7068   -5.8075 O.3     1  UNL1       -0.2703
     25 P          23.3935   72.9099   -4.2366 P.3     1  UNL1        0.2208
     26 O          24.4448   73.9346   -4.0538 O.2     1  UNL1       -0.5170
     27 O          23.8850   71.5175   -3.5949 O.3     1  UNL1       -0.4371
     28 O          22.0433   73.3898   -3.5038 O.3     1  UNL1       -0.2865
     29 C          22.3540   74.6024   -2.8150 C.3     1  UNL1        0.2611
     30 C          21.9170   74.4796   -1.3542 C.3     1  UNL1        0.1582
     31 C          20.4109   74.1992   -1.3034 C.3     1  UNL1        0.1625
     32 C          19.6839   75.2781   -2.1131 C.3     1  UNL1        0.1686
     33 C          20.2874   75.3384   -3.5178 C.3     1  UNL1        0.1760
     34 O          19.9634   74.2308    0.0531 O.3     1  UNL1       -0.3801
     35 O          18.2950   74.9545   -2.2016 O.3     1  UNL1       -0.3794
     36 O          21.6684   75.6884   -3.4346 O.3     1  UNL1       -0.3263
     37 H          19.0135   74.0496    0.0382 H       1  UNL1        0.2105
     38 H          17.8764   75.6574   -2.7186 H       1  UNL1        0.2105
     39 C          22.0988   72.1477   -0.6737 C.2     1  UNL1        0.2231
     40 C          22.8460   71.0153   -0.0168 C.3     1  UNL1        0.0946
     41 N          22.6427   73.3791   -0.7166 N.am    1  UNL1       -0.2994
     42 O          21.0072   71.9504   -1.1634 O.2     1  UNL1       -0.2751
     43 H          23.5162   73.5373   -0.3246 H       1  UNL1        0.1496
     44 C          19.5464   76.3909   -4.3451 C.3     1  UNL1        0.1693
     45 O          19.1570   75.8249   -5.5982 O.3     1  UNL1       -0.3794
     46 H          18.6949   76.5190   -6.0872 H       1  UNL1        0.2105
@<TRIPOS>BOND
     1    29    30    1
     2    29    28    1
     3    29    36    1
     4    30    31    1
     5    30    41    1
     6    31    32    1
     7    31    34    1
     8    32    33    1
     9    32    35    1
    10    33    44    1
    11    33    36    1
    12    44    45    1
    13    39    40    1
    14    39    41   am
    15    39    42    2
    16    41    43    1
    17    28    25    1
    18    34    37    1
    19    35    38    1
    20    45    46    1
    21    15    16   ar
    22    15    20   ar
    23    15     6    1
    24    16    17   ar
    25    16    21    2
    26    17    18   ar
    27    17    23    1
    28    18    19   ar
    29    18    22    2
    30    19    20   ar
    31     6     7    1
    32     6    11    1
    33     7     8    1
    34     7     9    1
    35     8    13    1
    36     9    10    1
    37     9    12    1
    38    10    11    1
    39    10     5    1
    40    12    14    1
    41     5     4    1
    42     4     1    1
    43     1     2    2
    44     1     3    1
    45     1    24    1
    46    24    25    1
    47    25    26    2
    48    25    27    1
@<TRIPOS>MOLECULE
UD1
 46 48 0 0 0
SMALL
GASTEIGER

@<TRIPOS>ATOM
      1 P          23.4471   72.3203   -3.1704 P.3     1  UNL1        0.2189
      2 O          24.4031   73.2716   -3.7785 O.2     1  UNL1       -0.5170
      3 O          24.0973   70.8474   -3.1465 O.3     1  UNL1       -0.4371
      4 O          22.0916   72.2934   -4.0392 O.3     1  UNL1       -0.3112
      5 C          22.4755   72.4202   -5.4091 C.3     1  UNL1        0.1811
      6 C          19.4289   70.6528   -6.1315 C.3     1  UNL1        0.2383
      7 C          19.2079   72.0664   -6.7258 C.3     1  UNL1        0.1895
      8 O          18.3509   72.0129   -7.8668 O.3     1  UNL1       -0.3779
      9 C          20.6468   72.4770   -7.1333 C.3     1  UNL1        0.1713
     10 C          21.5516   71.5673   -6.2798 C.3     1  UNL1        0.1764
     11 O          20.6942   70.7687   -5.4465 O.3     1  UNL1       -0.3308
     12 O          20.8593   72.2394   -8.5265 O.3     1  UNL1       -0.3794
     13 H          18.2538   72.9203   -8.1871 H       1  UNL1        0.2106
     14 H          20.2252   72.7911   -9.0037 H       1  UNL1        0.2105
     15 N          18.3616   70.3125   -5.1900 N.ar    1  UNL1       -0.2551
     16 C          17.2324   69.7394   -5.6417 C.ar    1  UNL1        0.3323
     17 N          16.2358   69.4120   -4.7980 N.ar    1  UNL1       -0.2743
     18 C          16.3521   69.6642   -3.4786 C.ar    1  UNL1        0.2626
     19 C          17.5330   70.2726   -2.9904 C.ar    1  UNL1        0.0795
     20 C          18.5192   70.5857   -3.8580 C.ar    1  UNL1        0.0869
     21 O          17.1127   69.5055   -6.8289 O.2     1  UNL1       -0.2464
     22 O          15.4497   69.3730   -2.7155 O.2     1  UNL1       -0.2670
     23 H          15.4303   68.9949   -5.1404 H       1  UNL1        0.1734
     24 O          23.1114   72.7842   -1.6667 O.3     1  UNL1       -0.2703
     25 P          21.6682   72.1725   -1.3028 P.3     1  UNL1        0.2208
     26 O          21.5872   70.7774   -1.7886 O.2     1  UNL1       -0.5170
     27 O          20.5184   73.0527   -2.0066 O.3     1  UNL1       -0.4371
     28 O          21.4602   72.1978    0.2930 O.3     1  UNL1       -0.2865
     29 C          22.0598   73.4036    0.7701 C.3     1  UNL1        0.2611
     30 C          22.7308   73.1349    2.1183 C.3     1  UNL1        0.1582
     31 C          21.6783   72.6252    3.1092 C.3     1  UNL1        0.1625
     32 C          20.5163   73.6234    3.1467 C.3     1  UNL1        0.1686
     33 C          20.0103   73.8529    1.7209 C.3     1  UNL1        0.1760
     34 O          22.2596   72.5130    4.4096 O.3     1  UNL1       -0.3801
     35 O          19.4595   73.0967    3.9513 O.3     1  UNL1       -0.3794
     36 O          21.0557   74.4047    0.9214 O.3     1  UNL1       -0.3263
     37 H          21.5645   72.1898    4.9994 H       1  UNL1        0.2105
     38 H          18.7500   73.7548    3.9470 H       1  UNL1        0.2105
     39 C          24.9679   72.2795    2.5633 C.2     1  UNL1        0.2231
     40 C          26.0455   71.2396    2.3911 C.3     1  UNL1        0.0946
     41 N          23.7778   72.1247    1.9518 N.am    1  UNL1       -0.2994
     42 O          25.1724   73.2563    3.2519 O.2     1  UNL1       -0.2751
     43 H          23.6139   71.3432    1.4005 H       1  UNL1        0.1496
     44 C          18.8281   74.8238    1.7507 C.3     1  UNL1        0.1693
     45 O          19.0378   75.7990    2.7741 O.3     1  UNL1       -0.3794
     46 H          18.2722   76.3892    2.7593 H       1  UNL1        0.2105
@<TRIPOS>BOND
     1    29    30    1
     2    29    28    1
     3    29    36    1
     4    30    31    1
     5    30    41    1
     6    31    32    1
     7    31    34    1
     8    32    33    1
     9    32    35    1
    10    33    44    1
    11    33    36    1
    12    44    45    1
    13    39    40    1
    14    39    41   am
    15    39    42    2
    16    41    43    1
    17    28    25    1
    18    34    37    1
    19    35    38    1
    20    45    46    1
    21    15    16   ar
    22    15    20   ar
    23    15     6    1
    24    16    17   ar
    25    16    21    2
    26    17    18   ar
    27    17    23    1
    28    18    19   ar
    29    18    22    2
    30    19    20   ar
    31     6     7    1
    32     6    11    1
    33     7     8    1
    34     7     9    1
    35     8    13    1
    36     9    10    1
    37     9    12    1
    38    10    11    1
    39    10     5    1
    40    12    14    1
    41     5     4    1
    42     4     1    1
    43     1     2    2
    44     1     3    1
    45     1    24    1
    46    24    25    1
    47    25    26    2
    48    25    27    1
@<TRIPOS>MOLECULE
UD1
 46 48 0 0 0
SMALL
GASTEIGER

@<TRIPOS>ATOM
      1 P          22.7323   72.3641   -3.8131 P.3     1  UNL1        0.2189
      2 O          24.1497   72.4399   -4.2300 O.2     1  UNL1       -0.5170
      3 O          22.1915   73.8432   -3.4779 O.3     1  UNL1       -0.4371
      4 O          22.6080   71.4383   -2.5015 O.3     1  UNL1       -0.3112
      5 C          22.9956   72.2444   -1.3877 C.3     1  UNL1        0.1811
      6 C          24.5018   71.5202    1.7957 C.3     1  UNL1        0.2383
      7 C          23.0558   71.9566    2.1407 C.3     1  UNL1        0.1895
      8 O          22.5909   71.2987    3.3198 O.3     1  UNL1       -0.3779
      9 C          22.2659   71.4810    0.8937 C.3     1  UNL1        0.1713
     10 C          23.3416   71.3437   -0.2010 C.3     1  UNL1        0.1764
     11 O          24.5944   71.7525    0.3740 O.3     1  UNL1       -0.3308
     12 O          21.6389   70.2222    1.1487 O.3     1  UNL1       -0.3794
     13 H          21.6901   71.6127    3.4791 H       1  UNL1        0.2106
     14 H          21.0227   70.3603    1.8804 H       1  UNL1        0.2105
     15 N          25.4773   72.3384    2.5170 N.ar    1  UNL1       -0.2551
     16 C          26.7142   71.8602    2.7383 C.ar    1  UNL1        0.3323
     17 N          27.6330   72.5924    3.3955 N.ar    1  UNL1       -0.2743
     18 C          27.3215   73.8217    3.8533 C.ar    1  UNL1        0.2626
     19 C          26.0212   74.3349    3.6326 C.ar    1  UNL1        0.0795
     20 C          25.1207   73.5815    2.9657 C.ar    1  UNL1        0.0869
     21 O          27.0102   70.7532    2.3315 O.2     1  UNL1       -0.2464
     22 O          28.1500   74.4826    4.4519 O.2     1  UNL1       -0.2670
     23 H          28.5218   72.2337    3.5421 H       1  UNL1        0.1734
     24 O          21.8560   71.7283   -5.0034 O.3     1  UNL1       -0.2703
     25 P          20.5600   71.0614   -4.3215 P.3     1  UNL1        0.2208
     26 O          19.8729   72.0664   -3.4809 O.2     1  UNL1       -0.5170
     27 O          21.0146   69.8175   -3.4060 O.3     1  UNL1       -0.4371
     28 O          19.5556   70.5436   -5.4676 O.3     1  UNL1       -0.2865
     29 C          18.8788   71.6943   -5.9765 C.3     1  UNL1        0.2611
     30 C          17.3776   71.4084   -6.0445 C.3     1  UNL1        0.1582
     31 C          17.1389   70.1954   -6.9507 C.3     1  UNL1        0.1625
     32 C          17.8156   70.4519   -8.3014 C.3     1  UNL1        0.1686
     33 C          19.2847   70.8071   -8.0633 C.3     1  UNL1        0.1760
     34 O          15.7353   70.0095   -7.1422 O.3     1  UNL1       -0.3801
     35 O          17.7314   69.2763   -9.1090 O.3     1  UNL1       -0.3794
     36 O          19.3724   71.9966   -7.2798 O.3     1  UNL1       -0.3263
     37 H          15.6313   69.2382   -7.7162 H       1  UNL1        0.2105
     38 H          18.1691   69.4810   -9.9475 H       1  UNL1        0.2105
     39 C          16.7697   69.8499   -4.2736 C.2     1  UNL1        0.2231
     40 C          16.2486   69.5571   -2.8898 C.3     1  UNL1        0.0946
     41 N          16.8719   71.1234   -4.7001 N.am    1  UNL1       -0.2994
     42 O          17.0967   68.9387   -5.0037 O.2     1  UNL1       -0.2751
     43 H          16.6101   71.8528   -4.1161 H       1  UNL1        0.1496
     44 C          19.9779   71.0335   -9.4085 C.3     1  UNL1        0.1693
     45 O          18.9945   71.2748  -10.4168 O.3     1  UNL1       -0.3794
     46 H          19.4719   71.4117  -11.2462 H       1  UNL1        0.2105
@<TRIPOS>BOND
     1    29    30    1
     2    29    28    1
     3    29    36    1
     4    30    31    1
     5    30    41    1
     6    31    32    1
     7    31    34    1
     8    32    33    1
     9    32    35    1
    10    33    44    1
    11    33    36    1
    12    44    45    1
    13    39    40    1
    14    39    41   am
    15    39    42    2
    16    41    43    1
    17    28    25    1
    18    34    37    1
    19    35    38    1
    20    45    46    1
    21    15    16   ar
    22    15    20   ar
    23    15     6    1
    24    16    17   ar
    25    16    21    2
    26    17    18   ar
    27    17    23    1
    28    18    19   ar
    29    18    22    2
    30    19    20   ar
    31     6     7    1
    32     6    11    1
    33     7     8    1
    34     7     9    1
    35     8    13    1
    36     9    10    1
    37     9    12    1
    38    10    11    1
    39    10     5    1
    40    12    14    1
    41     5     4    1
    42     4     1    1
    43     1     2    2
    44     1     3    1
    45     1    24    1
    46    24    25    1
    47    25    26    2
    48    25    27    1
