# created with PyMOL 2.5.4
@<TRIPOS>MOLECULE
UDP-glaA
56 58 1                 
SMALL
USER_CHARGES
@<TRIPOS>ATOM
1	   P	0.135	3.871	-0.683	P.3	1	UNK0	0.000	
2	   P	2.487	2.189	-1.227	P.3	1	UNK0	0.000	
3	   O	-3.381	1.416	-0.160	O.3	1	UNK0	0.000	
4	   O	1.635	-0.681	0.805	O.3	1	UNK0	0.000	
5	   O	-4.701	1.551	2.529	O.3	1	UNK0	0.000	
6	   O	-3.748	-1.003	2.461	O.3	1	UNK0	0.000	
7	   O	-1.356	3.359	-0.322	O.3	1	UNK0	0.000	
8	   O	2.781	0.672	-0.762	O.3	1	UNK0	0.000	
9	   O	5.549	-2.027	1.190	O.3	1	UNK0	0.000	
10	   O	4.983	0.819	0.897	O.3	1	UNK0	0.000	
11	   O	3.063	-2.799	2.114	O.3	1	UNK0	0.000	
12	   O	0.999	2.504	-0.680	O.3	1	UNK0	0.000	
13	   O	0.946	-4.013	-0.182	O.co2	1	UNK0	0.000	
14	   O	-4.482	-2.537	-0.389	O.2	1	UNK0	0.000	
15	   O	0.629	4.615	0.666	O.co2	1	UNK0	0.000	
16	   O	-0.197	-2.520	1.107	O.co2	1	UNK0	0.000	
17	   O	3.431	3.098	-0.279	O.co2	1	UNK0	0.000	
18	   O	0.259	4.686	-1.937	O.co2	1	UNK0	0.000	
19	   O	2.667	2.433	-2.698	O.co2	1	UNK0	0.000	
20	   O	-0.873	-3.261	-3.162	O.2	1	UNK0	0.000	
21	   N	-2.908	-0.827	-0.621	N.2	1	UNK0	0.000	
22	   N	-2.684	-2.896	-1.769	N.2	1	UNK0	0.000	
23	   C	-3.321	1.377	2.208	C.3	1	UNK0	0.000	
24	   C	-3.074	-0.026	1.695	C.3	1	UNK0	0.000	
25	   C	-3.014	2.224	0.980	C.3	1	UNK0	0.000	
26	   C	-3.596	0.062	0.271	C.3	1	UNK0	0.000	
27	   C	4.383	-1.511	0.554	C.3	1	UNK0	0.000	
28	   C	-1.541	2.585	0.851	C.3	1	UNK0	0.000	
29	   C	3.990	-0.164	1.170	C.3	1	UNK0	0.000	
30	   C	3.241	-2.517	0.722	C.3	1	UNK0	0.000	
31	   C	2.644	0.316	0.613	C.3	1	UNK0	0.000	
32	   C	1.947	-1.921	0.172	C.3	1	UNK0	0.000	
33	   C	-3.437	-2.112	-0.885	C.2	1	UNK0	0.000	
34	   C	-1.722	-0.423	-1.224	C.2	1	UNK0	0.000	
35	   C	0.778	-2.817	0.432	C.2	1	UNK0	0.000	
36	   C	-1.016	-1.182	-2.065	C.2	1	UNK0	0.000	
37	   C	-1.499	-2.538	-2.393	C.2	1	UNK0	0.000	
38	   H	-2.733	1.626	3.096	 H	1	UNK0	0.000	
39	   H	-2.001	-0.251	1.713	 H	1	UNK0	0.000	
40	   H	-3.626	3.131	0.931	 H	1	UNK0	0.000	
41	   H	-4.673	-0.140	0.230	 H	1	UNK0	0.000	
42	   H	4.628	-1.377	-0.506	 H	1	UNK0	0.000	
43	   H	3.934	-0.268	2.260	 H	1	UNK0	0.000	
44	   H	3.495	-3.467	0.238	 H	1	UNK0	0.000	
45	   H	-0.903	1.699	0.807	 H	1	UNK0	0.000	
46	   H	-1.245	3.177	1.722	 H	1	UNK0	0.000	
47	   H	2.326	1.197	1.180	 H	1	UNK0	0.000	
48	   H	2.008	-1.759	-0.911	 H	1	UNK0	0.000	
49	   H	-4.818	2.473	2.815	 H	1	UNK0	0.000	
50	   H	-3.437	-0.921	3.379	 H	1	UNK0	0.000	
51	   H	-1.350	0.565	-0.998	 H	1	UNK0	0.000	
52	   H	5.759	-2.879	0.771	 H	1	UNK0	0.000	
53	   H	4.687	1.654	1.297	 H	1	UNK0	0.000	
54	   H	2.639	-2.031	2.533	 H	1	UNK0	0.000	
55	   H	-3.045	-3.824	-1.973	 H	1	UNK0	0.000	
56	   H	-0.094	-0.834	-2.515	 H	1	UNK0	0.000	
@<TRIPOS>BOND
1 1 7 1
2 1 12 1
3 1 15 1
4 1 18 2
5 2 8 1
6 2 12 1
7 2 17 1
8 2 19 2
9 3 25 1
10 3 26 1
11 4 31 1
12 4 32 1
13 5 23 1
14 5 49 1
15 6 24 1
16 6 50 1
17 7 28 1
18 8 31 1
19 9 27 1
20 9 52 1
21 10 29 1
22 10 53 1
23 11 30 1
24 11 54 1
25 13 35 ar
26 14 33 2
27 16 35 ar
28 20 37 2
29 21 26 1
30 21 33 ar
31 21 34 ar
32 22 33 ar
33 22 37 ar
34 22 55 1
35 23 24 1
36 23 25 1
37 23 38 1
38 24 26 1
39 24 39 1
40 25 28 1
41 25 40 1
42 26 41 1
43 27 29 1
44 27 30 1
45 27 42 1
46 28 45 1
47 28 46 1
48 29 31 1
49 29 43 1
50 30 32 1
51 30 44 1
52 31 47 1
53 32 35 1
54 32 48 1
55 34 36 ar
56 34 51 1
57 36 37 ar
58 36 56 1
@<TRIPOS>SUBSTRUCTURE
1	UNK0	1	GROUP	1 ****	UNK
