@<TRIPOS>MOLECULE
UD1
 46 48 0 0 0
SMALL
GASTEIGER

@<TRIPOS>ATOM
      1 P          21.6265   70.7888   -2.5437 P.3     1  UNL1        0.2189
      2 O          23.0961   70.9328   -2.6337 O.2     1  UNL1       -0.5170
      3 O          21.2188   69.2574   -2.8287 O.3     1  UNL1       -0.4371
      4 O          20.9264   71.7417   -3.6367 O.3     1  UNL1       -0.3112
      5 C          19.8655   72.4270   -2.9695 C.3     1  UNL1        0.1811
      6 C          17.8770   71.3237   -5.7544 C.3     1  UNL1        0.2383
      7 C          17.9554   70.0901   -4.8205 C.3     1  UNL1        0.1895
      8 O          16.7773   69.2905   -4.9301 O.3     1  UNL1       -0.3779
      9 C          18.0493   70.7479   -3.4193 C.3     1  UNL1        0.1713
     10 C          18.5504   72.1760   -3.7090 C.3     1  UNL1        0.1764
     11 O          18.7600   72.2782   -5.1277 O.3     1  UNL1       -0.3308
     12 O          16.7646   70.7788   -2.7938 O.3     1  UNL1       -0.3794
     13 H          16.8893   68.5426   -4.3271 H       1  UNL1        0.2106
     14 H          16.4803   69.8605   -2.6944 H       1  UNL1        0.2105
     15 N          18.3493   70.9886   -7.0983 N.ar    1  UNL1       -0.2551
     16 C          17.4644   70.6349   -8.0466 C.ar    1  UNL1        0.3323
     17 N          17.8701   70.3253   -9.2924 N.ar    1  UNL1       -0.2743
     18 C          19.1807   70.3567   -9.6077 C.ar    1  UNL1        0.2626
     19 C          20.1235   70.7216   -8.6173 C.ar    1  UNL1        0.0795
     20 C          19.6887   71.0325   -7.3773 C.ar    1  UNL1        0.0869
     21 O          16.2790   70.6020   -7.7776 O.2     1  UNL1       -0.2464
     22 O          19.5490   70.0724  -10.7323 O.2     1  UNL1       -0.2670
     23 H          17.2176   70.0769   -9.9652 H       1  UNL1        0.1734
     24 O          21.1351   71.2108   -1.0708 O.3     1  UNL1       -0.2703
     25 P          22.2804   70.7363   -0.0449 P.3     1  UNL1        0.2208
     26 O          23.4577   70.2619   -0.8051 O.2     1  UNL1       -0.5170
     27 O          21.7174   69.5394    0.8730 O.3     1  UNL1       -0.4371
     28 O          22.7093   71.9729    0.8918 O.3     1  UNL1       -0.2865
     29 C          21.5203   72.7148    1.1691 C.3     1  UNL1        0.2611
     30 C          21.7181   74.1675    0.7327 C.3     1  UNL1        0.1582
     31 C          22.9136   74.7593    1.4879 C.3     1  UNL1        0.1625
     32 C          22.6946   74.5539    2.9905 C.3     1  UNL1        0.1686
     33 C          22.4260   73.0712    3.2569 C.3     1  UNL1        0.1760
     34 O          23.0170   76.1554    1.2021 O.3     1  UNL1       -0.3801
     35 O          23.8619   74.9654    3.7043 O.3     1  UNL1       -0.3794
     36 O          21.2450   72.6637    2.5673 O.3     1  UNL1       -0.3263
     37 H          23.7800   76.4859    1.6960 H       1  UNL1        0.2105
     38 H          23.6816   74.8187    4.6437 H       1  UNL1        0.2105
     39 C          23.2410   74.2707   -1.1658 C.2     1  UNL1        0.2231
     40 C          23.5052   74.3207   -2.6491 C.3     1  UNL1        0.0946
     41 N          21.9754   74.2156   -0.7080 N.am    1  UNL1       -0.2994
     42 O          24.1678   74.2807   -0.3842 O.2     1  UNL1       -0.2751
     43 H          21.2335   74.2077   -1.3334 H       1  UNL1        0.1496
     44 C          22.2380   72.8501    4.7592 C.3     1  UNL1        0.1693
     45 O          20.8493   72.9390    5.0840 O.3     1  UNL1       -0.3794
     46 H          20.7750   72.7945    6.0371 H       1  UNL1        0.2105
@<TRIPOS>BOND
     1    29    30    1
     2    29    28    1
     3    29    36    1
     4    30    31    1
     5    30    41    1
     6    31    32    1
     7    31    34    1
     8    32    33    1
     9    32    35    1
    10    33    44    1
    11    33    36    1
    12    44    45    1
    13    39    40    1
    14    39    41   am
    15    39    42    2
    16    41    43    1
    17    28    25    1
    18    34    37    1
    19    35    38    1
    20    45    46    1
    21    15    16   ar
    22    15    20   ar
    23    15     6    1
    24    16    17   ar
    25    16    21    2
    26    17    18   ar
    27    17    23    1
    28    18    19   ar
    29    18    22    2
    30    19    20   ar
    31     6     7    1
    32     6    11    1
    33     7     8    1
    34     7     9    1
    35     8    13    1
    36     9    10    1
    37     9    12    1
    38    10    11    1
    39    10     5    1
    40    12    14    1
    41     5     4    1
    42     4     1    1
    43     1     2    2
    44     1     3    1
    45     1    24    1
    46    24    25    1
    47    25    26    2
    48    25    27    1
@<TRIPOS>MOLECULE
UD1
 46 48 0 0 0
SMALL
GASTEIGER

@<TRIPOS>ATOM
      1 P          21.9127   70.8115   -0.7324 P.3     1  UNL1        0.2189
      2 O          22.5901   70.1945   -1.8939 O.2     1  UNL1       -0.5170
      3 O          21.5857   69.6775    0.3629 O.3     1  UNL1       -0.4371
      4 O          20.5401   71.5005   -1.2162 O.3     1  UNL1       -0.3112
      5 C          20.6178   71.6250   -2.6370 C.3     1  UNL1        0.1811
      6 C          18.1666   71.2213   -5.2362 C.3     1  UNL1        0.2383
      7 C          18.1148   69.8910   -4.4438 C.3     1  UNL1        0.1895
      8 O          16.8034   69.3267   -4.4775 O.3     1  UNL1       -0.3779
      9 C          18.4822   70.3519   -3.0094 C.3     1  UNL1        0.1713
     10 C          19.2063   71.6954   -3.2218 C.3     1  UNL1        0.1764
     11 O          19.2752   71.9270   -4.6391 O.3     1  UNL1       -0.3308
     12 O          17.3018   70.5311   -2.2237 O.3     1  UNL1       -0.3794
     13 H          16.8390   68.5047   -3.9691 H       1  UNL1        0.2106
     14 H          16.8637   69.6708   -2.1776 H       1  UNL1        0.2105
     15 N          18.4185   70.9708   -6.6558 N.ar    1  UNL1       -0.2551
     16 C          17.3831   70.8331   -7.5021 C.ar    1  UNL1        0.3323
     17 N          17.5852   70.6060   -8.8135 N.ar    1  UNL1       -0.2743
     18 C          18.8385   70.5034   -9.3001 C.ar    1  UNL1        0.2626
     19 C          19.9376   70.6404   -8.4192 C.ar    1  UNL1        0.0795
     20 C          19.7064   70.8731   -7.1094 C.ar    1  UNL1        0.0869
     21 O          16.2469   70.9231   -7.0784 O.2     1  UNL1       -0.2464
     22 O          19.0223   70.2933  -10.4848 O.2     1  UNL1       -0.2670
     23 H          16.8267   70.5140   -9.4105 H       1  UNL1        0.1734
     24 O          22.8724   71.9269   -0.0815 O.3     1  UNL1       -0.2703
     25 P          21.9845   72.7372    0.9882 P.3     1  UNL1        0.2208
     26 O          20.9070   71.8615    1.4990 O.2     1  UNL1       -0.5170
     27 O          21.3348   74.0285    0.2791 O.3     1  UNL1       -0.4371
     28 O          22.9164   73.2109    2.2121 O.3     1  UNL1       -0.2865
     29 C          22.6009   74.5808    2.4672 C.3     1  UNL1        0.2611
     30 C          23.7145   75.2073    3.3082 C.3     1  UNL1        0.1582
     31 C          23.8485   74.4292    4.6220 C.3     1  UNL1        0.1625
     32 C          22.4750   74.3699    5.2989 C.3     1  UNL1        0.1686
     33 C          21.4554   73.8036    4.3084 C.3     1  UNL1        0.1760
     34 O          24.7799   75.0927    5.4787 O.3     1  UNL1       -0.3801
     35 O          22.5453   73.5258    6.4496 O.3     1  UNL1       -0.3794
     36 O          21.3626   74.6590    3.1700 O.3     1  UNL1       -0.3263
     37 H          24.8335   74.5705    6.2909 H       1  UNL1        0.2105
     38 H          21.6616   73.5161    6.8438 H       1  UNL1        0.2105
     39 C          25.8122   76.2045    2.5738 C.2     1  UNL1        0.2231
     40 C          27.1129   76.1418    1.8144 C.3     1  UNL1        0.0946
     41 N          24.9783   75.1468    2.5711 N.am    1  UNL1       -0.2994
     42 O          25.5159   77.2077    3.1870 O.2     1  UNL1       -0.2751
     43 H          25.2151   74.3439    2.0802 H       1  UNL1        0.1496
     44 C          20.0864   73.7098    4.9853 C.3     1  UNL1        0.1693
     45 O          20.1484   74.3251    6.2736 O.3     1  UNL1       -0.3794
     46 H          19.2682   74.2441    6.6650 H       1  UNL1        0.2105
@<TRIPOS>BOND
     1    29    30    1
     2    29    28    1
     3    29    36    1
     4    30    31    1
     5    30    41    1
     6    31    32    1
     7    31    34    1
     8    32    33    1
     9    32    35    1
    10    33    44    1
    11    33    36    1
    12    44    45    1
    13    39    40    1
    14    39    41   am
    15    39    42    2
    16    41    43    1
    17    28    25    1
    18    34    37    1
    19    35    38    1
    20    45    46    1
    21    15    16   ar
    22    15    20   ar
    23    15     6    1
    24    16    17   ar
    25    16    21    2
    26    17    18   ar
    27    17    23    1
    28    18    19   ar
    29    18    22    2
    30    19    20   ar
    31     6     7    1
    32     6    11    1
    33     7     8    1
    34     7     9    1
    35     8    13    1
    36     9    10    1
    37     9    12    1
    38    10    11    1
    39    10     5    1
    40    12    14    1
    41     5     4    1
    42     4     1    1
    43     1     2    2
    44     1     3    1
    45     1    24    1
    46    24    25    1
    47    25    26    2
    48    25    27    1
@<TRIPOS>MOLECULE
UD1
 46 48 0 0 0
SMALL
GASTEIGER

@<TRIPOS>ATOM
      1 P          22.7299   71.8249   -3.1334 P.3     1  UNL1        0.2189
      2 O          22.9457   70.3654   -3.2441 O.2     1  UNL1       -0.5170
      3 O          22.7420   72.2529   -1.5812 O.3     1  UNL1       -0.4371
      4 O          21.3072   72.2072   -3.7834 O.3     1  UNL1       -0.3112
      5 C          20.3321   72.0842   -2.7469 C.3     1  UNL1        0.1811
      6 C          18.0165   71.2912   -5.3805 C.3     1  UNL1        0.2383
      7 C          18.0908   70.0002   -4.5272 C.3     1  UNL1        0.1895
      8 O          16.8521   69.2907   -4.5647 O.3     1  UNL1       -0.3779
      9 C          18.3634   70.5631   -3.1081 C.3     1  UNL1        0.1713
     10 C          18.9388   71.9689   -3.3671 C.3     1  UNL1        0.1764
     11 O          19.0220   72.1433   -4.7919 O.3     1  UNL1       -0.3308
     12 O          17.1484   70.6430   -2.3596 O.3     1  UNL1       -0.3794
     13 H          16.9646   68.5014   -4.0171 H       1  UNL1        0.2106
     14 H          16.8079   69.7417   -2.2830 H       1  UNL1        0.2105
     15 N          18.3352   71.0077   -6.7803 N.ar    1  UNL1       -0.2551
     16 C          17.3483   70.6966   -7.6386 C.ar    1  UNL1        0.3323
     17 N          17.6119   70.4350   -8.9325 N.ar    1  UNL1       -0.2743
     18 C          18.8802   70.4723   -9.3887 C.ar    1  UNL1        0.2626
     19 C          19.9294   70.7925   -8.4946 C.ar    1  UNL1        0.0795
     20 C          19.6363   71.0558   -7.2030 C.ar    1  UNL1        0.0869
     21 O          16.1994   70.6590   -7.2423 O.2     1  UNL1       -0.2464
     22 O          19.1201   70.2312  -10.5573 O.2     1  UNL1       -0.2670
     23 H          16.8872   70.2170   -9.5387 H       1  UNL1        0.1734
     24 O          23.9027   72.6016   -3.9144 O.3     1  UNL1       -0.2703
     25 P          23.4611   74.1467   -3.9984 P.3     1  UNL1        0.2208
     26 O          24.6509   74.9860   -4.2609 O.2     1  UNL1       -0.5170
     27 O          22.7895   74.5902   -2.6040 O.3     1  UNL1       -0.4371
     28 O          22.3963   74.3378   -5.1901 O.3     1  UNL1       -0.2865
     29 C          22.7747   75.5193   -5.8986 C.3     1  UNL1        0.2611
     30 C          21.5891   76.4851   -5.9396 C.3     1  UNL1        0.1582
     31 C          20.4054   75.7968   -6.6286 C.3     1  UNL1        0.1625
     32 C          20.8685   75.2745   -7.9928 C.3     1  UNL1        0.1686
     33 C          22.1069   74.3974   -7.7964 C.3     1  UNL1        0.1760
     34 O          19.3432   76.7355   -6.8070 O.3     1  UNL1       -0.3801
     35 O          19.8241   74.5027   -8.5887 O.3     1  UNL1       -0.3794
     36 O          23.1611   75.1723   -7.2266 O.3     1  UNL1       -0.3263
     37 H          18.6214   76.2613   -7.2422 H       1  UNL1        0.2105
     38 H          20.1573   74.1935   -9.4430 H       1  UNL1        0.2105
     39 C          20.2093   76.2108   -3.9508 C.2     1  UNL1        0.2231
     40 C          19.8223   76.5949   -2.5455 C.3     1  UNL1        0.0946
     41 N          21.2131   76.8575   -4.5742 N.am    1  UNL1       -0.2994
     42 O          19.6166   75.3198   -4.5209 O.2     1  UNL1       -0.2751
     43 H          21.6874   77.5707   -4.1183 H       1  UNL1        0.1496
     44 C          22.5583   73.8442   -9.1497 C.3     1  UNL1        0.1693
     45 O          23.9857   73.7913   -9.1909 O.3     1  UNL1       -0.3794
     46 H          24.2277   73.4385  -10.0579 H       1  UNL1        0.2105
@<TRIPOS>BOND
     1    29    30    1
     2    29    28    1
     3    29    36    1
     4    30    31    1
     5    30    41    1
     6    31    32    1
     7    31    34    1
     8    32    33    1
     9    32    35    1
    10    33    44    1
    11    33    36    1
    12    44    45    1
    13    39    40    1
    14    39    41   am
    15    39    42    2
    16    41    43    1
    17    28    25    1
    18    34    37    1
    19    35    38    1
    20    45    46    1
    21    15    16   ar
    22    15    20   ar
    23    15     6    1
    24    16    17   ar
    25    16    21    2
    26    17    18   ar
    27    17    23    1
    28    18    19   ar
    29    18    22    2
    30    19    20   ar
    31     6     7    1
    32     6    11    1
    33     7     8    1
    34     7     9    1
    35     8    13    1
    36     9    10    1
    37     9    12    1
    38    10    11    1
    39    10     5    1
    40    12    14    1
    41     5     4    1
    42     4     1    1
    43     1     2    2
    44     1     3    1
    45     1    24    1
    46    24    25    1
    47    25    26    2
    48    25    27    1
@<TRIPOS>MOLECULE
UD1
 46 48 0 0 0
SMALL
GASTEIGER

@<TRIPOS>ATOM
      1 P          22.4628   71.5330   -2.5733 P.3     1  UNL1        0.2189
      2 O          23.4243   70.6746   -3.2997 O.2     1  UNL1       -0.5170
      3 O          22.0308   70.8120   -1.2000 O.3     1  UNL1       -0.4371
      4 O          21.1586   71.7695   -3.4875 O.3     1  UNL1       -0.3112
      5 C          20.1520   72.3216   -2.6376 C.3     1  UNL1        0.1811
      6 C          17.9310   71.3825   -5.3045 C.3     1  UNL1        0.2383
      7 C          18.0303   70.1159   -4.4179 C.3     1  UNL1        0.1895
      8 O          16.8189   69.3614   -4.4668 O.3     1  UNL1       -0.3779
      9 C          18.2480   70.7222   -3.0071 C.3     1  UNL1        0.1713
     10 C          18.7792   72.1412   -3.2874 C.3     1  UNL1        0.1764
     11 O          18.8909   72.2843   -4.7137 O.3     1  UNL1       -0.3308
     12 O          17.0131   70.7759   -2.2896 O.3     1  UNL1       -0.3794
     13 H          16.9461   68.5900   -3.8973 H       1  UNL1        0.2106
     14 H          16.7031   69.8650   -2.1987 H       1  UNL1        0.2105
     15 N          18.2937   71.0772   -6.6889 N.ar    1  UNL1       -0.2551
     16 C          17.3342   70.7530   -7.5731 C.ar    1  UNL1        0.3323
     17 N          17.6384   70.4713   -8.8538 N.ar    1  UNL1       -0.2743
     18 C          18.9205   70.5012   -9.2701 C.ar    1  UNL1        0.2626
     19 C          19.9412   70.8351   -8.3483 C.ar    1  UNL1        0.0795
     20 C          19.6075   71.1185   -7.0709 C.ar    1  UNL1        0.0869
     21 O          16.1733   70.7218   -7.2128 O.2     1  UNL1       -0.2464
     22 O          19.1972   70.2420  -10.4266 O.2     1  UNL1       -0.2670
     23 H          16.9331   70.2441   -9.4792 H       1  UNL1        0.1734
     24 O          23.1508   72.9496   -2.2435 O.3     1  UNL1       -0.2703
     25 P          23.4324   73.6694   -3.6549 P.3     1  UNL1        0.2208
     26 O          22.4900   74.7963   -3.8303 O.2     1  UNL1       -0.5170
     27 O          23.2282   72.6091   -4.8491 O.3     1  UNL1       -0.4371
     28 O          24.9431   74.2239   -3.6840 O.3     1  UNL1       -0.2865
     29 C          24.8711   75.6345   -3.4690 C.3     1  UNL1        0.2611
     30 C          25.5167   76.3592   -4.6513 C.3     1  UNL1        0.1582
     31 C          26.9751   75.9054   -4.7816 C.3     1  UNL1        0.1625
     32 C          27.6736   76.1074   -3.4328 C.3     1  UNL1        0.1686
     33 C          26.8667   75.3990   -2.3427 C.3     1  UNL1        0.1760
     34 O          27.6306   76.6828   -5.7853 O.3     1  UNL1       -0.3801
     35 O          28.9905   75.5559   -3.4893 O.3     1  UNL1       -0.3794
     36 O          25.5595   75.9661   -2.2650 O.3     1  UNL1       -0.3263
     37 H          28.5425   76.3645   -5.8340 H       1  UNL1        0.2105
     38 H          29.3931   75.7037   -2.6218 H       1  UNL1        0.2105
     39 C          24.5450   76.9950   -6.7928 C.2     1  UNL1        0.2231
     40 C          23.7967   76.6606   -8.0579 C.3     1  UNL1        0.0946
     41 N          24.7903   76.0347   -5.8807 N.am    1  UNL1       -0.2994
     42 O          24.9259   78.1291   -6.5954 O.2     1  UNL1       -0.2751
     43 H          24.4854   75.1271   -6.0383 H       1  UNL1        0.1496
     44 C          27.5735   75.5673   -0.9961 C.3     1  UNL1        0.1693
     45 O          28.2567   76.8222   -0.9698 O.3     1  UNL1       -0.3794
     46 H          28.6876   76.8881   -0.1069 H       1  UNL1        0.2105
@<TRIPOS>BOND
     1    29    30    1
     2    29    28    1
     3    29    36    1
     4    30    31    1
     5    30    41    1
     6    31    32    1
     7    31    34    1
     8    32    33    1
     9    32    35    1
    10    33    44    1
    11    33    36    1
    12    44    45    1
    13    39    40    1
    14    39    41   am
    15    39    42    2
    16    41    43    1
    17    28    25    1
    18    34    37    1
    19    35    38    1
    20    45    46    1
    21    15    16   ar
    22    15    20   ar
    23    15     6    1
    24    16    17   ar
    25    16    21    2
    26    17    18   ar
    27    17    23    1
    28    18    19   ar
    29    18    22    2
    30    19    20   ar
    31     6     7    1
    32     6    11    1
    33     7     8    1
    34     7     9    1
    35     8    13    1
    36     9    10    1
    37     9    12    1
    38    10    11    1
    39    10     5    1
    40    12    14    1
    41     5     4    1
    42     4     1    1
    43     1     2    2
    44     1     3    1
    45     1    24    1
    46    24    25    1
    47    25    26    2
    48    25    27    1
@<TRIPOS>MOLECULE
UD1
 46 48 0 0 0
SMALL
GASTEIGER

@<TRIPOS>ATOM
      1 P          22.6111   72.4970   -2.5000 P.3     1  UNL1        0.2189
      2 O          22.0972   73.5679   -3.3820 O.2     1  UNL1       -0.5170
      3 O          23.4664   71.4478   -3.3719 O.3     1  UNL1       -0.4371
      4 O          21.3742   71.7342   -1.8064 O.3     1  UNL1       -0.3112
      5 C          20.9218   70.7486   -2.7361 C.3     1  UNL1        0.1811
      6 C          18.3851   71.0225   -5.2694 C.3     1  UNL1        0.2383
      7 C          18.0797   69.6806   -4.5577 C.3     1  UNL1        0.1895
      8 O          16.6804   69.3969   -4.5805 O.3     1  UNL1       -0.3779
      9 C          18.5639   69.9616   -3.1114 C.3     1  UNL1        0.1713
     10 C          19.5423   71.1419   -3.2667 C.3     1  UNL1        0.1764
     11 O          19.6269   71.4480   -4.6690 O.3     1  UNL1       -0.3308
     12 O          17.4619   70.3235   -2.2762 O.3     1  UNL1       -0.3794
     13 H          16.5582   68.5528   -4.1243 H       1  UNL1        0.2106
     14 H          16.8585   69.5685   -2.2674 H       1  UNL1        0.2105
     15 N          18.5504   70.8208   -6.7093 N.ar    1  UNL1       -0.2551
     16 C          17.4666   70.7615   -7.5025 C.ar    1  UNL1        0.3323
     17 N          17.5890   70.5809   -8.8309 N.ar    1  UNL1       -0.2743
     18 C          18.8090   70.4463   -9.3889 C.ar    1  UNL1        0.2626
     19 C          19.9582   70.5008   -8.5646 C.ar    1  UNL1        0.0795
     20 C          19.8069   70.6883   -7.2360 C.ar    1  UNL1        0.0869
     21 O          16.3595   70.8812   -7.0142 O.2     1  UNL1       -0.2464
     22 O          18.9206   70.2781  -10.5891 O.2     1  UNL1       -0.2670
     23 H          16.7966   70.5454   -9.3887 H       1  UNL1        0.1734
     24 O          23.5492   73.1421   -1.3631 O.3     1  UNL1       -0.2703
     25 P          22.8394   74.5081   -0.8946 P.3     1  UNL1        0.2208
     26 O          21.3733   74.3791   -1.0456 O.2     1  UNL1       -0.5170
     27 O          23.3666   75.7271   -1.8048 O.3     1  UNL1       -0.4371
     28 O          23.1964   74.7984    0.6477 O.3     1  UNL1       -0.2865
     29 C          21.9746   75.1567    1.2956 C.3     1  UNL1        0.2611
     30 C          22.2234   76.3517    2.2176 C.3     1  UNL1        0.1582
     31 C          23.2926   75.9748    3.2492 C.3     1  UNL1        0.1625
     32 C          22.8596   74.6856    3.9553 C.3     1  UNL1        0.1686
     33 C          22.5657   73.6152    2.9021 C.3     1  UNL1        0.1760
     34 O          23.4265   77.0271    4.2064 O.3     1  UNL1       -0.3801
     35 O          23.9083   74.2364    4.8156 O.3     1  UNL1       -0.3794
     36 O          21.5000   74.0491    2.0581 O.3     1  UNL1       -0.3263
     37 H          24.1076   76.7488    4.8341 H       1  UNL1        0.2105
     38 H          23.5948   73.4243    5.2383 H       1  UNL1        0.2105
     39 C          24.0057   77.7138    1.2678 C.2     1  UNL1        0.2231
     40 C          24.4818   78.8894    0.4531 C.3     1  UNL1        0.0946
     41 N          22.6864   77.4933    1.4259 N.am    1  UNL1       -0.2994
     42 O          24.8105   76.9666    1.7817 O.2     1  UNL1       -0.2751
     43 H          22.0421   78.0912    1.0149 H       1  UNL1        0.1496
     44 C          22.1635   72.3133    3.5983 C.3     1  UNL1        0.1693
     45 O          20.8615   71.9206    3.1596 O.3     1  UNL1       -0.3794
     46 H          20.6468   71.0987    3.6211 H       1  UNL1        0.2105
@<TRIPOS>BOND
     1    29    30    1
     2    29    28    1
     3    29    36    1
     4    30    31    1
     5    30    41    1
     6    31    32    1
     7    31    34    1
     8    32    33    1
     9    32    35    1
    10    33    44    1
    11    33    36    1
    12    44    45    1
    13    39    40    1
    14    39    41   am
    15    39    42    2
    16    41    43    1
    17    28    25    1
    18    34    37    1
    19    35    38    1
    20    45    46    1
    21    15    16   ar
    22    15    20   ar
    23    15     6    1
    24    16    17   ar
    25    16    21    2
    26    17    18   ar
    27    17    23    1
    28    18    19   ar
    29    18    22    2
    30    19    20   ar
    31     6     7    1
    32     6    11    1
    33     7     8    1
    34     7     9    1
    35     8    13    1
    36     9    10    1
    37     9    12    1
    38    10    11    1
    39    10     5    1
    40    12    14    1
    41     5     4    1
    42     4     1    1
    43     1     2    2
    44     1     3    1
    45     1    24    1
    46    24    25    1
    47    25    26    2
    48    25    27    1
@<TRIPOS>MOLECULE
UD1
 46 48 0 0 0
SMALL
GASTEIGER

@<TRIPOS>ATOM
      1 P          22.9746   73.6556   -4.1453 P.3     1  UNL1        0.2189
      2 O          23.9469   72.5714   -3.8848 O.2     1  UNL1       -0.5170
      3 O          23.7660   75.0142   -4.4927 O.3     1  UNL1       -0.4371
      4 O          22.0646   73.8854   -2.8370 O.3     1  UNL1       -0.3112
      5 C          22.9099   74.4633   -1.8411 C.3     1  UNL1        0.1811
      6 C          22.4456   72.9431    1.3839 C.3     1  UNL1        0.2383
      7 C          21.4963   72.1580    0.4443 C.3     1  UNL1        0.1895
      8 O          21.3486   70.8062    0.8803 O.3     1  UNL1       -0.3779
      9 C          22.2504   72.2235   -0.9093 C.3     1  UNL1        0.1713
     10 C          23.1977   73.4287   -0.7521 C.3     1  UNL1        0.1764
     11 O          22.9527   74.0016    0.5437 O.3     1  UNL1       -0.3308
     12 O          22.9919   71.0213   -1.1277 O.3     1  UNL1       -0.3794
     13 H          20.7485   70.3746    0.2566 H       1  UNL1        0.2106
     14 H          22.3504   70.2990   -1.1570 H       1  UNL1        0.2105
     15 N          21.7100   73.4951    2.5222 N.ar    1  UNL1       -0.2551
     16 C          21.6378   72.7987    3.6698 C.ar    1  UNL1        0.3323
     17 N          20.9715   73.2837    4.7342 N.ar    1  UNL1       -0.2743
     18 C          20.3540   74.4801    4.6618 C.ar    1  UNL1        0.2626
     19 C          20.4169   75.2211    3.4577 C.ar    1  UNL1        0.0795
     20 C          21.0966   74.7134    2.4071 C.ar    1  UNL1        0.0869
     21 O          22.1897   71.7181    3.7507 O.2     1  UNL1       -0.2464
     22 O          19.7472   74.9175    5.6219 O.2     1  UNL1       -0.2670
     23 H          20.9337   72.7700    5.5557 H       1  UNL1        0.1734
     24 O          22.0359   73.2478   -5.3868 O.3     1  UNL1       -0.2703
     25 P          20.7839   72.4411   -4.7777 P.3     1  UNL1        0.2208
     26 O          19.9266   73.3692   -4.0079 O.2     1  UNL1       -0.5170
     27 O          21.3182   71.2741   -3.8057 O.3     1  UNL1       -0.4371
     28 O          19.9291   71.7900   -5.9760 O.3     1  UNL1       -0.2865
     29 C          18.9061   72.7286   -6.3129 C.3     1  UNL1        0.2611
     30 C          17.5366   72.0940   -6.0644 C.3     1  UNL1        0.1582
     31 C          17.4097   70.8261   -6.9165 C.3     1  UNL1        0.1625
     32 C          17.7068   71.1850   -8.3763 C.3     1  UNL1        0.1686
     33 C          19.0651   71.8856   -8.4507 C.3     1  UNL1        0.1760
     34 O          16.0829   70.3071   -6.8080 O.3     1  UNL1       -0.3801
     35 O          17.7382   69.9936   -9.1644 O.3     1  UNL1       -0.3794
     36 O          19.0286   73.0904   -7.6867 O.3     1  UNL1       -0.3263
     37 H          16.0480   69.5123   -7.3579 H       1  UNL1        0.2105
     38 H          17.9285   70.2646  -10.0737 H       1  UNL1        0.2105
     39 C          16.2689   72.0313   -3.9851 C.2     1  UNL1        0.2231
     40 C          16.1361   71.6751   -2.5264 C.3     1  UNL1        0.0946
     41 N          17.4069   71.7477   -4.6475 N.am    1  UNL1       -0.2994
     42 O          15.3512   72.5739   -4.5627 O.2     1  UNL1       -0.2751
     43 H          18.1416   71.3137   -4.1854 H       1  UNL1        0.1496
     44 C          19.3862   72.2193   -9.9091 C.3     1  UNL1        0.1693
     45 O          18.2569   72.8536  -10.5128 O.3     1  UNL1       -0.3794
     46 H          18.5004   73.0462  -11.4283 H       1  UNL1        0.2105
@<TRIPOS>BOND
     1    29    30    1
     2    29    28    1
     3    29    36    1
     4    30    31    1
     5    30    41    1
     6    31    32    1
     7    31    34    1
     8    32    33    1
     9    32    35    1
    10    33    44    1
    11    33    36    1
    12    44    45    1
    13    39    40    1
    14    39    41   am
    15    39    42    2
    16    41    43    1
    17    28    25    1
    18    34    37    1
    19    35    38    1
    20    45    46    1
    21    15    16   ar
    22    15    20   ar
    23    15     6    1
    24    16    17   ar
    25    16    21    2
    26    17    18   ar
    27    17    23    1
    28    18    19   ar
    29    18    22    2
    30    19    20   ar
    31     6     7    1
    32     6    11    1
    33     7     8    1
    34     7     9    1
    35     8    13    1
    36     9    10    1
    37     9    12    1
    38    10    11    1
    39    10     5    1
    40    12    14    1
    41     5     4    1
    42     4     1    1
    43     1     2    2
    44     1     3    1
    45     1    24    1
    46    24    25    1
    47    25    26    2
    48    25    27    1
@<TRIPOS>MOLECULE
UD1
 46 48 0 0 0
SMALL
GASTEIGER

@<TRIPOS>ATOM
      1 P          19.7945   70.6298   -3.2564 P.3     1  UNL1        0.2189
      2 O          20.0473   69.7270   -4.4009 O.2     1  UNL1       -0.5170
      3 O          19.7617   69.7726   -1.8937 O.3     1  UNL1       -0.4371
      4 O          18.3780   71.3683   -3.4588 O.3     1  UNL1       -0.3112
      5 C          18.5920   72.7548   -3.1903 C.3     1  UNL1        0.1811
      6 C          17.8820   73.3069   -6.6715 C.3     1  UNL1        0.2383
      7 C          16.5385   72.8190   -6.0739 C.3     1  UNL1        0.1895
      8 O          15.4313   73.3907   -6.7714 O.3     1  UNL1       -0.3779
      9 C          16.6142   73.3560   -4.6210 C.3     1  UNL1        0.1713
     10 C          18.1195   73.5853   -4.3846 C.3     1  UNL1        0.1764
     11 O          18.8098   73.1674   -5.5745 O.3     1  UNL1       -0.3308
     12 O          15.8901   74.5826   -4.5026 O.3     1  UNL1       -0.3794
     13 H          14.6294   73.0482   -6.3529 H       1  UNL1        0.2106
     14 H          14.9692   74.3853   -4.7199 H       1  UNL1        0.2105
     15 N          18.2852   72.4653   -7.7987 N.ar    1  UNL1       -0.2551
     16 C          18.5115   73.0244   -9.0002 C.ar    1  UNL1        0.3323
     17 N          18.8872   72.2753  -10.0537 N.ar    1  UNL1       -0.2743
     18 C          19.0344   70.9416   -9.9210 C.ar    1  UNL1        0.2626
     19 C          18.7936   70.3392   -8.6633 C.ar    1  UNL1        0.0795
     20 C          18.4230   71.1149   -7.6220 C.ar    1  UNL1        0.0869
     21 O          18.3829   74.2260   -9.1356 O.2     1  UNL1       -0.2464
     22 O          19.3694   70.2627  -10.8740 O.2     1  UNL1       -0.2670
     23 H          19.0508   72.6959  -10.9118 H       1  UNL1        0.1734
     24 O          20.9656   71.7298   -3.1715 O.3     1  UNL1       -0.2703
     25 P          22.1709   71.0624   -2.3401 P.3     1  UNL1        0.2208
     26 O          23.3283   70.8472   -3.2363 O.2     1  UNL1       -0.5170
     27 O          21.6899   69.6492   -1.7372 O.3     1  UNL1       -0.4371
     28 O          22.5995   72.0401   -1.1356 O.3     1  UNL1       -0.2865
     29 C          21.4069   72.6778   -0.6750 C.3     1  UNL1        0.2611
     30 C          21.5538   74.1930   -0.8260 C.3     1  UNL1        0.1582
     31 C          22.7664   74.6623   -0.0144 C.3     1  UNL1        0.1625
     32 C          22.6154   74.1622    1.4262 C.3     1  UNL1        0.1686
     33 C          22.3915   72.6487    1.4074 C.3     1  UNL1        0.1760
     34 O          22.8265   76.0898   -0.0254 O.3     1  UNL1       -0.3801
     35 O          23.8023   74.4620    2.1631 O.3     1  UNL1       -0.3794
     36 O          21.1919   72.3476    0.6954 O.3     1  UNL1       -0.3263
     37 H          23.6021   76.3408    0.4951 H       1  UNL1        0.2105
     38 H          23.6650   74.1302    3.0617 H       1  UNL1        0.2105
     39 C          21.0970   75.5748   -2.7795 C.2     1  UNL1        0.2231
     40 C          21.2980   75.9189   -4.2332 C.3     1  UNL1        0.0946
     41 N          21.7491   74.5279   -2.2381 N.am    1  UNL1       -0.2994
     42 O          20.3475   76.2401   -2.0970 O.2     1  UNL1       -0.2751
     43 H          22.3488   73.9952   -2.7841 H       1  UNL1        0.1496
     44 C          22.2718   72.1342    2.8434 C.3     1  UNL1        0.1693
     45 O          20.9081   71.8101    3.1216 O.3     1  UNL1       -0.3794
     46 H          20.8768   71.4911    4.0336 H       1  UNL1        0.2105
@<TRIPOS>BOND
     1    29    30    1
     2    29    28    1
     3    29    36    1
     4    30    31    1
     5    30    41    1
     6    31    32    1
     7    31    34    1
     8    32    33    1
     9    32    35    1
    10    33    44    1
    11    33    36    1
    12    44    45    1
    13    39    40    1
    14    39    41   am
    15    39    42    2
    16    41    43    1
    17    28    25    1
    18    34    37    1
    19    35    38    1
    20    45    46    1
    21    15    16   ar
    22    15    20   ar
    23    15     6    1
    24    16    17   ar
    25    16    21    2
    26    17    18   ar
    27    17    23    1
    28    18    19   ar
    29    18    22    2
    30    19    20   ar
    31     6     7    1
    32     6    11    1
    33     7     8    1
    34     7     9    1
    35     8    13    1
    36     9    10    1
    37     9    12    1
    38    10    11    1
    39    10     5    1
    40    12    14    1
    41     5     4    1
    42     4     1    1
    43     1     2    2
    44     1     3    1
    45     1    24    1
    46    24    25    1
    47    25    26    2
    48    25    27    1
@<TRIPOS>MOLECULE
UD1
 46 48 0 0 0
SMALL
GASTEIGER

@<TRIPOS>ATOM
      1 P          22.9147   72.0746   -3.3006 P.3     1  UNL1        0.2189
      2 O          23.4564   70.6981   -3.3235 O.2     1  UNL1       -0.5170
      3 O          23.8522   73.0352   -4.1900 O.3     1  UNL1       -0.4371
      4 O          22.8825   72.6129   -1.7834 O.3     1  UNL1       -0.3112
      5 C          21.5138   72.6169   -1.3745 C.3     1  UNL1        0.1811
      6 C          22.6822   74.4864    1.4657 C.3     1  UNL1        0.2383
      7 C          21.8255   75.4964    0.6620 C.3     1  UNL1        0.1895
      8 O          21.2115   76.4501    1.5296 O.3     1  UNL1       -0.3779
      9 C          20.7614   74.5751    0.0108 C.3     1  UNL1        0.1713
     10 C          21.4062   73.1760    0.0450 C.3     1  UNL1        0.1764
     11 O          22.7186   73.3216    0.6139 O.3     1  UNL1       -0.3308
     12 O          19.5510   74.5939    0.7706 O.3     1  UNL1       -0.3794
     13 H          20.6957   77.0468    0.9698 H       1  UNL1        0.2106
     14 H          19.2295   75.5053    0.7612 H       1  UNL1        0.2105
     15 N          24.0318   75.0083    1.6843 N.ar    1  UNL1       -0.2551
     16 C          24.8198   75.2806    0.6296 C.ar    1  UNL1        0.3323
     17 N          26.0640   75.7652    0.8007 N.ar    1  UNL1       -0.2743
     18 C          26.5456   75.9777    2.0420 C.ar    1  UNL1        0.2626
     19 C          25.7289   75.6898    3.1614 C.ar    1  UNL1        0.0795
     20 C          24.4829   75.2095    2.9609 C.ar    1  UNL1        0.0869
     21 O          24.3996   75.0942   -0.4962 O.2     1  UNL1       -0.2464
     22 O          27.6721   76.4113    2.1981 O.2     1  UNL1       -0.2670
     23 H          26.6169   75.9605    0.0285 H       1  UNL1        0.1734
     24 O          21.4220   72.0740   -3.9013 O.3     1  UNL1       -0.2703
     25 P          21.4579   72.9716   -5.2364 P.3     1  UNL1        0.2208
     26 O          22.6469   72.6125   -6.0403 O.2     1  UNL1       -0.5170
     27 O          21.5328   74.5290   -4.8350 O.3     1  UNL1       -0.4371
     28 O          20.1260   72.7050   -6.0998 O.3     1  UNL1       -0.2865
     29 C          19.0154   72.9631   -5.2389 C.3     1  UNL1        0.2611
     30 C          18.0748   71.7568   -5.2526 C.3     1  UNL1        0.1582
     31 C          17.5999   71.5077   -6.6885 C.3     1  UNL1        0.1625
     32 C          17.0023   72.8068   -7.2394 C.3     1  UNL1        0.1686
     33 C          18.0252   73.9334   -7.0787 C.3     1  UNL1        0.1760
     34 O          16.6070   70.4803   -6.6931 O.3     1  UNL1       -0.3801
     35 O          16.6876   72.6390   -8.6231 O.3     1  UNL1       -0.3794
     36 O          18.3212   74.1220   -5.6955 O.3     1  UNL1       -0.3263
     37 H          16.3375   70.3564   -7.6136 H       1  UNL1        0.2105
     38 H          16.3158   73.4784   -8.9292 H       1  UNL1        0.2105
     39 C          18.1604   69.7026   -3.9461 C.2     1  UNL1        0.2231
     40 C          18.8929   68.4870   -3.4380 C.3     1  UNL1        0.0946
     41 N          18.7858   70.5756   -4.7591 N.am    1  UNL1       -0.2994
     42 O          17.0079   69.8952   -3.6224 O.2     1  UNL1       -0.2751
     43 H          19.7082   70.4218   -5.0181 H       1  UNL1        0.1496
     44 C          17.4504   75.2287   -7.6556 C.3     1  UNL1        0.1693
     45 O          17.5914   75.2210   -9.0777 O.3     1  UNL1       -0.3794
     46 H          17.2182   76.0524   -9.4004 H       1  UNL1        0.2105
@<TRIPOS>BOND
     1    29    30    1
     2    29    28    1
     3    29    36    1
     4    30    31    1
     5    30    41    1
     6    31    32    1
     7    31    34    1
     8    32    33    1
     9    32    35    1
    10    33    44    1
    11    33    36    1
    12    44    45    1
    13    39    40    1
    14    39    41   am
    15    39    42    2
    16    41    43    1
    17    28    25    1
    18    34    37    1
    19    35    38    1
    20    45    46    1
    21    15    16   ar
    22    15    20   ar
    23    15     6    1
    24    16    17   ar
    25    16    21    2
    26    17    18   ar
    27    17    23    1
    28    18    19   ar
    29    18    22    2
    30    19    20   ar
    31     6     7    1
    32     6    11    1
    33     7     8    1
    34     7     9    1
    35     8    13    1
    36     9    10    1
    37     9    12    1
    38    10    11    1
    39    10     5    1
    40    12    14    1
    41     5     4    1
    42     4     1    1
    43     1     2    2
    44     1     3    1
    45     1    24    1
    46    24    25    1
    47    25    26    2
    48    25    27    1
@<TRIPOS>MOLECULE
UD1
 46 48 0 0 0
SMALL
GASTEIGER

@<TRIPOS>ATOM
      1 P          22.8389   71.8758   -3.3153 P.3     1  UNL1        0.2189
      2 O          23.4864   70.5469   -3.2559 O.2     1  UNL1       -0.5170
      3 O          23.8174   72.9170   -4.0575 O.3     1  UNL1       -0.4371
      4 O          22.5402   72.3939   -1.8202 O.3     1  UNL1       -0.3112
      5 C          23.0800   73.7129   -1.7237 C.3     1  UNL1        0.1811
      6 C          20.1496   74.7158    0.1023 C.3     1  UNL1        0.2383
      7 C          20.7220   73.5246    0.9108 C.3     1  UNL1        0.1895
      8 O          20.4325   73.6651    2.3021 O.3     1  UNL1       -0.3779
      9 C          22.2448   73.6537    0.6467 C.3     1  UNL1        0.1713
     10 C          22.3313   74.4935   -0.6423 C.3     1  UNL1        0.1764
     11 O          20.9856   74.7584   -1.0737 O.3     1  UNL1       -0.3308
     12 O          22.8859   74.3254    1.7332 O.3     1  UNL1       -0.3794
     13 H          20.8135   72.8953    2.7467 H       1  UNL1        0.2106
     14 H          22.7456   73.7814    2.5197 H       1  UNL1        0.2105
     15 N          18.7543   74.4715   -0.2650 N.ar    1  UNL1       -0.2551
     16 C          18.4675   73.6137   -1.2596 C.ar    1  UNL1        0.3323
     17 N          17.1930   73.3668   -1.6161 N.ar    1  UNL1       -0.2743
     18 C          16.1777   73.9877   -0.9824 C.ar    1  UNL1        0.2626
     19 C          16.4657   74.8977    0.0626 C.ar    1  UNL1        0.0795
     20 C          17.7528   75.1228    0.4033 C.ar    1  UNL1        0.0869
     21 O          19.3722   73.0459   -1.8407 O.2     1  UNL1       -0.2464
     22 O          15.0253   73.7689   -1.3070 O.2     1  UNL1       -0.2670
     23 H          17.0042   72.7414   -2.3327 H       1  UNL1        0.1734
     24 O          21.4561   71.7631   -4.1302 O.3     1  UNL1       -0.2703
     25 P          21.5172   72.8622   -5.3038 P.3     1  UNL1        0.2208
     26 O          22.7562   72.6753   -6.0905 O.2     1  UNL1       -0.5170
     27 O          21.5091   74.3376   -4.6592 O.3     1  UNL1       -0.4371
     28 O          20.2392   72.6921   -6.2672 O.3     1  UNL1       -0.2865
     29 C          20.3785   71.4298   -6.9216 C.3     1  UNL1        0.2611
     30 C          20.2613   71.6291   -8.4337 C.3     1  UNL1        0.1582
     31 C          18.8995   72.2564   -8.7525 C.3     1  UNL1        0.1625
     32 C          17.8022   71.3926   -8.1217 C.3     1  UNL1        0.1686
     33 C          18.1035   71.2137   -6.6322 C.3     1  UNL1        0.1760
     34 O          18.7166   72.3099  -10.1685 O.3     1  UNL1       -0.3801
     35 O          16.5366   72.0364   -8.2808 O.3     1  UNL1       -0.3794
     36 O          19.3544   70.5463   -6.4701 O.3     1  UNL1       -0.3263
     37 H          17.8501   72.7105  -10.3234 H       1  UNL1        0.2105
     38 H          15.8762   71.4605   -7.8699 H       1  UNL1        0.2105
     39 C          21.1433   73.8507   -8.9035 C.2     1  UNL1        0.2231
     40 C          22.2441   74.7642   -9.3791 C.3     1  UNL1        0.0946
     41 N          21.3305   72.5169   -8.8952 N.am    1  UNL1       -0.2994
     42 O          20.0884   74.3166   -8.5287 O.2     1  UNL1       -0.2751
     43 H          22.1745   72.1438   -9.1953 H       1  UNL1        0.1496
     44 C          16.9958   70.3792   -5.9858 C.3     1  UNL1        0.1693
     45 O          16.1572   69.8295   -7.0040 O.3     1  UNL1       -0.3794
     46 H          15.4743   69.3128   -6.5553 H       1  UNL1        0.2105
@<TRIPOS>BOND
     1    29    30    1
     2    29    28    1
     3    29    36    1
     4    30    31    1
     5    30    41    1
     6    31    32    1
     7    31    34    1
     8    32    33    1
     9    32    35    1
    10    33    44    1
    11    33    36    1
    12    44    45    1
    13    39    40    1
    14    39    41   am
    15    39    42    2
    16    41    43    1
    17    28    25    1
    18    34    37    1
    19    35    38    1
    20    45    46    1
    21    15    16   ar
    22    15    20   ar
    23    15     6    1
    24    16    17   ar
    25    16    21    2
    26    17    18   ar
    27    17    23    1
    28    18    19   ar
    29    18    22    2
    30    19    20   ar
    31     6     7    1
    32     6    11    1
    33     7     8    1
    34     7     9    1
    35     8    13    1
    36     9    10    1
    37     9    12    1
    38    10    11    1
    39    10     5    1
    40    12    14    1
    41     5     4    1
    42     4     1    1
    43     1     2    2
    44     1     3    1
    45     1    24    1
    46    24    25    1
    47    25    26    2
    48    25    27    1
@<TRIPOS>MOLECULE
UD1
 46 48 0 0 0
SMALL
GASTEIGER

@<TRIPOS>ATOM
      1 P          17.6263   74.5603   -3.0128 P.3     1  UNL1        0.2189
      2 O          17.3246   74.8091   -1.5860 O.2     1  UNL1       -0.5170
      3 O          17.3313   75.8946   -3.8644 O.3     1  UNL1       -0.4371
      4 O          16.6979   73.3620   -3.5560 O.3     1  UNL1       -0.3112
      5 C          16.7018   72.3472   -2.5508 C.3     1  UNL1        0.1811
      6 C          17.8798   70.1963   -5.1801 C.3     1  UNL1        0.2383
      7 C          19.0991   70.3622   -4.2387 C.3     1  UNL1        0.1895
      8 O          19.9222   69.1954   -4.2580 O.3     1  UNL1       -0.3779
      9 C          18.4207   70.5381   -2.8552 C.3     1  UNL1        0.1713
     10 C          16.9875   70.9901   -3.1958 C.3     1  UNL1        0.1764
     11 O          16.9005   71.1009   -4.6267 O.3     1  UNL1       -0.3308
     12 O          18.4056   69.2984   -2.1441 O.3     1  UNL1       -0.3794
     13 H          20.6596   69.3628   -3.6550 H       1  UNL1        0.2106
     14 H          19.3277   69.0397   -2.0143 H       1  UNL1        0.2105
     15 N          18.2241   70.5828   -6.5489 N.ar    1  UNL1       -0.2551
     16 C          17.2924   70.5119   -7.5155 C.ar    1  UNL1        0.3323
     17 N          17.5799   70.8647   -8.7825 N.ar    1  UNL1       -0.2743
     18 C          18.8183   71.2889   -9.1053 C.ar    1  UNL1        0.2626
     19 C          19.8104   71.3627   -8.0987 C.ar    1  UNL1        0.0795
     20 C          19.4934   71.0078   -6.8350 C.ar    1  UNL1        0.0869
     21 O          16.1709   70.1313   -7.2400 O.2     1  UNL1       -0.2464
     22 O          19.0807   71.6036  -10.2514 O.2     1  UNL1       -0.2670
     23 H          16.8943   70.8118   -9.4661 H       1  UNL1        0.1734
     24 O          19.1749   74.1530   -3.1709 O.3     1  UNL1       -0.2703
     25 P          19.9454   74.7492   -1.8902 P.3     1  UNL1        0.2208
     26 O          19.0428   75.6591   -1.1511 O.2     1  UNL1       -0.5170
     27 O          21.2462   75.5636   -2.3768 O.3     1  UNL1       -0.4371
     28 O          20.3989   73.5432   -0.9257 O.3     1  UNL1       -0.2865
     29 C          21.8267   73.5033   -0.9552 C.3     1  UNL1        0.2611
     30 C          22.2817   72.4411   -1.9575 C.3     1  UNL1        0.1582
     31 C          21.7109   71.0811   -1.5402 C.3     1  UNL1        0.1625
     32 C          22.1010   70.8121   -0.0829 C.3     1  UNL1        0.1686
     33 C          21.6568   71.9961    0.7786 C.3     1  UNL1        0.1760
     34 O          22.2489   70.0579   -2.3800 O.3     1  UNL1       -0.3801
     35 O          21.4574   69.6202    0.3719 O.3     1  UNL1       -0.3794
     36 O          22.3188   73.1834    0.3444 O.3     1  UNL1       -0.3263
     37 H          21.8639   69.2218   -2.0833 H       1  UNL1        0.2105
     38 H          21.7291   69.4891    1.2914 H       1  UNL1        0.2105
     39 C          22.6370   72.7686   -4.3451 C.2     1  UNL1        0.2231
     40 C          22.1353   73.1265   -5.7208 C.3     1  UNL1        0.0946
     41 N          21.7948   72.7882   -3.2941 N.am    1  UNL1       -0.2994
     42 O          23.7994   72.4634   -4.1840 O.2     1  UNL1       -0.2751
     43 H          20.8645   73.0327   -3.4227 H       1  UNL1        0.1496
     44 C          22.0128   71.7228    2.2413 C.3     1  UNL1        0.1693
     45 O          20.8646   71.9486    3.0616 O.3     1  UNL1       -0.3794
     46 H          21.1314   71.7661    3.9728 H       1  UNL1        0.2105
@<TRIPOS>BOND
     1    29    30    1
     2    29    28    1
     3    29    36    1
     4    30    31    1
     5    30    41    1
     6    31    32    1
     7    31    34    1
     8    32    33    1
     9    32    35    1
    10    33    44    1
    11    33    36    1
    12    44    45    1
    13    39    40    1
    14    39    41   am
    15    39    42    2
    16    41    43    1
    17    28    25    1
    18    34    37    1
    19    35    38    1
    20    45    46    1
    21    15    16   ar
    22    15    20   ar
    23    15     6    1
    24    16    17   ar
    25    16    21    2
    26    17    18   ar
    27    17    23    1
    28    18    19   ar
    29    18    22    2
    30    19    20   ar
    31     6     7    1
    32     6    11    1
    33     7     8    1
    34     7     9    1
    35     8    13    1
    36     9    10    1
    37     9    12    1
    38    10    11    1
    39    10     5    1
    40    12    14    1
    41     5     4    1
    42     4     1    1
    43     1     2    2
    44     1     3    1
    45     1    24    1
    46    24    25    1
    47    25    26    2
    48    25    27    1
@<TRIPOS>MOLECULE
UD1
 46 48 0 0 0
SMALL
GASTEIGER

@<TRIPOS>ATOM
      1 P          18.3063   70.6630   -2.8174 P.3     1  UNL1        0.2189
      2 O          16.9346   71.1369   -2.5303 O.2     1  UNL1       -0.5170
      3 O          18.4355   69.1117   -2.4058 O.3     1  UNL1       -0.4371
      4 O          19.3626   71.5323   -1.9680 O.3     1  UNL1       -0.3112
      5 C          20.1389   72.2753   -2.9090 C.3     1  UNL1        0.1811
      6 C          22.7124   72.3855   -0.4006 C.3     1  UNL1        0.2383
      7 C          22.5831   70.8837   -0.7584 C.3     1  UNL1        0.1895
      8 O          23.8340   70.2122   -0.6051 O.3     1  UNL1       -0.3779
      9 C          22.1641   70.9393   -2.2505 C.3     1  UNL1        0.1713
     10 C          21.5873   72.3575   -2.4248 C.3     1  UNL1        0.1764
     11 O          21.6377   73.0026   -1.1408 O.3     1  UNL1       -0.3308
     12 O          23.2998   70.7466   -3.0966 O.3     1  UNL1       -0.3794
     13 H          23.6857   69.2861   -0.8416 H       1  UNL1        0.2106
     14 H          23.6498   69.8678   -2.8983 H       1  UNL1        0.2105
     15 N          22.5353   72.5941    1.0370 N.ar    1  UNL1       -0.2551
     16 C          21.9210   71.6539    1.7760 C.ar    1  UNL1        0.3323
     17 N          21.7478   71.8173    3.1009 N.ar    1  UNL1       -0.2743
     18 C          22.1830   72.9389    3.7098 C.ar    1  UNL1        0.2626
     19 C          22.8260   73.9394    2.9428 C.ar    1  UNL1        0.0795
     20 C          22.9913   73.7473    1.6165 C.ar    1  UNL1        0.0869
     21 O          21.5230   70.6369    1.2413 O.2     1  UNL1       -0.2464
     22 O          22.0227   73.0898    4.9069 O.2     1  UNL1       -0.2670
     23 H          21.3068   71.1267    3.6194 H       1  UNL1        0.1734
     24 O          18.6142   70.8300   -4.3878 O.3     1  UNL1       -0.2703
     25 P          17.1915   70.9486   -5.1304 P.3     1  UNL1        0.2208
     26 O          16.2301   71.6433   -4.2461 O.2     1  UNL1       -0.5170
     27 O          16.6385   69.4753   -5.4708 O.3     1  UNL1       -0.4371
     28 O          17.3651   71.7837   -6.4953 O.3     1  UNL1       -0.2865
     29 C          18.7132   72.2559   -6.5237 C.3     1  UNL1        0.2611
     30 C          18.7231   73.7314   -6.9272 C.3     1  UNL1        0.1582
     31 C          18.0691   73.8785   -8.3056 C.3     1  UNL1        0.1625
     32 C          18.7699   72.9302   -9.2843 C.3     1  UNL1        0.1686
     33 C          18.7537   71.5143   -8.7043 C.3     1  UNL1        0.1760
     34 O          18.2057   75.2265   -8.7591 O.3     1  UNL1       -0.3801
     35 O          18.0827   72.9428  -10.5370 O.3     1  UNL1       -0.3794
     36 O          19.4630   71.4924   -7.4662 O.3     1  UNL1       -0.3263
     37 H          17.7814   75.2737   -9.6269 H       1  UNL1        0.2105
     38 H          18.5554   72.3334  -11.1215 H       1  UNL1        0.2105
     39 C          16.6622   74.7585   -6.1322 C.2     1  UNL1        0.2231
     40 C          15.8907   75.5642   -5.1183 C.3     1  UNL1        0.0946
     41 N          17.9731   74.5136   -5.9423 N.am    1  UNL1       -0.2994
     42 O          16.1031   74.3311   -7.1195 O.2     1  UNL1       -0.2751
     43 H          18.4208   74.8558   -5.1524 H       1  UNL1        0.1496
     44 C          19.4228   70.5534   -9.6892 C.3     1  UNL1        0.1693
     45 O          20.2514   69.6362   -8.9721 O.3     1  UNL1       -0.3794
     46 H          20.6532   69.0505   -9.6279 H       1  UNL1        0.2105
@<TRIPOS>BOND
     1    29    30    1
     2    29    28    1
     3    29    36    1
     4    30    31    1
     5    30    41    1
     6    31    32    1
     7    31    34    1
     8    32    33    1
     9    32    35    1
    10    33    44    1
    11    33    36    1
    12    44    45    1
    13    39    40    1
    14    39    41   am
    15    39    42    2
    16    41    43    1
    17    28    25    1
    18    34    37    1
    19    35    38    1
    20    45    46    1
    21    15    16   ar
    22    15    20   ar
    23    15     6    1
    24    16    17   ar
    25    16    21    2
    26    17    18   ar
    27    17    23    1
    28    18    19   ar
    29    18    22    2
    30    19    20   ar
    31     6     7    1
    32     6    11    1
    33     7     8    1
    34     7     9    1
    35     8    13    1
    36     9    10    1
    37     9    12    1
    38    10    11    1
    39    10     5    1
    40    12    14    1
    41     5     4    1
    42     4     1    1
    43     1     2    2
    44     1     3    1
    45     1    24    1
    46    24    25    1
    47    25    26    2
    48    25    27    1
@<TRIPOS>MOLECULE
UD1
 46 48 0 0 0
SMALL
GASTEIGER

@<TRIPOS>ATOM
      1 P          22.1864   71.6340   -2.9741 P.3     1  UNL1        0.2189
      2 O          22.4815   70.3388   -2.3228 O.2     1  UNL1       -0.5170
      3 O          23.5543   72.2833   -3.5218 O.3     1  UNL1       -0.4371
      4 O          21.5112   72.6304   -1.9045 O.3     1  UNL1       -0.3112
      5 C          22.5782   73.3077   -1.2387 C.3     1  UNL1        0.1811
      6 C          22.6152   73.3215    2.3565 C.3     1  UNL1        0.2383
      7 C          21.2124   72.7790    1.9848 C.3     1  UNL1        0.1895
      8 O          20.7388   71.8656    2.9750 O.3     1  UNL1       -0.3779
      9 C          21.4903   72.0482    0.6454 C.3     1  UNL1        0.1713
     10 C          22.8007   72.6810    0.1386 C.3     1  UNL1        0.1764
     11 O          23.1805   73.6969    1.0825 O.3     1  UNL1       -0.3308
     12 O          21.6567   70.6459    0.8658 O.3     1  UNL1       -0.3794
     13 H          19.8657   71.5666    2.6856 H       1  UNL1        0.2106
     14 H          20.8258   70.3211    1.2376 H       1  UNL1        0.2105
     15 N          22.5055   74.4861    3.2358 N.ar    1  UNL1       -0.2551
     16 C          22.5498   74.3207    4.5692 C.ar    1  UNL1        0.3323
     17 N          22.4553   75.3743    5.4018 N.ar    1  UNL1       -0.2743
     18 C          22.3044   76.6196    4.9075 C.ar    1  UNL1        0.2626
     19 C          22.2503   76.8074    3.5058 C.ar    1  UNL1        0.0795
     20 C          22.3529   75.7337    2.6935 C.ar    1  UNL1        0.0869
     21 O          22.6855   73.2037    5.0302 O.2     1  UNL1       -0.2464
     22 O          22.2141   77.5724    5.6595 O.2     1  UNL1       -0.2670
     23 H          22.4939   75.2371    6.3609 H       1  UNL1        0.1734
     24 O          21.1736   71.3988   -4.2019 O.3     1  UNL1       -0.2703
     25 P          21.2666   72.7045   -5.1379 P.3     1  UNL1        0.2208
     26 O          22.5804   72.7314   -5.8177 O.2     1  UNL1       -0.5170
     27 O          21.1039   74.0266   -4.2336 O.3     1  UNL1       -0.4371
     28 O          20.0935   72.6616   -6.2391 O.3     1  UNL1       -0.2865
     29 C          20.1079   71.3517   -6.8093 C.3     1  UNL1        0.2611
     30 C          20.1123   71.4649   -8.3348 C.3     1  UNL1        0.1582
     31 C          18.8664   72.2368   -8.7837 C.3     1  UNL1        0.1625
     32 C          17.6288   71.5614   -8.1835 C.3     1  UNL1        0.1686
     33 C          17.8105   71.4437   -6.6688 C.3     1  UNL1        0.1760
     34 O          18.7809   72.2202  -10.2098 O.3     1  UNL1       -0.3801
     35 O          16.4701   72.3478   -8.4676 O.3     1  UNL1       -0.3794
     36 O          18.9512   70.6359   -6.3814 O.3     1  UNL1       -0.3263
     37 H          17.9853   72.7159  -10.4478 H       1  UNL1        0.2105
     38 H          15.7160   71.8879   -8.0722 H       1  UNL1        0.2105
     39 C          21.2711   73.5085   -8.9791 C.2     1  UNL1        0.2231
     40 C          22.5090   74.2427   -9.4272 C.3     1  UNL1        0.0946
     41 N          21.3147   72.1787   -8.7696 N.am    1  UNL1       -0.2994
     42 O          20.2352   74.1149   -8.8077 O.2     1  UNL1       -0.2751
     43 H          22.1436   71.6931   -8.9069 H       1  UNL1        0.1496
     44 C          16.5654   70.7996   -6.0556 C.3     1  UNL1        0.1693
     45 O          16.1284   69.7215   -6.8855 O.3     1  UNL1       -0.3794
     46 H          15.3440   69.3444   -6.4646 H       1  UNL1        0.2105
@<TRIPOS>BOND
     1    29    30    1
     2    29    28    1
     3    29    36    1
     4    30    31    1
     5    30    41    1
     6    31    32    1
     7    31    34    1
     8    32    33    1
     9    32    35    1
    10    33    44    1
    11    33    36    1
    12    44    45    1
    13    39    40    1
    14    39    41   am
    15    39    42    2
    16    41    43    1
    17    28    25    1
    18    34    37    1
    19    35    38    1
    20    45    46    1
    21    15    16   ar
    22    15    20   ar
    23    15     6    1
    24    16    17   ar
    25    16    21    2
    26    17    18   ar
    27    17    23    1
    28    18    19   ar
    29    18    22    2
    30    19    20   ar
    31     6     7    1
    32     6    11    1
    33     7     8    1
    34     7     9    1
    35     8    13    1
    36     9    10    1
    37     9    12    1
    38    10    11    1
    39    10     5    1
    40    12    14    1
    41     5     4    1
    42     4     1    1
    43     1     2    2
    44     1     3    1
    45     1    24    1
    46    24    25    1
    47    25    26    2
    48    25    27    1
@<TRIPOS>MOLECULE
UD1
 46 48 0 0 0
SMALL
GASTEIGER

@<TRIPOS>ATOM
      1 P          22.7545   73.6829   -5.2358 P.3     1  UNL1        0.2189
      2 O          21.4158   73.8813   -4.6380 O.2     1  UNL1       -0.5170
      3 O          23.3945   75.1133   -5.6057 O.3     1  UNL1       -0.4371
      4 O          22.6186   72.7951   -6.5723 O.3     1  UNL1       -0.3112
      5 C          21.5477   73.3550   -7.3339 C.3     1  UNL1        0.1811
      6 C          18.2331   72.2761   -8.2151 C.3     1  UNL1        0.2383
      7 C          19.0821   71.9945   -9.4801 C.3     1  UNL1        0.1895
      8 O          18.5741   70.8684  -10.1963 O.3     1  UNL1       -0.3779
      9 C          20.4753   71.6826   -8.8744 C.3     1  UNL1        0.1713
     10 C          20.4268   72.3239   -7.4741 C.3     1  UNL1        0.1764
     11 O          19.1490   72.9696   -7.3412 O.3     1  UNL1       -0.3308
     12 O          20.6744   70.2706   -8.7785 O.3     1  UNL1       -0.3794
     13 H          19.1437   70.7474  -10.9686 H       1  UNL1        0.2106
     14 H          20.6348   69.9212   -9.6787 H       1  UNL1        0.2105
     15 N          17.0854   73.1246   -8.5381 N.ar    1  UNL1       -0.2551
     16 C          15.9811   73.0713   -7.7732 C.ar    1  UNL1        0.3323
     17 N          14.9121   73.8432   -8.0444 N.ar    1  UNL1       -0.2743
     18 C          14.9294   74.6810   -9.1007 C.ar    1  UNL1        0.2626
     19 C          16.0833   74.7428   -9.9179 C.ar    1  UNL1        0.0795
     20 C          17.1434   73.9614   -9.6199 C.ar    1  UNL1        0.0869
     21 O          15.9503   72.3208   -6.8170 O.2     1  UNL1       -0.2464
     22 O          13.9617   75.3759   -9.3497 O.2     1  UNL1       -0.2670
     23 H          14.1257   73.7954   -7.4792 H       1  UNL1        0.1734
     24 O          23.7056   72.9246   -4.1825 O.3     1  UNL1       -0.2703
     25 P          22.7728   71.8938   -3.3722 P.3     1  UNL1        0.2208
     26 O          23.5388   70.6630   -3.0767 O.2     1  UNL1       -0.5170
     27 O          21.4836   71.5219   -4.2622 O.3     1  UNL1       -0.4371
     28 O          22.2937   72.5716   -1.9933 O.3     1  UNL1       -0.2865
     29 C          21.0888   71.9104   -1.6031 C.3     1  UNL1        0.2611
     30 C          20.1428   72.9242   -0.9570 C.3     1  UNL1        0.1582
     31 C          20.8344   73.5508    0.2590 C.3     1  UNL1        0.1625
     32 C          21.3149   72.4266    1.1828 C.3     1  UNL1        0.1686
     33 C          22.1751   71.4518    0.3758 C.3     1  UNL1        0.1760
     34 O          19.9100   74.3868    0.9576 O.3     1  UNL1       -0.3801
     35 O          22.0898   72.9812    2.2475 O.3     1  UNL1       -0.3794
     36 O          21.3964   70.8752   -0.6719 O.3     1  UNL1       -0.3263
     37 H          20.3857   74.7595    1.7126 H       1  UNL1        0.2105
     38 H          22.3721   72.2409    2.8031 H       1  UNL1        0.2105
     39 C          18.5306   74.1640   -2.2979 C.2     1  UNL1        0.2231
     40 C          18.1892   75.2412   -3.2955 C.3     1  UNL1        0.0946
     41 N          19.8106   73.9709   -1.9257 N.am    1  UNL1       -0.2994
     42 O          17.6528   73.4704   -1.8304 O.2     1  UNL1       -0.2751
     43 H          20.5133   74.5257   -2.2999 H       1  UNL1        0.1496
     44 C          22.6870   70.3424    1.2968 C.3     1  UNL1        0.1693
     45 O          22.8484   69.1367    0.5468 O.3     1  UNL1       -0.3794
     46 H          23.1711   68.4651    1.1627 H       1  UNL1        0.2105
@<TRIPOS>BOND
     1    29    30    1
     2    29    28    1
     3    29    36    1
     4    30    31    1
     5    30    41    1
     6    31    32    1
     7    31    34    1
     8    32    33    1
     9    32    35    1
    10    33    44    1
    11    33    36    1
    12    44    45    1
    13    39    40    1
    14    39    41   am
    15    39    42    2
    16    41    43    1
    17    28    25    1
    18    34    37    1
    19    35    38    1
    20    45    46    1
    21    15    16   ar
    22    15    20   ar
    23    15     6    1
    24    16    17   ar
    25    16    21    2
    26    17    18   ar
    27    17    23    1
    28    18    19   ar
    29    18    22    2
    30    19    20   ar
    31     6     7    1
    32     6    11    1
    33     7     8    1
    34     7     9    1
    35     8    13    1
    36     9    10    1
    37     9    12    1
    38    10    11    1
    39    10     5    1
    40    12    14    1
    41     5     4    1
    42     4     1    1
    43     1     2    2
    44     1     3    1
    45     1    24    1
    46    24    25    1
    47    25    26    2
    48    25    27    1
@<TRIPOS>MOLECULE
UD1
 46 48 0 0 0
SMALL
GASTEIGER

@<TRIPOS>ATOM
      1 P          22.0998   71.2817   -3.1741 P.3     1  UNL1        0.2189
      2 O          23.5165   71.4159   -3.5787 O.2     1  UNL1       -0.5170
      3 O          21.1872   72.2433   -4.0880 O.3     1  UNL1       -0.4371
      4 O          21.9414   71.7037   -1.6283 O.3     1  UNL1       -0.3112
      5 C          21.2651   72.9617   -1.6098 C.3     1  UNL1        0.1811
      6 C          21.0284   73.7266    1.8953 C.3     1  UNL1        0.2383
      7 C          20.6983   75.0624    1.1834 C.3     1  UNL1        0.1895
      8 O          19.7881   75.8434    1.9585 O.3     1  UNL1       -0.3779
      9 C          20.0309   74.5755   -0.1292 C.3     1  UNL1        0.1713
     10 C          20.5223   73.1231   -0.2826 C.3     1  UNL1        0.1764
     11 O          21.4139   72.8533    0.8126 O.3     1  UNL1       -0.3308
     12 O          18.6071   74.6191   -0.0126 O.3     1  UNL1       -0.3794
     13 H          19.6248   76.6575    1.4626 H       1  UNL1        0.2106
     14 H          18.3676   75.5428    0.1410 H       1  UNL1        0.2105
     15 N          22.1346   73.8998    2.8375 N.ar    1  UNL1       -0.2551
     16 C          23.3238   74.3437    2.3946 C.ar    1  UNL1        0.3323
     17 N          24.3577   74.5161    3.2394 N.ar    1  UNL1       -0.2743
     18 C          24.2178   74.2353    4.5507 C.ar    1  UNL1        0.2626
     19 C          22.9731   73.7616    5.0294 C.ar    1  UNL1        0.0795
     20 C          21.9512   73.6029    4.1612 C.ar    1  UNL1        0.0869
     21 O          23.4655   74.6012    1.2147 O.2     1  UNL1       -0.2464
     22 O          25.1533   74.3863    5.3145 O.2     1  UNL1       -0.2670
     23 H          25.2070   74.8417    2.9034 H       1  UNL1        0.1734
     24 O          21.6297   69.7547   -3.3642 O.3     1  UNL1       -0.2703
     25 P          20.0854   69.6847   -2.9175 P.3     1  UNL1        0.2208
     26 O          19.9974   69.7132   -1.4409 O.2     1  UNL1       -0.5170
     27 O          19.4282   68.3216   -3.4672 O.3     1  UNL1       -0.4371
     28 O          19.2915   70.9453   -3.5267 O.3     1  UNL1       -0.2865
     29 C          18.1251   70.4289   -4.1703 C.3     1  UNL1        0.2611
     30 C          17.9138   71.1616   -5.4963 C.3     1  UNL1        0.1582
     31 C          17.7607   72.6618   -5.2212 C.3     1  UNL1        0.1625
     32 C          16.6508   72.8589   -4.1833 C.3     1  UNL1        0.1686
     33 C          16.9591   72.0004   -2.9548 C.3     1  UNL1        0.1760
     34 O          17.4145   73.3376   -6.4315 O.3     1  UNL1       -0.3801
     35 O          16.5907   74.2351   -3.8034 O.3     1  UNL1       -0.3794
     36 O          16.9928   70.6227   -3.3256 O.3     1  UNL1       -0.3263
     37 H          17.3288   74.2758   -6.2129 H       1  UNL1        0.2105
     38 H          15.8813   74.3141   -3.1500 H       1  UNL1        0.2105
     39 C          18.8858   70.7055   -7.6830 C.2     1  UNL1        0.2231
     40 C          20.0746   70.4750   -8.5807 C.3     1  UNL1        0.0946
     41 N          19.0684   70.9382   -6.3689 N.am    1  UNL1       -0.2994
     42 O          17.7644   70.6807   -8.1436 O.2     1  UNL1       -0.2751
     43 H          19.9656   70.9579   -6.0000 H       1  UNL1        0.1496
     44 C          15.8731   72.2150   -1.8985 C.3     1  UNL1        0.1693
     45 O          16.2272   73.3235   -1.0691 O.3     1  UNL1       -0.3794
     46 H          15.5188   73.4240   -0.4189 H       1  UNL1        0.2105
@<TRIPOS>BOND
     1    29    30    1
     2    29    28    1
     3    29    36    1
     4    30    31    1
     5    30    41    1
     6    31    32    1
     7    31    34    1
     8    32    33    1
     9    32    35    1
    10    33    44    1
    11    33    36    1
    12    44    45    1
    13    39    40    1
    14    39    41   am
    15    39    42    2
    16    41    43    1
    17    28    25    1
    18    34    37    1
    19    35    38    1
    20    45    46    1
    21    15    16   ar
    22    15    20   ar
    23    15     6    1
    24    16    17   ar
    25    16    21    2
    26    17    18   ar
    27    17    23    1
    28    18    19   ar
    29    18    22    2
    30    19    20   ar
    31     6     7    1
    32     6    11    1
    33     7     8    1
    34     7     9    1
    35     8    13    1
    36     9    10    1
    37     9    12    1
    38    10    11    1
    39    10     5    1
    40    12    14    1
    41     5     4    1
    42     4     1    1
    43     1     2    2
    44     1     3    1
    45     1    24    1
    46    24    25    1
    47    25    26    2
    48    25    27    1
@<TRIPOS>MOLECULE
UD1
 46 48 0 0 0
SMALL
GASTEIGER

@<TRIPOS>ATOM
      1 P          22.8079   74.1414   -4.3780 P.3     1  UNL1        0.2189
      2 O          23.4995   72.8373   -4.4761 O.2     1  UNL1       -0.5170
      3 O          23.5978   75.2353   -5.2567 O.3     1  UNL1       -0.4371
      4 O          22.7720   74.6148   -2.8394 O.3     1  UNL1       -0.3112
      5 C          21.8065   73.7966   -2.1770 C.3     1  UNL1        0.1811
      6 C          22.4333   72.2408    1.0032 C.3     1  UNL1        0.2383
      7 C          21.3997   71.3145    0.3149 C.3     1  UNL1        0.1895
      8 O          21.5745   69.9584    0.7270 O.3     1  UNL1       -0.3779
      9 C          21.7553   71.4874   -1.1847 C.3     1  UNL1        0.1713
     10 C          22.5199   72.8242   -1.2365 C.3     1  UNL1        0.1764
     11 O          22.5394   73.3599    0.0977 O.3     1  UNL1       -0.3308
     12 O          22.5847   70.4117   -1.6295 O.3     1  UNL1       -0.3794
     13 H          20.9036   69.4366    0.2653 H       1  UNL1        0.2106
     14 H          22.0730   69.5995   -1.5167 H       1  UNL1        0.2105
     15 N          21.9470   72.6799    2.3117 N.ar    1  UNL1       -0.2551
     16 C          20.8843   73.4999    2.3867 C.ar    1  UNL1        0.3323
     17 N          20.4130   73.9166    3.5768 N.ar    1  UNL1       -0.2743
     18 C          21.0097   73.5222    4.7198 C.ar    1  UNL1        0.2626
     19 C          22.1330   72.6638    4.6551 C.ar    1  UNL1        0.0795
     20 C          22.5817   72.2567    3.4483 C.ar    1  UNL1        0.0869
     21 O          20.3354   73.8642    1.3647 O.2     1  UNL1       -0.2464
     22 O          20.5873   73.9021    5.7962 O.2     1  UNL1       -0.2670
     23 H          19.6425   74.5041    3.6124 H       1  UNL1        0.1734
     24 O          21.3034   73.9939   -4.9291 O.3     1  UNL1       -0.2703
     25 P          21.2412   72.6086   -5.7455 P.3     1  UNL1        0.2208
     26 O          21.4045   71.4758   -4.8080 O.2     1  UNL1       -0.5170
     27 O          22.4236   72.5750   -6.8378 O.3     1  UNL1       -0.4371
     28 O          19.8201   72.4872   -6.4913 O.3     1  UNL1       -0.2865
     29 C          18.8137   72.7414   -5.5096 C.3     1  UNL1        0.2611
     30 C          17.8830   71.5311   -5.4154 C.3     1  UNL1        0.1582
     31 C          17.2486   71.2785   -6.7877 C.3     1  UNL1        0.1625
     32 C          16.5865   72.5745   -7.2676 C.3     1  UNL1        0.1686
     33 C          17.6161   73.7056   -7.2251 C.3     1  UNL1        0.1760
     34 O          16.2662   70.2469   -6.6785 O.3     1  UNL1       -0.3801
     35 O          16.1168   72.4039   -8.6063 O.3     1  UNL1       -0.3794
     36 O          18.0670   73.8969   -5.8847 O.3     1  UNL1       -0.3263
     37 H          15.8940   70.1208   -7.5623 H       1  UNL1        0.2105
     38 H          15.7089   73.2414   -8.8684 H       1  UNL1        0.2105
     39 C          18.3221   69.6925   -3.8788 C.2     1  UNL1        0.2231
     40 C          19.1130   68.4805   -3.4571 C.3     1  UNL1        0.0946
     41 N          18.6507   70.3534   -5.0055 N.am    1  UNL1       -0.2994
     42 O          17.3899   70.0733   -3.2034 O.2     1  UNL1       -0.2751
     43 H          19.3968   70.0491   -5.5462 H       1  UNL1        0.1496
     44 C          16.9736   74.9978   -7.7334 C.3     1  UNL1        0.1693
     45 O          17.8678   75.6518   -8.6361 O.3     1  UNL1       -0.3794
     46 H          17.4259   76.4591   -8.9319 H       1  UNL1        0.2105
@<TRIPOS>BOND
     1    29    30    1
     2    29    28    1
     3    29    36    1
     4    30    31    1
     5    30    41    1
     6    31    32    1
     7    31    34    1
     8    32    33    1
     9    32    35    1
    10    33    44    1
    11    33    36    1
    12    44    45    1
    13    39    40    1
    14    39    41   am
    15    39    42    2
    16    41    43    1
    17    28    25    1
    18    34    37    1
    19    35    38    1
    20    45    46    1
    21    15    16   ar
    22    15    20   ar
    23    15     6    1
    24    16    17   ar
    25    16    21    2
    26    17    18   ar
    27    17    23    1
    28    18    19   ar
    29    18    22    2
    30    19    20   ar
    31     6     7    1
    32     6    11    1
    33     7     8    1
    34     7     9    1
    35     8    13    1
    36     9    10    1
    37     9    12    1
    38    10    11    1
    39    10     5    1
    40    12    14    1
    41     5     4    1
    42     4     1    1
    43     1     2    2
    44     1     3    1
    45     1    24    1
    46    24    25    1
    47    25    26    2
    48    25    27    1
@<TRIPOS>MOLECULE
UD1
 46 48 0 0 0
SMALL
GASTEIGER

@<TRIPOS>ATOM
      1 P          22.5392   73.2148   -4.5458 P.3     1  UNL1        0.2189
      2 O          23.8000   72.5454   -4.1571 O.2     1  UNL1       -0.5170
      3 O          22.7635   74.8090   -4.5708 O.3     1  UNL1       -0.4371
      4 O          21.3888   72.8524   -3.4789 O.3     1  UNL1       -0.3112
      5 C          21.6897   73.5754   -2.2843 C.3     1  UNL1        0.1811
      6 C          22.4162   72.1748    0.9465 C.3     1  UNL1        0.2383
      7 C          21.4072   71.1849    0.3123 C.3     1  UNL1        0.1895
      8 O          21.6364   69.8540    0.7763 O.3     1  UNL1       -0.3779
      9 C          21.7355   71.3085   -1.1984 C.3     1  UNL1        0.1713
     10 C          22.4506   72.6684   -1.3160 C.3     1  UNL1        0.1764
     11 O          22.4693   73.2588   -0.0052 O.3     1  UNL1       -0.3308
     12 O          22.5968   70.2455   -1.6118 O.3     1  UNL1       -0.3794
     13 H          20.9784   69.2903    0.3466 H       1  UNL1        0.2106
     14 H          22.1164   69.4211   -1.4583 H       1  UNL1        0.2105
     15 N          21.9325   72.6498    2.2434 N.ar    1  UNL1       -0.2551
     16 C          20.8757   73.4790    2.2974 C.ar    1  UNL1        0.3323
     17 N          20.4068   73.9285    3.4765 N.ar    1  UNL1       -0.2743
     18 C          21.0003   73.5585    4.6293 C.ar    1  UNL1        0.2626
     19 C          22.1175   72.6908    4.5866 C.ar    1  UNL1        0.0795
     20 C          22.5637   72.2507    3.3906 C.ar    1  UNL1        0.0869
     21 O          20.3297   73.8216    1.2663 O.2     1  UNL1       -0.2464
     22 O          20.5802   73.9682    5.6956 O.2     1  UNL1       -0.2670
     23 H          19.6405   74.5222    3.4971 H       1  UNL1        0.1734
     24 O          22.0929   72.7117   -6.0075 O.3     1  UNL1       -0.2703
     25 P          20.6526   73.3649   -6.3043 P.3     1  UNL1        0.2208
     26 O          20.4898   73.5583   -7.7620 O.2     1  UNL1       -0.5170
     27 O          20.5442   74.7882   -5.5595 O.3     1  UNL1       -0.4371
     28 O          19.4959   72.3868   -5.7603 O.3     1  UNL1       -0.2865
     29 C          19.6606   71.1365   -6.4317 C.3     1  UNL1        0.2611
     30 C          18.3551   70.7667   -7.1380 C.3     1  UNL1        0.1582
     31 C          17.2309   70.6792   -6.0996 C.3     1  UNL1        0.1625
     32 C          17.6650   69.7192   -4.9869 C.3     1  UNL1        0.1686
     33 C          19.0214   70.1700   -4.4408 C.3     1  UNL1        0.1760
     34 O          16.0414   70.1899   -6.7218 O.3     1  UNL1       -0.3801
     35 O          16.6961   69.7354   -3.9369 O.3     1  UNL1       -0.3794
     36 O          19.9977   70.1287   -5.4809 O.3     1  UNL1       -0.3263
     37 H          15.3622   70.1513   -6.0344 H       1  UNL1        0.2105
     38 H          17.0083   69.1196   -3.2587 H       1  UNL1        0.2105
     39 C          17.1697   72.7829   -7.8190 C.2     1  UNL1        0.2231
     40 C          16.8323   73.8381   -8.8413 C.3     1  UNL1        0.0946
     41 N          18.0275   71.7922   -8.1305 N.am    1  UNL1       -0.2994
     42 O          16.6683   72.8253   -6.7159 O.2     1  UNL1       -0.2751
     43 H          18.4287   71.7579   -9.0134 H       1  UNL1        0.1496
     44 C          19.4489   69.2364   -3.3065 C.3     1  UNL1        0.1693
     45 O          18.2968   68.8244   -2.5683 O.3     1  UNL1       -0.3794
     46 H          18.6095   68.2394   -1.8650 H       1  UNL1        0.2105
@<TRIPOS>BOND
     1    29    30    1
     2    29    28    1
     3    29    36    1
     4    30    31    1
     5    30    41    1
     6    31    32    1
     7    31    34    1
     8    32    33    1
     9    32    35    1
    10    33    44    1
    11    33    36    1
    12    44    45    1
    13    39    40    1
    14    39    41   am
    15    39    42    2
    16    41    43    1
    17    28    25    1
    18    34    37    1
    19    35    38    1
    20    45    46    1
    21    15    16   ar
    22    15    20   ar
    23    15     6    1
    24    16    17   ar
    25    16    21    2
    26    17    18   ar
    27    17    23    1
    28    18    19   ar
    29    18    22    2
    30    19    20   ar
    31     6     7    1
    32     6    11    1
    33     7     8    1
    34     7     9    1
    35     8    13    1
    36     9    10    1
    37     9    12    1
    38    10    11    1
    39    10     5    1
    40    12    14    1
    41     5     4    1
    42     4     1    1
    43     1     2    2
    44     1     3    1
    45     1    24    1
    46    24    25    1
    47    25    26    2
    48    25    27    1
@<TRIPOS>MOLECULE
UD1
 46 48 0 0 0
SMALL
GASTEIGER

@<TRIPOS>ATOM
      1 P          21.2476   71.4214   -1.1220 P.3     1  UNL1        0.2189
      2 O          21.0304   70.0495   -0.6126 O.2     1  UNL1       -0.5170
      3 O          22.7596   71.5619   -1.6575 O.3     1  UNL1       -0.4371
      4 O          20.9995   72.4798    0.0658 O.3     1  UNL1       -0.3112
      5 C          22.2823   72.9725    0.4558 C.3     1  UNL1        0.1811
      6 C          23.1078   74.0375    3.7892 C.3     1  UNL1        0.2383
      7 C          21.5740   74.2317    3.6883 C.3     1  UNL1        0.1895
      8 O          20.9508   74.0485    4.9600 O.3     1  UNL1       -0.3779
      9 C          21.1670   73.1036    2.7049 C.3     1  UNL1        0.1713
     10 C          22.4730   72.7675    1.9594 C.3     1  UNL1        0.1764
     11 O          23.4890   73.6591    2.4494 O.3     1  UNL1       -0.3308
     12 O          20.6852   71.9648    3.4217 O.3     1  UNL1       -0.3794
     13 H          20.0020   74.1829    4.8290 H       1  UNL1        0.2106
     14 H          19.9048   72.2537    3.9131 H       1  UNL1        0.2105
     15 N          23.7647   75.2853    4.1798 N.ar    1  UNL1       -0.2551
     16 C          24.9274   75.2437    4.8534 C.ar    1  UNL1        0.3323
     17 N          25.5559   76.3757    5.2220 N.ar    1  UNL1       -0.2743
     18 C          25.0201   77.5773    4.9270 C.ar    1  UNL1        0.2626
     19 C          23.7935   77.6356    4.2235 C.ar    1  UNL1        0.0795
     20 C          23.1871   76.4848    3.8612 C.ar    1  UNL1        0.0869
     21 O          25.4233   74.1676    5.1268 O.2     1  UNL1       -0.2464
     22 O          25.5850   78.6014    5.2639 O.2     1  UNL1       -0.2670
     23 H          26.3963   76.3270    5.7032 H       1  UNL1        0.1734
     24 O          20.2214   71.7157   -2.3257 O.3     1  UNL1       -0.2703
     25 P          19.9976   70.3214   -3.0972 P.3     1  UNL1        0.2208
     26 O          19.1527   69.4309   -2.2714 O.2     1  UNL1       -0.5170
     27 O          21.4217   69.6176   -3.3591 O.3     1  UNL1       -0.4371
     28 O          19.2696   70.5969   -4.5060 O.3     1  UNL1       -0.2865
     29 C          19.5998   71.9332   -4.8888 C.3     1  UNL1        0.2611
     30 C          18.3124   72.7392   -5.0704 C.3     1  UNL1        0.1582
     31 C          17.4474   72.0673   -6.1427 C.3     1  UNL1        0.1625
     32 C          18.2893   71.8887   -7.4106 C.3     1  UNL1        0.1686
     33 C          19.5772   71.1440   -7.0529 C.3     1  UNL1        0.1760
     34 O          16.3142   72.8893   -6.4282 O.3     1  UNL1       -0.3801
     35 O          17.5503   71.1335   -8.3725 O.3     1  UNL1       -0.3794
     36 O          20.3310   71.9086   -6.1128 O.3     1  UNL1       -0.3263
     37 H          15.7991   72.4296   -7.1054 H       1  UNL1        0.2105
     38 H          18.1161   71.0442   -9.1525 H       1  UNL1        0.2105
     39 C          16.5781   71.9101   -3.5742 C.2     1  UNL1        0.2231
     40 C          15.8225   71.9550   -2.2706 C.3     1  UNL1        0.0946
     41 N          17.5785   72.7821   -3.8040 N.am    1  UNL1       -0.2994
     42 O          16.2848   71.0890   -4.4169 O.2     1  UNL1       -0.2751
     43 H          17.8132   73.4394   -3.1299 H       1  UNL1        0.1496
     44 C          20.4105   70.9318   -8.3185 C.3     1  UNL1        0.1693
     45 O          20.1684   69.6214   -8.8346 O.3     1  UNL1       -0.3794
     46 H          20.7113   69.5289   -9.6291 H       1  UNL1        0.2105
@<TRIPOS>BOND
     1    29    30    1
     2    29    28    1
     3    29    36    1
     4    30    31    1
     5    30    41    1
     6    31    32    1
     7    31    34    1
     8    32    33    1
     9    32    35    1
    10    33    44    1
    11    33    36    1
    12    44    45    1
    13    39    40    1
    14    39    41   am
    15    39    42    2
    16    41    43    1
    17    28    25    1
    18    34    37    1
    19    35    38    1
    20    45    46    1
    21    15    16   ar
    22    15    20   ar
    23    15     6    1
    24    16    17   ar
    25    16    21    2
    26    17    18   ar
    27    17    23    1
    28    18    19   ar
    29    18    22    2
    30    19    20   ar
    31     6     7    1
    32     6    11    1
    33     7     8    1
    34     7     9    1
    35     8    13    1
    36     9    10    1
    37     9    12    1
    38    10    11    1
    39    10     5    1
    40    12    14    1
    41     5     4    1
    42     4     1    1
    43     1     2    2
    44     1     3    1
    45     1    24    1
    46    24    25    1
    47    25    26    2
    48    25    27    1
@<TRIPOS>MOLECULE
UD1
 46 48 0 0 0
SMALL
GASTEIGER

@<TRIPOS>ATOM
      1 P          18.7434   72.8126   -2.5489 P.3     1  UNL1        0.2189
      2 O          19.0515   74.2113   -2.9194 O.2     1  UNL1       -0.5170
      3 O          17.3352   72.7614   -1.7699 O.3     1  UNL1       -0.4371
      4 O          19.9061   72.2430   -1.5916 O.3     1  UNL1       -0.3112
      5 C          20.8253   73.3147   -1.3743 C.3     1  UNL1        0.1811
      6 C          22.9164   72.4531    1.4208 C.3     1  UNL1        0.2383
      7 C          22.1466   71.1486    1.0953 C.3     1  UNL1        0.1895
      8 O          22.9298   69.9989    1.4178 O.3     1  UNL1       -0.3779
      9 C          21.9408   71.2658   -0.4374 C.3     1  UNL1        0.1713
     10 C          22.0979   72.7720   -0.7222 C.3     1  UNL1        0.1764
     11 O          22.3187   73.4268    0.5386 O.3     1  UNL1       -0.3308
     12 O          22.9347   70.5118   -1.1348 O.3     1  UNL1       -0.3794
     13 H          22.3960   69.2243    1.1931 H       1  UNL1        0.2106
     14 H          22.8225   69.5892   -0.8696 H       1  UNL1        0.2105
     15 N          22.7217   72.8358    2.8197 N.ar    1  UNL1       -0.2551
     16 C          21.5688   72.5300    3.4399 C.ar    1  UNL1        0.3323
     17 N          21.3638   72.8662    4.7272 N.ar    1  UNL1       -0.2743
     18 C          22.3153   73.5276    5.4165 C.ar    1  UNL1        0.2626
     19 C          23.5314   73.8610    4.7741 C.ar    1  UNL1        0.0795
     20 C          23.7128   73.5071    3.4837 C.ar    1  UNL1        0.0869
     21 O          20.7011   71.9336    2.8315 O.2     1  UNL1       -0.2464
     22 O          22.1292   73.8362    6.5790 O.2     1  UNL1       -0.2670
     23 H          20.5280   72.6334    5.1601 H       1  UNL1        0.1734
     24 O          18.6548   71.9120   -3.8793 O.3     1  UNL1       -0.2703
     25 P          17.3067   72.3441   -4.6443 P.3     1  UNL1        0.2208
     26 O          16.9297   73.7169   -4.2417 O.2     1  UNL1       -0.5170
     27 O          16.1199   71.3272   -4.2576 O.3     1  UNL1       -0.4371
     28 O          17.5527   72.2998   -6.2343 O.3     1  UNL1       -0.2865
     29 C          18.2468   73.4997   -6.5800 C.3     1  UNL1        0.2611
     30 C          17.5021   74.2047   -7.7151 C.3     1  UNL1        0.1582
     31 C          17.4178   73.2619   -8.9208 C.3     1  UNL1        0.1625
     32 C          18.8311   72.7819   -9.2674 C.3     1  UNL1        0.1686
     33 C          19.4744   72.1814   -8.0157 C.3     1  UNL1        0.1760
     34 O          16.8584   73.9590  -10.0355 O.3     1  UNL1       -0.3801
     35 O          18.7607   71.7897  -10.2931 O.3     1  UNL1       -0.3794
     36 O          19.5713   73.1773   -6.9983 O.3     1  UNL1       -0.3263
     37 H          16.8236   73.3301  -10.7694 H       1  UNL1        0.2105
     38 H          19.6697   71.5152  -10.4797 H       1  UNL1        0.2105
     39 C          15.6424   75.7700   -7.5549 C.2     1  UNL1        0.2231
     40 C          14.2522   76.1310   -7.0974 C.3     1  UNL1        0.0946
     41 N          16.1515   74.5557   -7.2713 N.am    1  UNL1       -0.2994
     42 O          16.3033   76.5733   -8.1780 O.2     1  UNL1       -0.2751
     43 H          15.6229   73.9128   -6.7725 H       1  UNL1        0.1496
     44 C          20.8747   71.6692   -8.3591 C.3     1  UNL1        0.1693
     45 O          20.7873   70.3240   -8.8333 O.3     1  UNL1       -0.3794
     46 H          21.6887   70.0402   -9.0376 H       1  UNL1        0.2105
@<TRIPOS>BOND
     1    29    30    1
     2    29    28    1
     3    29    36    1
     4    30    31    1
     5    30    41    1
     6    31    32    1
     7    31    34    1
     8    32    33    1
     9    32    35    1
    10    33    44    1
    11    33    36    1
    12    44    45    1
    13    39    40    1
    14    39    41   am
    15    39    42    2
    16    41    43    1
    17    28    25    1
    18    34    37    1
    19    35    38    1
    20    45    46    1
    21    15    16   ar
    22    15    20   ar
    23    15     6    1
    24    16    17   ar
    25    16    21    2
    26    17    18   ar
    27    17    23    1
    28    18    19   ar
    29    18    22    2
    30    19    20   ar
    31     6     7    1
    32     6    11    1
    33     7     8    1
    34     7     9    1
    35     8    13    1
    36     9    10    1
    37     9    12    1
    38    10    11    1
    39    10     5    1
    40    12    14    1
    41     5     4    1
    42     4     1    1
    43     1     2    2
    44     1     3    1
    45     1    24    1
    46    24    25    1
    47    25    26    2
    48    25    27    1
@<TRIPOS>MOLECULE
UD1
 46 48 0 0 0
SMALL
GASTEIGER

@<TRIPOS>ATOM
      1 P          22.7788   73.3830   -4.8392 P.3     1  UNL1        0.2189
      2 O          23.0795   74.7995   -5.1425 O.2     1  UNL1       -0.5170
      3 O          23.9948   72.7442   -3.9991 O.3     1  UNL1       -0.4371
      4 O          22.5920   72.5680   -6.2153 O.3     1  UNL1       -0.3112
      5 C          21.5254   73.1969   -6.9273 C.3     1  UNL1        0.1811
      6 C          18.2449   72.1822   -7.9932 C.3     1  UNL1        0.2383
      7 C          19.1244   72.0467   -9.2615 C.3     1  UNL1        0.1895
      8 O          18.6469   70.9980  -10.1050 O.3     1  UNL1       -0.3779
      9 C          20.5084   71.6871   -8.6611 C.3     1  UNL1        0.1713
     10 C          20.4215   72.1745   -7.2019 C.3     1  UNL1        0.1764
     11 O          19.1328   72.7883   -7.0300 O.3     1  UNL1       -0.3308
     12 O          20.7242   70.2751   -8.7117 O.3     1  UNL1       -0.3794
     13 H          19.2344   70.9665  -10.8727 H       1  UNL1        0.2106
     14 H          20.7085   70.0235   -9.6448 H       1  UNL1        0.2105
     15 N          17.0933   73.0477   -8.2499 N.ar    1  UNL1       -0.2551
     16 C          15.9729   72.8994   -7.5217 C.ar    1  UNL1        0.3323
     17 N          14.8997   73.6841   -7.7333 N.ar    1  UNL1       -0.2743
     18 C          14.9292   74.6316   -8.6921 C.ar    1  UNL1        0.2626
     19 C          16.1002   74.7945   -9.4701 C.ar    1  UNL1        0.0795
     20 C          17.1640   73.9974   -9.2332 C.ar    1  UNL1        0.0869
     21 O          15.9310   72.0493   -6.6532 O.2     1  UNL1       -0.2464
     22 O          13.9578   75.3384   -8.8875 O.2     1  UNL1       -0.2670
     23 H          14.1016   73.5664   -7.1954 H       1  UNL1        0.1734
     24 O          21.4241   73.2950   -3.9755 O.3     1  UNL1       -0.2703
     25 P          21.6235   74.2542   -2.6990 P.3     1  UNL1        0.2208
     26 O          20.6127   75.3342   -2.7310 O.2     1  UNL1       -0.5170
     27 O          23.0982   74.8991   -2.7365 O.3     1  UNL1       -0.4371
     28 O          21.4489   73.3959   -1.3487 O.3     1  UNL1       -0.2865
     29 C          22.7475   72.9214   -0.9884 C.3     1  UNL1        0.2611
     30 C          22.6928   71.4064   -0.7840 C.3     1  UNL1        0.1582
     31 C          21.6750   71.0855    0.3163 C.3     1  UNL1        0.1625
     32 C          22.0301   71.8995    1.5650 C.3     1  UNL1        0.1686
     33 C          22.1317   73.3780    1.1839 C.3     1  UNL1        0.1760
     34 O          21.7227   69.6903    0.6206 O.3     1  UNL1       -0.3801
     35 O          21.0119   71.7281    2.5528 O.3     1  UNL1       -0.3794
     36 O          23.1664   73.5567    0.2175 O.3     1  UNL1       -0.3263
     37 H          21.0683   69.5333    1.3151 H       1  UNL1        0.2105
     38 H          21.2743   72.2569    3.3196 H       1  UNL1        0.2105
     39 C          20.9940   70.4389   -2.2373 C.2     1  UNL1        0.2231
     40 C          20.5763   69.7709   -3.5225 C.3     1  UNL1        0.0946
     41 N          22.2865   70.7579   -2.0325 N.am    1  UNL1       -0.2994
     42 O          20.1664   70.6888   -1.3871 O.2     1  UNL1       -0.2751
     43 H          22.9490   70.5578   -2.7126 H       1  UNL1        0.1496
     44 C          22.4541   74.2039    2.4309 C.3     1  UNL1        0.1693
     45 O          23.8550   74.4838    2.4683 O.3     1  UNL1       -0.3794
     46 H          24.0151   75.0040    3.2672 H       1  UNL1        0.2105
@<TRIPOS>BOND
     1    29    30    1
     2    29    28    1
     3    29    36    1
     4    30    31    1
     5    30    41    1
     6    31    32    1
     7    31    34    1
     8    32    33    1
     9    32    35    1
    10    33    44    1
    11    33    36    1
    12    44    45    1
    13    39    40    1
    14    39    41   am
    15    39    42    2
    16    41    43    1
    17    28    25    1
    18    34    37    1
    19    35    38    1
    20    45    46    1
    21    15    16   ar
    22    15    20   ar
    23    15     6    1
    24    16    17   ar
    25    16    21    2
    26    17    18   ar
    27    17    23    1
    28    18    19   ar
    29    18    22    2
    30    19    20   ar
    31     6     7    1
    32     6    11    1
    33     7     8    1
    34     7     9    1
    35     8    13    1
    36     9    10    1
    37     9    12    1
    38    10    11    1
    39    10     5    1
    40    12    14    1
    41     5     4    1
    42     4     1    1
    43     1     2    2
    44     1     3    1
    45     1    24    1
    46    24    25    1
    47    25    26    2
    48    25    27    1
@<TRIPOS>MOLECULE
UD1
 46 48 0 0 0
SMALL
GASTEIGER

@<TRIPOS>ATOM
      1 P          22.9784   72.3263   -3.2544 P.3     1  UNL1        0.2189
      2 O          23.4306   70.9204   -3.1668 O.2     1  UNL1       -0.5170
      3 O          23.8764   73.1127   -4.3350 O.3     1  UNL1       -0.4371
      4 O          23.1342   73.0302   -1.8145 O.3     1  UNL1       -0.3112
      5 C          22.8346   74.4150   -1.9962 C.3     1  UNL1        0.1811
      6 C          26.1542   75.7704   -1.7311 C.3     1  UNL1        0.2383
      7 C          25.3637   76.8338   -2.5339 C.3     1  UNL1        0.1895
      8 O          25.8718   78.1448   -2.2841 O.3     1  UNL1       -0.3779
      9 C          23.9315   76.6767   -1.9601 C.3     1  UNL1        0.1713
     10 C          23.9275   75.2639   -1.3449 C.3     1  UNL1        0.1764
     11 O          25.2167   74.6807   -1.5999 O.3     1  UNL1       -0.3308
     12 O          23.6823   77.6660   -0.9591 O.3     1  UNL1       -0.3794
     13 H          25.3396   78.7566   -2.8113 H       1  UNL1        0.2106
     14 H          23.7575   78.5267   -1.3923 H       1  UNL1        0.2105
     15 N          27.3439   75.3420   -2.4676 N.ar    1  UNL1       -0.2551
     16 C          27.2457   75.0389   -3.7737 C.ar    1  UNL1        0.3323
     17 N          28.3241   74.6459   -4.4771 N.ar    1  UNL1       -0.2743
     18 C          29.5262   74.5406   -3.8756 C.ar    1  UNL1        0.2626
     19 C          29.6426   74.8508   -2.4997 C.ar    1  UNL1        0.0795
     20 C          28.5458   75.2477   -1.8194 C.ar    1  UNL1        0.0869
     21 O          26.1683   75.1290   -4.3303 O.2     1  UNL1       -0.2464
     22 O          30.5010   74.1807   -4.5094 O.2     1  UNL1       -0.2670
     23 H          28.2360   74.4358   -5.4196 H       1  UNL1        0.1734
     24 O          21.4348   72.3665   -3.7068 O.3     1  UNL1       -0.2703
     25 P          21.4088   72.9042   -5.2232 P.3     1  UNL1        0.2208
     26 O          22.6743   72.5401   -5.8975 O.2     1  UNL1       -0.5170
     27 O          21.2435   74.5058   -5.2227 O.3     1  UNL1       -0.4371
     28 O          20.1716   72.2388   -6.0088 O.3     1  UNL1       -0.2865
     29 C          19.0357   73.0736   -5.7763 C.3     1  UNL1        0.2611
     30 C          17.8908   72.2252   -5.2200 C.3     1  UNL1        0.1582
     31 C          17.5525   71.1188   -6.2255 C.3     1  UNL1        0.1625
     32 C          17.2839   71.7621   -7.5901 C.3     1  UNL1        0.1686
     33 C          18.4762   72.6431   -7.9690 C.3     1  UNL1        0.1760
     34 O          16.3896   70.4133   -5.7878 O.3     1  UNL1       -0.3801
     35 O          17.1109   70.7406   -8.5741 O.3     1  UNL1       -0.3794
     36 O          18.6351   73.6810   -7.0026 O.3     1  UNL1       -0.3263
     37 H          16.2135   69.7285   -6.4475 H       1  UNL1        0.2105
     38 H          16.9454   71.1884   -9.4160 H       1  UNL1        0.2105
     39 C          18.8042   70.3761   -3.9236 C.2     1  UNL1        0.2231
     40 C          19.2240   69.7579   -2.6144 C.3     1  UNL1        0.0946
     41 N          18.2992   71.6245   -3.9485 N.am    1  UNL1       -0.2994
     42 O          18.9205   69.7492   -4.9549 O.2     1  UNL1       -0.2751
     43 H          18.2058   72.1263   -3.1233 H       1  UNL1        0.1496
     44 C          18.2322   73.2648   -9.3456 C.3     1  UNL1        0.1693
     45 O          18.5734   72.3205  -10.3625 O.3     1  UNL1       -0.3794
     46 H          18.4058   72.7510  -11.2117 H       1  UNL1        0.2105
@<TRIPOS>BOND
     1    29    30    1
     2    29    28    1
     3    29    36    1
     4    30    31    1
     5    30    41    1
     6    31    32    1
     7    31    34    1
     8    32    33    1
     9    32    35    1
    10    33    44    1
    11    33    36    1
    12    44    45    1
    13    39    40    1
    14    39    41   am
    15    39    42    2
    16    41    43    1
    17    28    25    1
    18    34    37    1
    19    35    38    1
    20    45    46    1
    21    15    16   ar
    22    15    20   ar
    23    15     6    1
    24    16    17   ar
    25    16    21    2
    26    17    18   ar
    27    17    23    1
    28    18    19   ar
    29    18    22    2
    30    19    20   ar
    31     6     7    1
    32     6    11    1
    33     7     8    1
    34     7     9    1
    35     8    13    1
    36     9    10    1
    37     9    12    1
    38    10    11    1
    39    10     5    1
    40    12    14    1
    41     5     4    1
    42     4     1    1
    43     1     2    2
    44     1     3    1
    45     1    24    1
    46    24    25    1
    47    25    26    2
    48    25    27    1
