@<TRIPOS>MOLECULE
*****
 43 45 0 0 0
SMALL
GASTEIGER

@<TRIPOS>ATOM
      1 P          22.8390   72.0968   -2.5406 P.3     1  UNL1        0.2189
      2 O          23.3100   73.3591   -1.6441 O.co2   1  UNL1       -0.4371
      3 O          23.5518   71.9506   -3.8530 O.2     1  UNL1       -0.5170
      4 O          21.2317   72.2608   -2.6284 O.3     1  UNL1       -0.3112
      5 C          20.5117   71.4083   -3.4998 C.3     1  UNL1        0.1811
      6 O          18.5751   72.2112   -4.6756 O.3     1  UNL1       -0.3308
      7 O          16.9561   70.9661   -2.4801 O.3     1  UNL1       -0.3794
      8 O          16.7438   69.1345   -4.4891 O.3     1  UNL1       -0.3779
      9 C          18.1693   70.5095   -3.0785 C.3     1  UNL1        0.1713
     10 C          17.8952   69.9519   -4.4592 C.3     1  UNL1        0.1895
     11 C          19.0264   71.7284   -3.3916 C.3     1  UNL1        0.1764
     12 C          17.7355   71.2173   -5.2845 C.3     1  UNL1        0.2383
     13 H          16.3918   70.2049   -2.2710 H       1  UNL1        0.2105
     14 H          16.8957   68.3422   -3.9494 H       1  UNL1        0.2106
     15 O          16.0255   70.3379   -7.3530 O.2     1  UNL1       -0.2464
     16 O          19.4002   70.5579  -10.4846 O.2     1  UNL1       -0.2670
     17 N          18.1412   71.0361   -6.6495 N.ar    1  UNL1       -0.2551
     18 N          17.7081   70.4474   -8.9105 N.ar    1  UNL1       -0.2743
     19 C          17.2039   70.5901   -7.6111 C.ar    1  UNL1        0.3323
     20 C          19.4529   71.3006   -7.0242 C.ar    1  UNL1        0.0869
     21 C          19.9187   71.1600   -8.2668 C.ar    1  UNL1        0.0795
     22 C          19.0043   70.6974   -9.3313 C.ar    1  UNL1        0.2626
     23 H          17.0747   70.1361   -9.5970 H       1  UNL1        0.1734
     24 O          23.0222   70.8470   -1.5320 O.3     1  UNL1       -0.2703
     25 P          22.2970   70.4998   -0.1294 P.3     1  UNL1        0.2208
     26 O          23.3298   69.4725    0.5766 O.co2   1  UNL1       -0.4371
     27 O          20.8995   69.9705   -0.2732 O.2     1  UNL1       -0.5170
     28 O          22.4137   71.8549    0.7381 O.3     1  UNL1       -0.2858
     29 O          21.7003   72.3683    2.9374 O.3     1  UNL1       -0.3226
     30 O          21.1519   75.9814    1.0106 O.3     1  UNL1       -0.3794
     31 O          20.4060   73.4777   -0.2969 O.3     1  UNL1       -0.3775
     32 O          23.4123   75.6106    2.8005 O.3     1  UNL1       -0.3792
     33 C          21.7767   74.7242    1.2694 C.3     1  UNL1        0.1718
     34 C          20.7608   73.5983    1.0758 C.3     1  UNL1        0.1968
     35 C          22.2875   74.7381    2.7119 C.3     1  UNL1        0.1723
     36 C          21.3244   72.2629    1.5637 C.3     1  UNL1        0.2706
     37 C          22.7140   73.3448    3.1653 C.3     1  UNL1        0.1830
     38 H          20.8193   75.9959    0.0993 H       1  UNL1        0.2105
     39 H          20.0478   74.3216   -0.6131 H       1  UNL1        0.2106
     40 H          23.1543   76.5008    2.5145 H       1  UNL1        0.2106
     41 O          24.0193   73.9650    5.0127 O.co2   1  UNL1       -0.5466
     42 O          22.1365   72.7487    5.4308 O.co2   1  UNL1       -0.5466
     43 C          22.8944   73.3014    4.6478 C.2     1  UNL1        0.0799
@<TRIPOS>UNITY_ATOM_ATTR
2 1
charge -1
26 1
charge -1
41 1
charge -1
@<TRIPOS>BOND
     1     1     4    1
     2     1    24    1
     3     1     2    1
     4     1     3    2
     5    25    28    1
     6    25    24    1
     7    25    26    1
     8    25    27    2
     9     6    11    1
    10     6    12    1
    11    29    36    1
    12    29    37    1
    13     7     9    1
    14     7    13    1
    15     8    10    1
    16     8    14    1
    17     4     5    1
    18    28    36    1
    19    30    33    1
    20    30    38    1
    21    31    34    1
    22    31    39    1
    23    32    35    1
    24    32    40    1
    25    41    43   ar
    26    15    19    2
    27    42    43   ar
    28    16    22    2
    29    17    12    1
    30    17    19   ar
    31    17    20   ar
    32    18    19   ar
    33    18    22   ar
    34    18    23    1
    35     9    10    1
    36     9    11    1
    37    10    12    1
    38    11     5    1
    39    33    34    1
    40    33    35    1
    41    34    36    1
    42    35    37    1
    43    37    43    1
    44    20    21   ar
    45    21    22   ar
@<TRIPOS>MOLECULE
*****
 43 45 0 0 0
SMALL
GASTEIGER

@<TRIPOS>ATOM
      1 P          23.0299   71.8221   -3.0721 P.3     1  UNL1        0.2189
      2 O          23.8634   72.9367   -3.8977 O.co2   1  UNL1       -0.4371
      3 O          23.6003   70.4353   -3.1266 O.2     1  UNL1       -0.5170
      4 O          21.5169   71.9816   -3.6229 O.3     1  UNL1       -0.3112
      5 C          20.6653   70.8508   -3.5972 C.3     1  UNL1        0.1811
      6 O          18.8060   71.9122   -4.6900 O.3     1  UNL1       -0.3308
      7 O          17.0994   70.7313   -2.5256 O.3     1  UNL1       -0.3794
      8 O          16.6629   69.0388   -4.6187 O.3     1  UNL1       -0.3779
      9 C          18.2479   70.1818   -3.1718 C.3     1  UNL1        0.1713
     10 C          17.8945   69.7284   -4.5724 C.3     1  UNL1        0.1895
     11 C          19.2240   71.3187   -3.4417 C.3     1  UNL1        0.1764
     12 C          17.8565   71.0448   -5.3298 C.3     1  UNL1        0.2383
     13 H          16.4611   70.0235   -2.3430 H       1  UNL1        0.2105
     14 H          16.7386   68.2081   -4.1227 H       1  UNL1        0.2106
     15 O          16.0308   70.4559   -7.4027 O.2     1  UNL1       -0.2464
     16 O          19.3595   70.4857  -10.5906 O.2     1  UNL1       -0.2670
     17 N          18.2190   70.8932   -6.7106 N.ar    1  UNL1       -0.2551
     18 N          17.6906   70.4703   -8.9883 N.ar    1  UNL1       -0.2743
     19 C          17.2249   70.5973   -7.6730 C.ar    1  UNL1        0.3323
     20 C          19.5451   71.0390   -7.0995 C.ar    1  UNL1        0.0869
     21 C          19.9737   70.9152   -8.3572 C.ar    1  UNL1        0.0795
     22 C          18.9989   70.6058   -9.4237 C.ar    1  UNL1        0.2626
     23 H          17.0172   70.2624   -9.6758 H       1  UNL1        0.1734
     24 O          22.9453   72.4576   -1.5883 O.3     1  UNL1       -0.2703
     25 P          22.1020   72.0037   -0.2857 P.3     1  UNL1        0.2208
     26 O          22.5516   70.4634   -0.0723 O.co2   1  UNL1       -0.4371
     27 O          20.6194   72.2034   -0.4117 O.2     1  UNL1       -0.5170
     28 O          22.7830   72.8003    0.9407 O.3     1  UNL1       -0.2858
     29 O          21.6398   73.8772    2.7135 O.3     1  UNL1       -0.3226
     30 O          25.1647   76.0263    2.5580 O.3     1  UNL1       -0.3794
     31 O          23.7935   75.2507    0.0978 O.3     1  UNL1       -0.3775
     32 O          24.7370   74.0756    4.6705 O.3     1  UNL1       -0.3792
     33 C          24.3366   74.8704    2.4315 C.3     1  UNL1        0.1718
     34 C          23.2377   75.1382    1.4028 C.3     1  UNL1        0.1968
     35 C          23.7224   74.5765    3.8021 C.3     1  UNL1        0.1723
     36 C          22.1992   74.0155    1.4068 C.3     1  UNL1        0.2706
     37 C          22.6092   73.5376    3.7025 C.3     1  UNL1        0.1830
     38 H          25.5659   76.2324    1.6990 H       1  UNL1        0.2105
     39 H          24.4535   75.9611    0.0880 H       1  UNL1        0.2106
     40 H          25.4518   74.7274    4.7424 H       1  UNL1        0.2106
     41 O          22.6121   73.3475    6.0403 O.co2   1  UNL1       -0.5466
     42 O          20.5882   73.5938    5.0193 O.co2   1  UNL1       -0.5466
     43 C          21.8051   73.4994    4.9611 C.2     1  UNL1        0.0799
@<TRIPOS>UNITY_ATOM_ATTR
2 1
charge -1
26 1
charge -1
41 1
charge -1
@<TRIPOS>BOND
     1     1     4    1
     2     1    24    1
     3     1     2    1
     4     1     3    2
     5    25    28    1
     6    25    24    1
     7    25    26    1
     8    25    27    2
     9     6    11    1
    10     6    12    1
    11    29    36    1
    12    29    37    1
    13     7     9    1
    14     7    13    1
    15     8    10    1
    16     8    14    1
    17     4     5    1
    18    28    36    1
    19    30    33    1
    20    30    38    1
    21    31    34    1
    22    31    39    1
    23    32    35    1
    24    32    40    1
    25    41    43   ar
    26    15    19    2
    27    42    43   ar
    28    16    22    2
    29    17    12    1
    30    17    19   ar
    31    17    20   ar
    32    18    19   ar
    33    18    22   ar
    34    18    23    1
    35     9    10    1
    36     9    11    1
    37    10    12    1
    38    11     5    1
    39    33    34    1
    40    33    35    1
    41    34    36    1
    42    35    37    1
    43    37    43    1
    44    20    21   ar
    45    21    22   ar
@<TRIPOS>MOLECULE
*****
 43 45 0 0 0
SMALL
GASTEIGER

@<TRIPOS>ATOM
      1 P          22.9727   72.0273   -3.0694 P.3     1  UNL1        0.2189
      2 O          23.7261   70.5955   -3.1051 O.co2   1  UNL1       -0.4371
      3 O          22.7270   72.5799   -1.6961 O.2     1  UNL1       -0.5170
      4 O          21.6552   71.7958   -3.9797 O.3     1  UNL1       -0.3112
      5 C          20.7842   70.7295   -3.6497 C.3     1  UNL1        0.1811
      6 O          18.9625   71.8897   -4.7046 O.3     1  UNL1       -0.3308
      7 O          17.2437   70.8168   -2.4942 O.3     1  UNL1       -0.3794
      8 O          16.6627   69.1427   -4.5669 O.3     1  UNL1       -0.3779
      9 C          18.3436   70.2003   -3.1640 C.3     1  UNL1        0.1713
     10 C          17.9321   69.7616   -4.5534 C.3     1  UNL1        0.1895
     11 C          19.3758   71.2789   -3.4631 C.3     1  UNL1        0.1764
     12 C          17.9506   71.0747   -5.3171 C.3     1  UNL1        0.2383
     13 H          16.5710   70.1471   -2.2927 H       1  UNL1        0.2105
     14 H          16.7031   68.3112   -4.0681 H       1  UNL1        0.2106
     15 O          16.0636   70.4439   -7.3216 O.2     1  UNL1       -0.2464
     16 O          19.2935   70.4158  -10.6096 O.2     1  UNL1       -0.2670
     17 N          18.2711   70.8969   -6.7051 N.ar    1  UNL1       -0.2551
     18 N          17.6742   70.4295   -8.9571 N.ar    1  UNL1       -0.2743
     19 C          17.2486   70.5813   -7.6309 C.ar    1  UNL1        0.3323
     20 C          19.5844   71.0367   -7.1371 C.ar    1  UNL1        0.0869
     21 C          19.9747   70.8891   -8.4046 C.ar    1  UNL1        0.0795
     22 C          18.9684   70.5580   -9.4347 C.ar    1  UNL1        0.2626
     23 H          16.9805   70.2076   -9.6196 H       1  UNL1        0.1734
     24 O          23.9065   72.9522   -4.0103 O.3     1  UNL1       -0.2703
     25 P          24.3345   74.5059   -3.8817 P.3     1  UNL1        0.2208
     26 O          24.0285   74.8465   -2.3290 O.co2   1  UNL1       -0.4371
     27 O          23.6511   75.4160   -4.8608 O.2     1  UNL1       -0.5170
     28 O          25.9443   74.4970   -3.9869 O.3     1  UNL1       -0.2858
     29 O          27.6414   75.7688   -2.9326 O.3     1  UNL1       -0.3226
     30 O          29.1734   75.3175   -6.7428 O.3     1  UNL1       -0.3794
     31 O          26.3414   75.9149   -6.3466 O.3     1  UNL1       -0.3775
     32 O          30.2431   73.7449   -4.5442 O.3     1  UNL1       -0.3792
     33 C          28.4286   74.9408   -5.5846 C.3     1  UNL1        0.1718
     34 C          27.3301   75.9719   -5.3249 C.3     1  UNL1        0.1968
     35 C          29.3948   74.8824   -4.3993 C.3     1  UNL1        0.1723
     36 C          26.6616   75.7299   -3.9709 C.3     1  UNL1        0.2706
     37 C          28.6455   74.7666   -3.0750 C.3     1  UNL1        0.1830
     38 H          28.5799   75.3612   -7.5090 H       1  UNL1        0.2105
     39 H          26.7586   76.0673   -7.2086 H       1  UNL1        0.2106
     40 H          30.7257   73.8063   -5.3833 H       1  UNL1        0.2106
     41 O          29.4649   74.0557   -0.9954 O.co2   1  UNL1       -0.5466
     42 O          30.2914   76.0120   -1.8254 O.co2   1  UNL1       -0.5466
     43 C          29.5578   75.0398   -1.9237 C.2     1  UNL1        0.0799
@<TRIPOS>UNITY_ATOM_ATTR
2 1
charge -1
26 1
charge -1
41 1
charge -1
@<TRIPOS>BOND
     1     1     4    1
     2     1    24    1
     3     1     2    1
     4     1     3    2
     5    25    28    1
     6    25    24    1
     7    25    26    1
     8    25    27    2
     9     6    11    1
    10     6    12    1
    11    29    36    1
    12    29    37    1
    13     7     9    1
    14     7    13    1
    15     8    10    1
    16     8    14    1
    17     4     5    1
    18    28    36    1
    19    30    33    1
    20    30    38    1
    21    31    34    1
    22    31    39    1
    23    32    35    1
    24    32    40    1
    25    41    43   ar
    26    15    19    2
    27    42    43   ar
    28    16    22    2
    29    17    12    1
    30    17    19   ar
    31    17    20   ar
    32    18    19   ar
    33    18    22   ar
    34    18    23    1
    35     9    10    1
    36     9    11    1
    37    10    12    1
    38    11     5    1
    39    33    34    1
    40    33    35    1
    41    34    36    1
    42    35    37    1
    43    37    43    1
    44    20    21   ar
    45    21    22   ar
@<TRIPOS>MOLECULE
*****
 43 45 0 0 0
SMALL
GASTEIGER

@<TRIPOS>ATOM
      1 P          23.0207   71.7511   -3.2114 P.3     1  UNL1        0.2189
      2 O          23.8217   72.8742   -4.0575 O.co2   1  UNL1       -0.4371
      3 O          23.6784   70.4031   -3.1663 O.2     1  UNL1       -0.5170
      4 O          21.5287   71.7843   -3.8367 O.3     1  UNL1       -0.3112
      5 C          20.6545   70.7062   -3.5576 C.3     1  UNL1        0.1811
      6 O          18.8554   71.8643   -4.6529 O.3     1  UNL1       -0.3308
      7 O          17.0813   70.7551   -2.5049 O.3     1  UNL1       -0.3794
      8 O          16.5736   69.0991   -4.6112 O.3     1  UNL1       -0.3779
      9 C          18.2050   70.1539   -3.1488 C.3     1  UNL1        0.1713
     10 C          17.8373   69.7272   -4.5542 C.3     1  UNL1        0.1895
     11 C          19.2371   71.2432   -3.4064 C.3     1  UNL1        0.1764
     12 C          17.8680   71.0485   -5.3032 C.3     1  UNL1        0.2383
     13 H          16.4082   70.0783   -2.3301 H       1  UNL1        0.2105
     14 H          16.6059   68.2626   -4.1201 H       1  UNL1        0.2106
     15 O          16.0339   70.5011   -7.3800 O.2     1  UNL1       -0.2464
     16 O          19.3697   70.4524  -10.5603 O.2     1  UNL1       -0.2670
     17 N          18.2301   70.8879   -6.6830 N.ar    1  UNL1       -0.2551
     18 N          17.6972   70.4763   -8.9618 N.ar    1  UNL1       -0.2743
     19 C          17.2316   70.6147   -7.6476 C.ar    1  UNL1        0.3323
     20 C          19.5601   71.0028   -7.0690 C.ar    1  UNL1        0.0869
     21 C          19.9886   70.8685   -8.3256 C.ar    1  UNL1        0.0795
     22 C          19.0093   70.5812   -9.3942 C.ar    1  UNL1        0.2626
     23 H          17.0207   70.2838   -9.6507 H       1  UNL1        0.1734
     24 O          22.8258   72.4539   -1.7689 O.3     1  UNL1       -0.2703
     25 P          22.8936   74.0076   -1.3273 P.3     1  UNL1        0.2208
     26 O          21.7750   74.7077   -2.2649 O.co2   1  UNL1       -0.4371
     27 O          24.2606   74.6191   -1.4340 O.2     1  UNL1       -0.5170
     28 O          22.2598   74.0397    0.1558 O.3     1  UNL1       -0.2858
     29 O          23.4936   74.3871    2.1473 O.3     1  UNL1       -0.3226
     30 O          20.1989   72.3257    3.5485 O.3     1  UNL1       -0.3794
     31 O          21.5008   71.5213    1.0601 O.3     1  UNL1       -0.3775
     32 O          20.4201   75.1916    3.9827 O.3     1  UNL1       -0.3792
     33 C          20.9097   73.2180    2.6903 C.3     1  UNL1        0.1718
     34 C          22.0354   72.4614    1.9847 C.3     1  UNL1        0.1968
     35 C          21.4841   74.3452    3.5513 C.3     1  UNL1        0.1723
     36 C          22.9580   73.4255    1.2375 C.3     1  UNL1        0.2706
     37 C          22.4899   75.1857    2.7701 C.3     1  UNL1        0.1830
     38 H          19.8248   71.6009    3.0232 H       1  UNL1        0.2105
     39 H          20.9141   70.9066    1.5274 H       1  UNL1        0.2106
     40 H          19.7728   74.6688    4.4811 H       1  UNL1        0.2106
     41 O          22.5622   77.1550    4.0422 O.co2   1  UNL1       -0.5466
     42 O          24.4138   75.8248    4.0785 O.co2   1  UNL1       -0.5466
     43 C          23.2792   76.0592    3.6901 C.2     1  UNL1        0.0799
@<TRIPOS>UNITY_ATOM_ATTR
2 1
charge -1
26 1
charge -1
41 1
charge -1
@<TRIPOS>BOND
     1     1     4    1
     2     1    24    1
     3     1     2    1
     4     1     3    2
     5    25    28    1
     6    25    24    1
     7    25    26    1
     8    25    27    2
     9     6    11    1
    10     6    12    1
    11    29    36    1
    12    29    37    1
    13     7     9    1
    14     7    13    1
    15     8    10    1
    16     8    14    1
    17     4     5    1
    18    28    36    1
    19    30    33    1
    20    30    38    1
    21    31    34    1
    22    31    39    1
    23    32    35    1
    24    32    40    1
    25    41    43   ar
    26    15    19    2
    27    42    43   ar
    28    16    22    2
    29    17    12    1
    30    17    19   ar
    31    17    20   ar
    32    18    19   ar
    33    18    22   ar
    34    18    23    1
    35     9    10    1
    36     9    11    1
    37    10    12    1
    38    11     5    1
    39    33    34    1
    40    33    35    1
    41    34    36    1
    42    35    37    1
    43    37    43    1
    44    20    21   ar
    45    21    22   ar
@<TRIPOS>MOLECULE
*****
 43 45 0 0 0
SMALL
GASTEIGER

@<TRIPOS>ATOM
      1 P          23.0307   71.9152   -3.4036 P.3     1  UNL1        0.2189
      2 O          23.7652   72.9292   -4.4289 O.co2   1  UNL1       -0.4371
      3 O          23.6897   70.5751   -3.2568 O.2     1  UNL1       -0.5170
      4 O          21.4955   71.8911   -3.9141 O.3     1  UNL1       -0.3112
      5 C          20.6608   70.8263   -3.4967 C.3     1  UNL1        0.1811
      6 O          18.8451   71.9468   -4.6036 O.3     1  UNL1       -0.3308
      7 O          17.0855   70.8252   -2.4501 O.3     1  UNL1       -0.3794
      8 O          16.6083   69.1454   -4.5445 O.3     1  UNL1       -0.3779
      9 C          18.2198   70.2375   -3.0876 C.3     1  UNL1        0.1713
     10 C          17.8616   69.7943   -4.4903 C.3     1  UNL1        0.1895
     11 C          19.2346   71.3414   -3.3518 C.3     1  UNL1        0.1764
     12 C          17.8722   71.1102   -5.2492 C.3     1  UNL1        0.2383
     13 H          16.4231   70.1390   -2.2713 H       1  UNL1        0.2105
     14 H          16.6533   68.3132   -4.0471 H       1  UNL1        0.2106
     15 O          16.0586   70.4674   -7.3167 O.2     1  UNL1       -0.2464
     16 O          19.3920   70.5014  -10.4997 O.2     1  UNL1       -0.2670
     17 N          18.2392   70.9451   -6.6272 N.ar    1  UNL1       -0.2551
     18 N          17.7208   70.4839   -8.8999 N.ar    1  UNL1       -0.2743
     19 C          17.2511   70.6221   -7.5871 C.ar    1  UNL1        0.3323
     20 C          19.5637   71.1045   -7.0161 C.ar    1  UNL1        0.0869
     21 C          19.9963   70.9697   -8.2713 C.ar    1  UNL1        0.0795
     22 C          19.0278   70.6320   -9.3350 C.ar    1  UNL1        0.2626
     23 H          17.0515   70.2572   -9.5855 H       1  UNL1        0.1734
     24 O          22.9463   72.7772   -2.0388 O.3     1  UNL1       -0.2703
     25 P          22.5409   74.3210   -1.7818 P.3     1  UNL1        0.2208
     26 O          21.2638   74.5347   -2.7531 O.co2   1  UNL1       -0.4371
     27 O          23.6593   75.2970   -2.0069 O.2     1  UNL1       -0.5170
     28 O          21.9259   74.3398   -0.2905 O.3     1  UNL1       -0.2858
     29 O          21.1209   72.1435    0.0800 O.3     1  UNL1       -0.3226
     30 O          20.4239   73.9233    3.7426 O.3     1  UNL1       -0.3794
     31 O          19.8600   75.3643    1.2646 O.3     1  UNL1       -0.3775
     32 O          22.6488   72.0812    3.4152 O.3     1  UNL1       -0.3792
     33 C          21.1115   73.7013    2.5114 C.3     1  UNL1        0.1718
     34 C          20.1673   73.9770    1.3409 C.3     1  UNL1        0.1968
     35 C          21.5785   72.2441    2.4866 C.3     1  UNL1        0.1723
     36 C          20.7916   73.5317    0.0177 C.3     1  UNL1        0.2706
     37 C          22.0703   71.8403    1.0996 C.3     1  UNL1        0.1830
     38 H          20.1177   74.8431    3.7808 H       1  UNL1        0.2105
     39 H          19.4637   75.6537    2.1011 H       1  UNL1        0.2106
     40 H          22.3490   72.3351    4.3020 H       1  UNL1        0.2106
     41 O          23.3034   69.9304    1.6769 O.co2   1  UNL1       -0.5466
     42 O          21.4467   69.6201    0.3901 O.co2   1  UNL1       -0.5466
     43 C          22.2097   70.3562    0.9976 C.2     1  UNL1        0.0799
@<TRIPOS>UNITY_ATOM_ATTR
2 1
charge -1
26 1
charge -1
41 1
charge -1
@<TRIPOS>BOND
     1     1     4    1
     2     1    24    1
     3     1     2    1
     4     1     3    2
     5    25    28    1
     6    25    24    1
     7    25    26    1
     8    25    27    2
     9     6    11    1
    10     6    12    1
    11    29    36    1
    12    29    37    1
    13     7     9    1
    14     7    13    1
    15     8    10    1
    16     8    14    1
    17     4     5    1
    18    28    36    1
    19    30    33    1
    20    30    38    1
    21    31    34    1
    22    31    39    1
    23    32    35    1
    24    32    40    1
    25    41    43   ar
    26    15    19    2
    27    42    43   ar
    28    16    22    2
    29    17    12    1
    30    17    19   ar
    31    17    20   ar
    32    18    19   ar
    33    18    22   ar
    34    18    23    1
    35     9    10    1
    36     9    11    1
    37    10    12    1
    38    11     5    1
    39    33    34    1
    40    33    35    1
    41    34    36    1
    42    35    37    1
    43    37    43    1
    44    20    21   ar
    45    21    22   ar
@<TRIPOS>MOLECULE
*****
 43 45 0 0 0
SMALL
GASTEIGER

@<TRIPOS>ATOM
      1 P          22.7795   71.6907   -2.2019 P.3     1  UNL1        0.2189
      2 O          23.3335   73.2016   -2.3721 O.co2   1  UNL1       -0.4371
      3 O          23.4014   70.6805   -3.1209 O.2     1  UNL1       -0.5170
      4 O          21.1735   71.8505   -2.3171 O.3     1  UNL1       -0.3112
      5 C          20.5514   71.5530   -3.5536 C.3     1  UNL1        0.1811
      6 O          18.5895   72.2860   -4.7331 O.3     1  UNL1       -0.3308
      7 O          17.0136   71.0601   -2.4959 O.3     1  UNL1       -0.3794
      8 O          16.8259   69.1765   -4.4587 O.3     1  UNL1       -0.3779
      9 C          18.2319   70.6151   -3.0927 C.3     1  UNL1        0.1713
     10 C          17.9597   70.0186   -4.4574 C.3     1  UNL1        0.1895
     11 C          19.0604   71.8439   -3.4416 C.3     1  UNL1        0.1764
     12 C          17.7670   71.2601   -5.3115 C.3     1  UNL1        0.2383
     13 H          16.4672   70.2923   -2.2642 H       1  UNL1        0.2105
     14 H          16.9987   68.4009   -3.9014 H       1  UNL1        0.2106
     15 O          16.0570   70.3096   -7.3483 O.2     1  UNL1       -0.2464
     16 O          19.4076   70.5103  -10.5070 O.2     1  UNL1       -0.2670
     17 N          18.1664   71.0547   -6.6749 N.ar    1  UNL1       -0.2551
     18 N          17.7276   70.4095   -8.9194 N.ar    1  UNL1       -0.2743
     19 C          17.2298   70.5735   -7.6200 C.ar    1  UNL1        0.3323
     20 C          19.4716   71.3303   -7.0643 C.ar    1  UNL1        0.0869
     21 C          19.9314   71.1691   -8.3067 C.ar    1  UNL1        0.0795
     22 C          19.0171   70.6694   -9.3544 C.ar    1  UNL1        0.2626
     23 H          17.0946   70.0736   -9.5944 H       1  UNL1        0.1734
     24 O          23.0035   71.3972   -0.6282 O.3     1  UNL1       -0.2703
     25 P          22.1102   70.5689    0.4347 P.3     1  UNL1        0.2208
     26 O          23.2152   69.9452    1.4399 O.co2   1  UNL1       -0.4371
     27 O          21.1970   69.5528   -0.1878 O.2     1  UNL1       -0.5170
     28 O          21.3588   71.6993    1.3066 O.3     1  UNL1       -0.2858
     29 O          21.8285   74.0206    1.3018 O.3     1  UNL1       -0.3226
     30 O          20.2434   73.4913    5.0801 O.3     1  UNL1       -0.3794
     31 O          22.1224   71.5456    3.9766 O.3     1  UNL1       -0.3775
     32 O          18.6480   74.7289    2.9886 O.3     1  UNL1       -0.3792
     33 C          20.4022   73.2314    3.6854 C.3     1  UNL1        0.1718
     34 C          21.8469   72.8183    3.4031 C.3     1  UNL1        0.1968
     35 C          20.0563   74.5126    2.9232 C.3     1  UNL1        0.1723
     36 C          22.1137   72.7549    1.8986 C.3     1  UNL1        0.2706
     37 C          20.4675   74.4167    1.4568 C.3     1  UNL1        0.1830
     38 H          20.4578   72.6910    5.5848 H       1  UNL1        0.2105
     39 H          21.9550   71.5785    4.9312 H       1  UNL1        0.2106
     40 H          18.3733   74.7916    3.9168 H       1  UNL1        0.2106
     41 O          21.5896   76.4328    1.0353 O.co2   1  UNL1       -0.5466
     42 O          19.4981   76.2030    0.1566 O.co2   1  UNL1       -0.5466
     43 C          20.4335   75.7617    0.8073 C.2     1  UNL1        0.0799
@<TRIPOS>UNITY_ATOM_ATTR
2 1
charge -1
26 1
charge -1
41 1
charge -1
@<TRIPOS>BOND
     1     1     4    1
     2     1    24    1
     3     1     2    1
     4     1     3    2
     5    25    28    1
     6    25    24    1
     7    25    26    1
     8    25    27    2
     9     6    11    1
    10     6    12    1
    11    29    36    1
    12    29    37    1
    13     7     9    1
    14     7    13    1
    15     8    10    1
    16     8    14    1
    17     4     5    1
    18    28    36    1
    19    30    33    1
    20    30    38    1
    21    31    34    1
    22    31    39    1
    23    32    35    1
    24    32    40    1
    25    41    43   ar
    26    15    19    2
    27    42    43   ar
    28    16    22    2
    29    17    12    1
    30    17    19   ar
    31    17    20   ar
    32    18    19   ar
    33    18    22   ar
    34    18    23    1
    35     9    10    1
    36     9    11    1
    37    10    12    1
    38    11     5    1
    39    33    34    1
    40    33    35    1
    41    34    36    1
    42    35    37    1
    43    37    43    1
    44    20    21   ar
    45    21    22   ar
@<TRIPOS>MOLECULE
*****
 43 45 0 0 0
SMALL
GASTEIGER

@<TRIPOS>ATOM
      1 P          21.2499   73.8691   -5.1061 P.3     1  UNL1        0.2189
      2 O          19.7933   73.7619   -4.4090 O.co2   1  UNL1       -0.4371
      3 O          21.9897   75.1461   -4.8348 O.2     1  UNL1       -0.5170
      4 O          20.9600   73.5424   -6.6640 O.3     1  UNL1       -0.3112
      5 C          19.9092   74.2323   -7.3154 C.3     1  UNL1        0.1811
      6 O          19.4861   71.9902   -8.0715 O.3     1  UNL1       -0.3308
      7 O          17.6921   73.2229  -10.1339 O.3     1  UNL1       -0.3794
      8 O          15.9228   72.3422   -8.2550 O.3     1  UNL1       -0.3779
      9 C          17.9224   73.6213   -8.7823 C.3     1  UNL1        0.1713
     10 C          17.2292   72.6698   -7.8301 C.3     1  UNL1        0.1895
     11 C          19.3911   73.3766   -8.4642 C.3     1  UNL1        0.1764
     12 C          18.1655   71.4735   -7.8424 C.3     1  UNL1        0.2383
     13 H          16.7600   73.3700  -10.3603 H       1  UNL1        0.2105
     14 H          15.3657   73.1365   -8.2292 H       1  UNL1        0.2106
     15 O          16.0009   69.9090   -6.9241 O.2     1  UNL1       -0.2464
     16 O          18.2319   68.7641   -3.0568 O.2     1  UNL1       -0.2670
     17 N          18.1540   70.7558   -6.5992 N.ar    1  UNL1       -0.2551
     18 N          17.1137   69.3411   -4.9983 N.ar    1  UNL1       -0.2743
     19 C          17.0162   69.9995   -6.2313 C.ar    1  UNL1        0.3323
     20 C          19.2608   70.8039   -5.7603 C.ar    1  UNL1        0.0869
     21 C          19.3391   70.1710   -4.5882 C.ar    1  UNL1        0.0795
     22 C          18.1926   69.3595   -4.1293 C.ar    1  UNL1        0.2626
     23 H          16.3331   68.8098   -4.7198 H       1  UNL1        0.1734
     24 O          21.9992   72.5338   -4.5881 O.3     1  UNL1       -0.2703
     25 P          23.0444   72.3056   -3.3760 P.3     1  UNL1        0.2208
     26 O          24.2509   73.3247   -3.7313 O.co2   1  UNL1       -0.4371
     27 O          23.4738   70.8786   -3.1936 O.2     1  UNL1       -0.5170
     28 O          22.3260   72.9585   -2.0876 O.3     1  UNL1       -0.2858
     29 O          21.5737   71.1893   -0.7044 O.3     1  UNL1       -0.3226
     30 O          20.3555   74.5063    1.4362 O.3     1  UNL1       -0.3794
     31 O          20.0426   74.4205   -1.4671 O.3     1  UNL1       -0.3775
     32 O          22.6789   72.9861    2.2977 O.3     1  UNL1       -0.3792
     33 C          21.1988   73.7580    0.5603 C.3     1  UNL1        0.1718
     34 C          20.3958   73.3039   -0.6589 C.3     1  UNL1        0.1968
     35 C          21.7257   72.5462    1.3321 C.3     1  UNL1        0.1723
     36 C          21.1970   72.3117   -1.5030 C.3     1  UNL1        0.2706
     37 C          22.4016   71.5437    0.4011 C.3     1  UNL1        0.1830
     38 H          20.0088   75.2816    0.9673 H       1  UNL1        0.2105
     39 H          19.5343   75.0543   -0.9378 H       1  UNL1        0.2106
     40 H          22.2613   73.6249    2.8965 H       1  UNL1        0.2106
     41 O          21.8235   69.2758    0.5552 O.co2   1  UNL1       -0.5466
     42 O          23.3934   70.0505    2.0161 O.co2   1  UNL1       -0.5466
     43 C          22.6145   70.2369    1.0933 C.2     1  UNL1        0.0799
@<TRIPOS>UNITY_ATOM_ATTR
2 1
charge -1
26 1
charge -1
41 1
charge -1
@<TRIPOS>BOND
     1     1     4    1
     2     1    24    1
     3     1     2    1
     4     1     3    2
     5    25    28    1
     6    25    24    1
     7    25    26    1
     8    25    27    2
     9     6    11    1
    10     6    12    1
    11    29    36    1
    12    29    37    1
    13     7     9    1
    14     7    13    1
    15     8    10    1
    16     8    14    1
    17     4     5    1
    18    28    36    1
    19    30    33    1
    20    30    38    1
    21    31    34    1
    22    31    39    1
    23    32    35    1
    24    32    40    1
    25    41    43   ar
    26    15    19    2
    27    42    43   ar
    28    16    22    2
    29    17    12    1
    30    17    19   ar
    31    17    20   ar
    32    18    19   ar
    33    18    22   ar
    34    18    23    1
    35     9    10    1
    36     9    11    1
    37    10    12    1
    38    11     5    1
    39    33    34    1
    40    33    35    1
    41    34    36    1
    42    35    37    1
    43    37    43    1
    44    20    21   ar
    45    21    22   ar
@<TRIPOS>MOLECULE
*****
 43 45 0 0 0
SMALL
GASTEIGER

@<TRIPOS>ATOM
      1 P          22.8128   71.7837   -3.1310 P.3     1  UNL1        0.2189
      2 O          23.7407   73.1096   -3.1191 O.co2   1  UNL1       -0.4371
      3 O          23.5539   70.4937   -3.3268 O.2     1  UNL1       -0.5170
      4 O          21.6757   72.1152   -4.2332 O.3     1  UNL1       -0.3112
      5 C          21.6001   73.4302   -4.7523 C.3     1  UNL1        0.1811
      6 O          21.4888   72.2661   -6.8524 O.3     1  UNL1       -0.3308
      7 O          22.4811   74.8056   -8.1005 O.3     1  UNL1       -0.3794
      8 O          19.8065   74.8891   -8.6254 O.3     1  UNL1       -0.3779
      9 C          21.5930   74.6281   -6.9967 C.3     1  UNL1        0.1713
     10 C          20.2340   74.1735   -7.4854 C.3     1  UNL1        0.1895
     11 C          22.0668   73.4187   -6.2023 C.3     1  UNL1        0.1764
     12 C          20.4792   72.7027   -7.7761 C.3     1  UNL1        0.2383
     13 H          22.1986   75.5728   -8.6232 H       1  UNL1        0.2105
     14 H          19.6639   75.8195   -8.3885 H       1  UNL1        0.2106
     15 O          18.9532   71.6018   -9.8823 O.2     1  UNL1       -0.2464
     16 O          15.9767   69.6539   -6.9514 O.2     1  UNL1       -0.2670
     17 N          19.3007   71.9038   -7.5917 N.ar    1  UNL1       -0.2551
     18 N          17.4716   70.6335   -8.4205 N.ar    1  UNL1       -0.2743
     19 C          18.6071   71.3989   -8.7169 C.ar    1  UNL1        0.3323
     20 C          18.8445   71.6266   -6.3088 C.ar    1  UNL1        0.0869
     21 C          17.7605   70.8954   -6.0421 C.ar    1  UNL1        0.0795
     22 C          16.9784   70.3312   -7.1616 C.ar    1  UNL1        0.2626
     23 H          16.9710   70.2729   -9.1878 H       1  UNL1        0.1734
     24 O          22.0072   71.8921   -1.7338 O.3     1  UNL1       -0.2703
     25 P          21.5674   70.7558   -0.6713 P.3     1  UNL1        0.2208
     26 O          22.9657   70.0229   -0.3135 O.co2   1  UNL1       -0.4371
     27 O          20.4939   69.8310   -1.1676 O.2     1  UNL1       -0.5170
     28 O          21.1821   71.5725    0.6655 O.3     1  UNL1       -0.2858
     29 O          21.4117   73.8745    1.1730 O.3     1  UNL1       -0.3226
     30 O          21.9767   72.1363    4.8780 O.3     1  UNL1       -0.3794
     31 O          23.1894   70.9649    2.4923 O.3     1  UNL1       -0.3775
     32 O          19.4612   73.4520    4.2519 O.3     1  UNL1       -0.3792
     33 C          21.4345   72.2536    3.5627 C.3     1  UNL1        0.1718
     34 C          22.5697   72.2449    2.5385 C.3     1  UNL1        0.1968
     35 C          20.6590   73.5707    3.4865 C.3     1  UNL1        0.1723
     36 C          22.0509   72.5977    1.1438 C.3     1  UNL1        0.2706
     37 C          20.2862   73.9153    2.0475 C.3     1  UNL1        0.1830
     38 H          22.4741   71.3065    4.9501 H       1  UNL1        0.2105
     39 H          23.5207   70.7345    3.3741 H       1  UNL1        0.2106
     40 H          19.6845   73.2327    5.1699 H       1  UNL1        0.2106
     41 O          18.6834   75.4175    1.2255 O.co2   1  UNL1       -0.5466
     42 O          20.4067   76.2938    2.4344 O.co2   1  UNL1       -0.5466
     43 C          19.8313   75.3346    1.9427 C.2     1  UNL1        0.0799
@<TRIPOS>UNITY_ATOM_ATTR
2 1
charge -1
26 1
charge -1
41 1
charge -1
@<TRIPOS>BOND
     1     1     4    1
     2     1    24    1
     3     1     2    1
     4     1     3    2
     5    25    28    1
     6    25    24    1
     7    25    26    1
     8    25    27    2
     9     6    11    1
    10     6    12    1
    11    29    36    1
    12    29    37    1
    13     7     9    1
    14     7    13    1
    15     8    10    1
    16     8    14    1
    17     4     5    1
    18    28    36    1
    19    30    33    1
    20    30    38    1
    21    31    34    1
    22    31    39    1
    23    32    35    1
    24    32    40    1
    25    41    43   ar
    26    15    19    2
    27    42    43   ar
    28    16    22    2
    29    17    12    1
    30    17    19   ar
    31    17    20   ar
    32    18    19   ar
    33    18    22   ar
    34    18    23    1
    35     9    10    1
    36     9    11    1
    37    10    12    1
    38    11     5    1
    39    33    34    1
    40    33    35    1
    41    34    36    1
    42    35    37    1
    43    37    43    1
    44    20    21   ar
    45    21    22   ar
@<TRIPOS>MOLECULE
*****
 43 45 0 0 0
SMALL
GASTEIGER

@<TRIPOS>ATOM
      1 P          22.1755   73.7375   -7.1847 P.3     1  UNL1        0.2189
      2 O          23.1207   74.5238   -8.2370 O.co2   1  UNL1       -0.4371
      3 O          22.7967   72.5229   -6.5599 O.2     1  UNL1       -0.5170
      4 O          20.8064   73.4818   -8.0082 O.3     1  UNL1       -0.3112
      5 C          20.5380   72.1759   -8.4848 C.3     1  UNL1        0.1811
      6 O          18.4593   70.9914   -8.2524 O.3     1  UNL1       -0.3308
      7 O          17.1589   73.4156   -9.4456 O.3     1  UNL1       -0.3794
      8 O          16.6565   73.7198   -6.7827 O.3     1  UNL1       -0.3779
      9 C          18.2734   73.3331   -8.5571 C.3     1  UNL1        0.1713
     10 C          17.8049   72.9889   -7.1591 C.3     1  UNL1        0.1895
     11 C          19.0843   72.1007   -8.9338 C.3     1  UNL1        0.1764
     12 C          17.5373   71.4979   -7.2743 C.3     1  UNL1        0.2383
     13 H          16.6257   74.1956   -9.2245 H       1  UNL1        0.2105
     14 H          16.8787   74.6627   -6.7229 H       1  UNL1        0.2106
     15 O          16.1024   69.2032   -6.4670 O.2     1  UNL1       -0.2464
     16 O          18.4217   68.9272   -2.4935 O.2     1  UNL1       -0.2670
     17 N          17.7459   70.8063   -6.0338 N.ar    1  UNL1       -0.2551
     18 N          17.2582   69.0685   -4.4883 N.ar    1  UNL1       -0.2743
     19 C          16.9715   69.6633   -5.7240 C.ar    1  UNL1        0.3323
     20 C          18.7089   71.2595   -5.1404 C.ar    1  UNL1        0.0869
     21 C          18.9708   70.6820   -3.9663 C.ar    1  UNL1        0.0795
     22 C          18.2056   69.4830   -3.5662 C.ar    1  UNL1        0.2626
     23 H          16.7304   68.2724   -4.2497 H       1  UNL1        0.1734
     24 O          21.7582   74.8951   -6.1366 O.3     1  UNL1       -0.2703
     25 P          22.6004   75.6146   -4.9589 P.3     1  UNL1        0.2208
     26 O          22.1124   77.1557   -5.0437 O.co2   1  UNL1       -0.4371
     27 O          24.0866   75.4298   -5.0636 O.2     1  UNL1       -0.5170
     28 O          21.9510   75.0565   -3.5917 O.3     1  UNL1       -0.2858
     29 O          21.6046   72.7179   -3.4497 O.3     1  UNL1       -0.3226
     30 O          19.4038   74.0904   -0.2340 O.3     1  UNL1       -0.3794
     31 O          19.3239   75.4987   -2.7923 O.3     1  UNL1       -0.3775
     32 O          21.9838   72.8224    0.1982 O.3     1  UNL1       -0.3792
     33 C          20.4736   74.0979   -1.1793 C.3     1  UNL1        0.1718
     34 C          19.9057   74.2154   -2.5939 C.3     1  UNL1        0.1968
     35 C          21.2504   72.7884   -1.0247 C.3     1  UNL1        0.1723
     36 C          20.9979   73.9964   -3.6418 C.3     1  UNL1        0.2706
     37 C          22.2308   72.5831   -2.1758 C.3     1  UNL1        0.1830
     38 H          18.8959   74.9132   -0.3138 H       1  UNL1        0.2105
     39 H          18.6302   75.6445   -2.1306 H       1  UNL1        0.2106
     40 H          21.3714   72.9528    0.9390 H       1  UNL1        0.2106
     41 O          23.4721   70.9504   -3.3139 O.co2   1  UNL1       -0.5466
     42 O          22.5230   70.3416   -1.3321 O.co2   1  UNL1       -0.5466
     43 C          22.7363   71.1773   -2.1976 C.2     1  UNL1        0.0799
@<TRIPOS>UNITY_ATOM_ATTR
2 1
charge -1
26 1
charge -1
41 1
charge -1
@<TRIPOS>BOND
     1     1     4    1
     2     1    24    1
     3     1     2    1
     4     1     3    2
     5    25    28    1
     6    25    24    1
     7    25    26    1
     8    25    27    2
     9     6    11    1
    10     6    12    1
    11    29    36    1
    12    29    37    1
    13     7     9    1
    14     7    13    1
    15     8    10    1
    16     8    14    1
    17     4     5    1
    18    28    36    1
    19    30    33    1
    20    30    38    1
    21    31    34    1
    22    31    39    1
    23    32    35    1
    24    32    40    1
    25    41    43   ar
    26    15    19    2
    27    42    43   ar
    28    16    22    2
    29    17    12    1
    30    17    19   ar
    31    17    20   ar
    32    18    19   ar
    33    18    22   ar
    34    18    23    1
    35     9    10    1
    36     9    11    1
    37    10    12    1
    38    11     5    1
    39    33    34    1
    40    33    35    1
    41    34    36    1
    42    35    37    1
    43    37    43    1
    44    20    21   ar
    45    21    22   ar
@<TRIPOS>MOLECULE
*****
 43 45 0 0 0
SMALL
GASTEIGER

@<TRIPOS>ATOM
      1 P          20.6321   72.9850   -5.0688 P.3     1  UNL1        0.2189
      2 O          20.6639   73.4849   -6.6076 O.co2   1  UNL1       -0.4371
      3 O          20.3639   71.5201   -4.8840 O.2     1  UNL1       -0.5170
      4 O          19.5804   73.9871   -4.3563 O.3     1  UNL1       -0.3112
      5 C          19.2516   75.1988   -5.0107 C.3     1  UNL1        0.1811
      6 O          17.4796   74.9260   -6.6117 O.3     1  UNL1       -0.3308
      7 O          15.6390   74.6905   -4.2563 O.3     1  UNL1       -0.3794
      8 O          15.9820   72.0914   -5.0066 O.3     1  UNL1       -0.3779
      9 C          16.9806   74.2251   -4.4048 C.3     1  UNL1        0.1713
     10 C          17.0163   73.0064   -5.3024 C.3     1  UNL1        0.1895
     11 C          17.7451   75.2512   -5.2301 C.3     1  UNL1        0.1764
     12 C          16.8717   73.6264   -6.6818 C.3     1  UNL1        0.2383
     13 H          15.1308   74.0512   -3.7322 H       1  UNL1        0.2105
     14 H          16.1193   71.7244   -4.1186 H       1  UNL1        0.2106
     15 O          17.5407   74.6120   -9.2426 O.2     1  UNL1       -0.2464
     16 O          19.3951   70.5865  -10.5080 O.2     1  UNL1       -0.2670
     17 N          17.5297   72.8574   -7.6999 N.ar    1  UNL1       -0.2551
     18 N          18.4628   72.6058   -9.8707 N.ar    1  UNL1       -0.2743
     19 C          17.8205   73.4472   -8.9528 C.ar    1  UNL1        0.3323
     20 C          17.8813   71.5360   -7.4526 C.ar    1  UNL1        0.0869
     21 C          18.4933   70.7465   -8.3375 C.ar    1  UNL1        0.0795
     22 C          18.8318   71.2854   -9.6710 C.ar    1  UNL1        0.2626
     23 H          18.6736   72.9936  -10.7508 H       1  UNL1        0.1734
     24 O          22.0576   73.4862   -4.4948 O.3     1  UNL1       -0.2703
     25 P          23.0746   72.8064   -3.4378 P.3     1  UNL1        0.2208
     26 O          24.4024   73.7244   -3.5592 O.co2   1  UNL1       -0.4371
     27 O          23.3124   71.3418   -3.6666 O.2     1  UNL1       -0.5170
     28 O          22.4614   73.1670   -1.9899 O.3     1  UNL1       -0.2858
     29 O          21.6522   71.3051   -0.7702 O.3     1  UNL1       -0.3226
     30 O          20.2648   74.4652    1.5008 O.3     1  UNL1       -0.3794
     31 O          20.1258   74.5640   -1.4156 O.3     1  UNL1       -0.3775
     32 O          22.5531   72.9149    2.4014 O.3     1  UNL1       -0.3792
     33 C          21.1684   73.7832    0.6312 C.3     1  UNL1        0.1718
     34 C          20.4454   73.4010   -0.6606 C.3     1  UNL1        0.1968
     35 C          21.6648   72.5291    1.3542 C.3     1  UNL1        0.1723
     36 C          21.3084   72.4731   -1.5167 C.3     1  UNL1        0.2706
     37 C          22.4082   71.5953    0.4034 C.3     1  UNL1        0.1830
     38 H          19.9361   75.2659    1.0624 H       1  UNL1        0.2105
     39 H          19.5785   75.1575   -0.8784 H       1  UNL1        0.2106
     40 H          22.0922   73.5097    3.0136 H       1  UNL1        0.2106
     41 O          21.6868   69.3676    0.5386 O.co2   1  UNL1       -0.5466
     42 O          23.4526   69.9704    1.8491 O.co2   1  UNL1       -0.5466
     43 C          22.5971   70.2486    1.0223 C.2     1  UNL1        0.0799
@<TRIPOS>UNITY_ATOM_ATTR
2 1
charge -1
26 1
charge -1
41 1
charge -1
@<TRIPOS>BOND
     1     1     4    1
     2     1    24    1
     3     1     2    1
     4     1     3    2
     5    25    28    1
     6    25    24    1
     7    25    26    1
     8    25    27    2
     9     6    11    1
    10     6    12    1
    11    29    36    1
    12    29    37    1
    13     7     9    1
    14     7    13    1
    15     8    10    1
    16     8    14    1
    17     4     5    1
    18    28    36    1
    19    30    33    1
    20    30    38    1
    21    31    34    1
    22    31    39    1
    23    32    35    1
    24    32    40    1
    25    41    43   ar
    26    15    19    2
    27    42    43   ar
    28    16    22    2
    29    17    12    1
    30    17    19   ar
    31    17    20   ar
    32    18    19   ar
    33    18    22   ar
    34    18    23    1
    35     9    10    1
    36     9    11    1
    37    10    12    1
    38    11     5    1
    39    33    34    1
    40    33    35    1
    41    34    36    1
    42    35    37    1
    43    37    43    1
    44    20    21   ar
    45    21    22   ar
@<TRIPOS>MOLECULE
*****
 43 45 0 0 0
SMALL
GASTEIGER

@<TRIPOS>ATOM
      1 P          21.5887   72.9878   -6.1512 P.3     1  UNL1        0.2189
      2 O          21.3491   74.5090   -5.6539 O.co2   1  UNL1       -0.4371
      3 O          22.7706   72.7956   -7.0557 O.2     1  UNL1       -0.5170
      4 O          20.1567   72.5491   -6.7636 O.3     1  UNL1       -0.3112
      5 C          19.7464   71.2012   -6.6250 C.3     1  UNL1        0.1811
      6 O          17.5414   70.9272   -7.5417 O.3     1  UNL1       -0.3308
      7 O          18.8583   70.9669  -10.2353 O.3     1  UNL1       -0.3794
      8 O          17.8641   73.4970  -10.0209 O.3     1  UNL1       -0.3779
      9 C          19.1897   71.7012   -9.0565 C.3     1  UNL1        0.1713
     10 C          18.1836   72.8095   -8.8293 C.3     1  UNL1        0.1895
     11 C          18.9449   70.7975   -7.8558 C.3     1  UNL1        0.1764
     12 C          16.9996   72.0484   -8.2578 C.3     1  UNL1        0.2383
     13 H          19.0067   71.5238  -11.0160 H       1  UNL1        0.2105
     14 H          18.6500   73.9655  -10.3445 H       1  UNL1        0.2106
     15 O          14.9725   73.8437   -9.0603 O.2     1  UNL1       -0.2464
     16 O          14.0711   75.0582   -4.7064 O.2     1  UNL1       -0.2670
     17 N          16.2194   72.8464   -7.3547 N.ar    1  UNL1       -0.2551
     18 N          14.5262   74.4477   -6.8911 N.ar    1  UNL1       -0.2743
     19 C          15.2254   73.7170   -7.8608 C.ar    1  UNL1        0.3323
     20 C          16.4407   72.7610   -5.9856 C.ar    1  UNL1        0.0869
     21 C          15.7660   73.4637   -5.0735 C.ar    1  UNL1        0.0795
     22 C          14.7108   74.3973   -5.5189 C.ar    1  UNL1        0.2626
     23 H          13.8305   75.0621   -7.2194 H       1  UNL1        0.1734
     24 O          21.6601   72.1597   -4.7648 O.3     1  UNL1       -0.2703
     25 P          22.7891   72.1214   -3.6083 P.3     1  UNL1        0.2208
     26 O          23.8894   73.1879   -4.1301 O.co2   1  UNL1       -0.4371
     27 O          23.3385   70.7524   -3.3292 O.2     1  UNL1       -0.5170
     28 O          22.0985   72.8374   -2.3383 O.3     1  UNL1       -0.2858
     29 O          21.3558   71.0622   -0.9576 O.3     1  UNL1       -0.3226
     30 O          20.4227   74.3639    1.3436 O.3     1  UNL1       -0.3794
     31 O          19.9258   74.3770   -1.5351 O.3     1  UNL1       -0.3775
     32 O          22.7251   72.7210    2.0148 O.3     1  UNL1       -0.3792
     33 C          21.1754   73.6063    0.3963 C.3     1  UNL1        0.1718
     34 C          20.2786   73.2230   -0.7810 C.3     1  UNL1        0.1968
     35 C          21.6949   72.3508    1.1005 C.3     1  UNL1        0.1723
     36 C          20.9804   72.2226   -1.7005 C.3     1  UNL1        0.2706
     37 C          22.2661   71.3481    0.1020 C.3     1  UNL1        0.1830
     38 H          20.0823   75.1669    0.9186 H       1  UNL1        0.2105
     39 H          19.4802   75.0162   -0.9579 H       1  UNL1        0.2106
     40 H          22.3747   73.3592    2.6558 H       1  UNL1        0.2106
     41 O          23.2715   70.1187    1.8281 O.co2   1  UNL1       -0.5466
     42 O          21.9664   68.9674    0.3548 O.co2   1  UNL1       -0.5466
     43 C          22.4632   70.0136    0.7443 C.2     1  UNL1        0.0799
@<TRIPOS>UNITY_ATOM_ATTR
2 1
charge -1
26 1
charge -1
41 1
charge -1
@<TRIPOS>BOND
     1     1     4    1
     2     1    24    1
     3     1     2    1
     4     1     3    2
     5    25    28    1
     6    25    24    1
     7    25    26    1
     8    25    27    2
     9     6    11    1
    10     6    12    1
    11    29    36    1
    12    29    37    1
    13     7     9    1
    14     7    13    1
    15     8    10    1
    16     8    14    1
    17     4     5    1
    18    28    36    1
    19    30    33    1
    20    30    38    1
    21    31    34    1
    22    31    39    1
    23    32    35    1
    24    32    40    1
    25    41    43   ar
    26    15    19    2
    27    42    43   ar
    28    16    22    2
    29    17    12    1
    30    17    19   ar
    31    17    20   ar
    32    18    19   ar
    33    18    22   ar
    34    18    23    1
    35     9    10    1
    36     9    11    1
    37    10    12    1
    38    11     5    1
    39    33    34    1
    40    33    35    1
    41    34    36    1
    42    35    37    1
    43    37    43    1
    44    20    21   ar
    45    21    22   ar
@<TRIPOS>MOLECULE
*****
 43 45 0 0 0
SMALL
GASTEIGER

@<TRIPOS>ATOM
      1 P          22.1396   73.4679   -5.3202 P.3     1  UNL1        0.2189
      2 O          22.2123   75.0031   -5.8270 O.co2   1  UNL1       -0.4371
      3 O          23.4382   72.9020   -4.8252 O.2     1  UNL1       -0.5170
      4 O          21.4572   72.6818   -6.5588 O.3     1  UNL1       -0.3112
      5 C          20.6509   73.4146   -7.4629 C.3     1  UNL1        0.1811
      6 O          19.9221   71.1552   -7.8395 O.3     1  UNL1       -0.3308
      7 O          18.3461   72.2451  -10.1459 O.3     1  UNL1       -0.3794
      8 O          16.4476   71.9581   -8.2096 O.3     1  UNL1       -0.3779
      9 C          18.6148   72.8373   -8.8749 C.3     1  UNL1        0.1713
     10 C          17.7822   72.1714   -7.7999 C.3     1  UNL1        0.1895
     11 C          20.0299   72.4515   -8.4666 C.3     1  UNL1        0.1764
     12 C          18.5389   70.8736   -7.5736 C.3     1  UNL1        0.2383
     13 H          17.4471   72.4777  -10.4278 H       1  UNL1        0.2105
     14 H          16.0088   72.8139   -8.3401 H       1  UNL1        0.2106
     15 O          16.2919   69.4760   -6.5866 O.2     1  UNL1       -0.2464
     16 O          18.1564   69.0742   -2.3906 O.2     1  UNL1       -0.2670
     17 N          18.4108   70.3922   -6.2272 N.ar    1  UNL1       -0.2551
     18 N          17.2222   69.2781   -4.4974 N.ar    1  UNL1       -0.2743
     19 C          17.2405   69.7017   -5.8328 C.ar    1  UNL1        0.3323
     20 C          19.4370   70.6038   -5.3145 C.ar    1  UNL1        0.0869
     21 C          19.4052   70.1939   -4.0449 C.ar    1  UNL1        0.0795
     22 C          18.2178   69.4655   -3.5522 C.ar    1  UNL1        0.2626
     23 H          16.4168   68.7969   -4.1990 H       1  UNL1        0.1734
     24 O          20.9577   73.5052   -4.2181 O.3     1  UNL1       -0.2703
     25 P          20.9354   74.0724   -2.7044 P.3     1  UNL1        0.2208
     26 O          19.3744   74.4283   -2.4657 O.co2   1  UNL1       -0.4371
     27 O          21.8748   75.2182   -2.4622 O.2     1  UNL1       -0.5170
     28 O          21.2043   72.7790   -1.7786 O.3     1  UNL1       -0.2858
     29 O          22.9604   73.2870   -0.2728 O.3     1  UNL1       -0.3226
     30 O          22.0981   69.3733    0.7310 O.3     1  UNL1       -0.3794
     31 O          22.1954   70.1966   -2.0703 O.3     1  UNL1       -0.3775
     32 O          21.2138   71.5482    2.4453 O.3     1  UNL1       -0.3792
     33 C          21.8113   70.6946    0.2729 C.3     1  UNL1        0.1718
     34 C          22.6384   70.9934   -0.9778 C.3     1  UNL1        0.1968
     35 C          22.1701   71.6722    1.3943 C.3     1  UNL1        0.1723
     36 C          22.5335   72.4696   -1.3633 C.3     1  UNL1        0.2706
     37 C          22.1652   73.1152    0.8981 C.3     1  UNL1        0.1830
     38 H          21.8780   68.7346    0.0347 H       1  UNL1        0.2105
     39 H          22.2590   69.2586   -1.8325 H       1  UNL1        0.2106
     40 H          21.2069   70.6342    2.7699 H       1  UNL1        0.2106
     41 O          22.1425   74.0270    3.0591 O.co2   1  UNL1       -0.5466
     42 O          23.8430   74.6630    1.6797 O.co2   1  UNL1       -0.5466
     43 C          22.8259   74.0187    1.8878 C.2     1  UNL1        0.0799
@<TRIPOS>UNITY_ATOM_ATTR
2 1
charge -1
26 1
charge -1
41 1
charge -1
@<TRIPOS>BOND
     1     1     4    1
     2     1    24    1
     3     1     2    1
     4     1     3    2
     5    25    28    1
     6    25    24    1
     7    25    26    1
     8    25    27    2
     9     6    11    1
    10     6    12    1
    11    29    36    1
    12    29    37    1
    13     7     9    1
    14     7    13    1
    15     8    10    1
    16     8    14    1
    17     4     5    1
    18    28    36    1
    19    30    33    1
    20    30    38    1
    21    31    34    1
    22    31    39    1
    23    32    35    1
    24    32    40    1
    25    41    43   ar
    26    15    19    2
    27    42    43   ar
    28    16    22    2
    29    17    12    1
    30    17    19   ar
    31    17    20   ar
    32    18    19   ar
    33    18    22   ar
    34    18    23    1
    35     9    10    1
    36     9    11    1
    37    10    12    1
    38    11     5    1
    39    33    34    1
    40    33    35    1
    41    34    36    1
    42    35    37    1
    43    37    43    1
    44    20    21   ar
    45    21    22   ar
@<TRIPOS>MOLECULE
*****
 43 45 0 0 0
SMALL
GASTEIGER

@<TRIPOS>ATOM
      1 P          21.5310   72.9734   -6.0903 P.3     1  UNL1        0.2189
      2 O          21.3508   74.4870   -5.5469 O.co2   1  UNL1       -0.4371
      3 O          22.7000   72.7645   -7.0077 O.2     1  UNL1       -0.5170
      4 O          20.0804   72.6064   -6.7060 O.3     1  UNL1       -0.3112
      5 C          19.5336   71.3293   -6.4332 C.3     1  UNL1        0.1811
      6 O          17.3494   71.0575   -7.3992 O.3     1  UNL1       -0.3308
      7 O          18.7506   70.8216  -10.0397 O.3     1  UNL1       -0.3794
      8 O          17.8483   73.3947  -10.0718 O.3     1  UNL1       -0.3779
      9 C          19.0730   71.6409   -8.9157 C.3     1  UNL1        0.1713
     10 C          18.1037   72.7998   -8.8167 C.3     1  UNL1        0.1895
     11 C          18.7560   70.8517   -7.6529 C.3     1  UNL1        0.1764
     12 C          16.8739   72.1326   -8.2247 C.3     1  UNL1        0.2383
     13 H          18.9447   71.3047  -10.8587 H       1  UNL1        0.2105
     14 H          18.6614   73.8058  -10.4062 H       1  UNL1        0.2106
     15 O          14.9402   73.9213   -9.2433 O.2     1  UNL1       -0.2464
     16 O          13.9537   75.5355   -5.0403 O.2     1  UNL1       -0.2670
     17 N          16.0971   73.0316   -7.4190 N.ar    1  UNL1       -0.2551
     18 N          14.4514   74.7243   -7.1491 N.ar    1  UNL1       -0.2743
     19 C          15.1519   73.8894   -8.0296 C.ar    1  UNL1        0.3323
     20 C          16.2737   73.0565   -6.0409 C.ar    1  UNL1        0.0869
     21 C          15.5984   73.8578   -5.2146 C.ar    1  UNL1        0.0795
     22 C          14.5926   74.7856   -5.7722 C.ar    1  UNL1        0.2626
     23 H          13.7893   75.3319   -7.5513 H       1  UNL1        0.1734
     24 O          21.5790   72.1025   -4.7294 O.3     1  UNL1       -0.2703
     25 P          22.5389   72.2111   -3.4331 P.3     1  UNL1        0.2208
     26 O          23.8509   72.9663   -4.0066 O.co2   1  UNL1       -0.4371
     27 O          22.8240   70.8967   -2.7661 O.2     1  UNL1       -0.5170
     28 O          21.8234   73.3021   -2.4843 O.3     1  UNL1       -0.2858
     29 O          19.7577   72.3455   -1.8309 O.3     1  UNL1       -0.3226
     30 O          22.4533   69.5050   -0.5144 O.3     1  UNL1       -0.3794
     31 O          23.0063   72.3508   -0.1536 O.3     1  UNL1       -0.3775
     32 O          20.8837   69.0256   -2.9138 O.3     1  UNL1       -0.3792
     33 C          21.9586   70.5333   -1.3722 C.3     1  UNL1        0.1718
     34 C          21.7539   71.8168   -0.5672 C.3     1  UNL1        0.1968
     35 C          20.6293   70.0576   -1.9627 C.3     1  UNL1        0.1723
     36 C          21.0125   72.8686   -1.3937 C.3     1  UNL1        0.2706
     37 C          19.8919   71.1953   -2.6629 C.3     1  UNL1        0.1830
     38 H          23.2978   69.7850   -0.1275 H       1  UNL1        0.2105
     39 H          23.4822   71.6886    0.3711 H       1  UNL1        0.2106
     40 H          21.3529   68.2953   -2.4809 H       1  UNL1        0.2106
     41 O          18.2256   69.5505   -2.5228 O.co2   1  UNL1       -0.5466
     42 O          17.6453   71.5407   -3.4724 O.co2   1  UNL1       -0.5466
     43 C          18.4740   70.8160   -2.9421 C.2     1  UNL1        0.0799
@<TRIPOS>UNITY_ATOM_ATTR
2 1
charge -1
26 1
charge -1
41 1
charge -1
@<TRIPOS>BOND
     1     1     4    1
     2     1    24    1
     3     1     2    1
     4     1     3    2
     5    25    28    1
     6    25    24    1
     7    25    26    1
     8    25    27    2
     9     6    11    1
    10     6    12    1
    11    29    36    1
    12    29    37    1
    13     7     9    1
    14     7    13    1
    15     8    10    1
    16     8    14    1
    17     4     5    1
    18    28    36    1
    19    30    33    1
    20    30    38    1
    21    31    34    1
    22    31    39    1
    23    32    35    1
    24    32    40    1
    25    41    43   ar
    26    15    19    2
    27    42    43   ar
    28    16    22    2
    29    17    12    1
    30    17    19   ar
    31    17    20   ar
    32    18    19   ar
    33    18    22   ar
    34    18    23    1
    35     9    10    1
    36     9    11    1
    37    10    12    1
    38    11     5    1
    39    33    34    1
    40    33    35    1
    41    34    36    1
    42    35    37    1
    43    37    43    1
    44    20    21   ar
    45    21    22   ar
@<TRIPOS>MOLECULE
*****
 43 45 0 0 0
SMALL
GASTEIGER

@<TRIPOS>ATOM
      1 P          19.0420   75.1691   -1.8760 P.3     1  UNL1        0.2189
      2 O          18.1703   74.4359   -0.7265 O.co2   1  UNL1       -0.4371
      3 O          18.7710   76.6361   -2.0379 O.2     1  UNL1       -0.5170
      4 O          18.7942   74.2595   -3.1910 O.3     1  UNL1       -0.3112
      5 C          19.5057   73.0417   -3.3148 C.3     1  UNL1        0.1811
      6 O          17.7849   71.6710   -4.2830 O.3     1  UNL1       -0.3308
      7 O          18.3555   69.7215   -2.0773 O.3     1  UNL1       -0.3794
      8 O          19.6685   68.6216   -4.1991 O.3     1  UNL1       -0.3779
      9 C          19.2579   70.5637   -2.7948 C.3     1  UNL1        0.1713
     10 C          19.4833   70.0217   -4.1904 C.3     1  UNL1        0.1895
     11 C          18.5484   71.8813   -3.0755 C.3     1  UNL1        0.1764
     12 C          18.2112   70.4476   -4.9034 C.3     1  UNL1        0.2383
     13 H          18.7867   68.8734   -1.8864 H       1  UNL1        0.2105
     14 H          20.4912   68.4015   -3.7336 H       1  UNL1        0.2106
     15 O          16.2105   70.1902   -6.8801 O.2     1  UNL1       -0.2464
     16 O          19.1275   71.3742  -10.2466 O.2     1  UNL1       -0.2670
     17 N          18.4205   70.6826   -6.3041 N.ar    1  UNL1       -0.2551
     18 N          17.6655   70.7791   -8.5550 N.ar    1  UNL1       -0.2743
     19 C          17.3485   70.5252   -7.2141 C.ar    1  UNL1        0.3323
     20 C          19.6748   71.0658   -6.7632 C.ar    1  UNL1        0.0869
     21 C          19.9617   71.3045   -8.0444 C.ar    1  UNL1        0.0795
     22 C          18.8977   71.1618   -9.0598 C.ar    1  UNL1        0.2626
     23 H          16.9358   70.6741   -9.2076 H       1  UNL1        0.1734
     24 O          20.5627   74.8066   -1.4649 O.3     1  UNL1       -0.2703
     25 P          21.5362   75.4358   -0.3378 P.3     1  UNL1        0.2208
     26 O          20.5388   76.3645    0.5357 O.co2   1  UNL1       -0.4371
     27 O          22.7302   76.1593   -0.8897 O.2     1  UNL1       -0.5170
     28 O          21.8932   74.1972    0.6322 O.3     1  UNL1       -0.2858
     29 O          20.9821   72.0158    0.4894 O.3     1  UNL1       -0.3226
     30 O          22.0003   72.2416    4.4870 O.3     1  UNL1       -0.3794
     31 O          20.7484   74.5157    3.1470 O.3     1  UNL1       -0.3775
     32 O          23.6405   70.6988    2.6483 O.3     1  UNL1       -0.3792
     33 C          22.1263   72.5196    3.0924 C.3     1  UNL1        0.1718
     34 C          20.8576   73.2102    2.5916 C.3     1  UNL1        0.1968
     35 C          22.3326   71.1907    2.3620 C.3     1  UNL1        0.1723
     36 C          20.8584   73.3165    1.0660 C.3     1  UNL1        0.2706
     37 C          22.1940   71.3578    0.8516 C.3     1  UNL1        0.1830
     38 H          21.8683   73.0716    4.9717 H       1  UNL1        0.2105
     39 H          20.7476   74.4558    4.1149 H       1  UNL1        0.2106
     40 H          23.7418   70.5882    3.6066 H       1  UNL1        0.2106
     41 O          23.1959   69.2964    0.3529 O.co2   1  UNL1       -0.5466
     42 O          21.0864   69.6462   -0.4388 O.co2   1  UNL1       -0.5466
     43 C          22.0679   70.0290    0.1802 C.2     1  UNL1        0.0799
@<TRIPOS>UNITY_ATOM_ATTR
2 1
charge -1
26 1
charge -1
41 1
charge -1
@<TRIPOS>BOND
     1     1     4    1
     2     1    24    1
     3     1     2    1
     4     1     3    2
     5    25    28    1
     6    25    24    1
     7    25    26    1
     8    25    27    2
     9     6    11    1
    10     6    12    1
    11    29    36    1
    12    29    37    1
    13     7     9    1
    14     7    13    1
    15     8    10    1
    16     8    14    1
    17     4     5    1
    18    28    36    1
    19    30    33    1
    20    30    38    1
    21    31    34    1
    22    31    39    1
    23    32    35    1
    24    32    40    1
    25    41    43   ar
    26    15    19    2
    27    42    43   ar
    28    16    22    2
    29    17    12    1
    30    17    19   ar
    31    17    20   ar
    32    18    19   ar
    33    18    22   ar
    34    18    23    1
    35     9    10    1
    36     9    11    1
    37    10    12    1
    38    11     5    1
    39    33    34    1
    40    33    35    1
    41    34    36    1
    42    35    37    1
    43    37    43    1
    44    20    21   ar
    45    21    22   ar
@<TRIPOS>MOLECULE
*****
 43 45 0 0 0
SMALL
GASTEIGER

@<TRIPOS>ATOM
      1 P          23.0411   72.5909   -3.6034 P.3     1  UNL1        0.2189
      2 O          23.2901   71.0396   -3.2157 O.co2   1  UNL1       -0.4371
      3 O          24.2214   73.2889   -4.2129 O.2     1  UNL1       -0.5170
      4 O          22.4655   73.2445   -2.2398 O.3     1  UNL1       -0.3112
      5 C          22.3988   72.4372   -1.0787 C.3     1  UNL1        0.1811
      6 O          21.1911   72.4590    0.9995 O.3     1  UNL1       -0.3308
      7 O          19.0300   73.9131   -0.4861 O.3     1  UNL1       -0.3794
      8 O          20.2912   75.9264    0.8525 O.3     1  UNL1       -0.3779
      9 C          20.4472   74.0069   -0.6319 C.3     1  UNL1        0.1713
     10 C          21.0436   74.7762    0.5278 C.3     1  UNL1        0.1895
     11 C          21.0336   72.6168   -0.4273 C.3     1  UNL1        0.1764
     12 C          21.0305   73.7368    1.6357 C.3     1  UNL1        0.2383
     13 H          18.6329   74.7894   -0.6126 H       1  UNL1        0.2105
     14 H          20.3310   76.5573    0.1161 H       1  UNL1        0.2106
     15 O          20.8249   73.2153    4.4038 O.2     1  UNL1       -0.2464
     16 O          25.1866   74.5016    5.1556 O.2     1  UNL1       -0.2670
     17 N          22.0970   73.9267    2.5777 N.ar    1  UNL1       -0.2551
     18 N          22.9971   73.8574    4.7757 N.ar    1  UNL1       -0.2743
     19 C          21.8898   73.6348    3.9467 C.ar    1  UNL1        0.3323
     20 C          23.3310   74.3949    2.1433 C.ar    1  UNL1        0.0869
     21 C          24.3772   74.6020    2.9454 C.ar    1  UNL1        0.0795
     22 C          24.2440   74.3225    4.3903 C.ar    1  UNL1        0.2626
     23 H          22.8764   73.6633    5.7334 H       1  UNL1        0.1734
     24 O          21.7350   72.5225   -4.5532 O.3     1  UNL1       -0.2703
     25 P          21.3982   73.2638   -5.9499 P.3     1  UNL1        0.2208
     26 O          22.5852   72.7630   -6.9299 O.co2   1  UNL1       -0.4371
     27 O          21.2745   74.7560   -5.8408 O.2     1  UNL1       -0.5170
     28 O          20.0759   72.5207   -6.4992 O.3     1  UNL1       -0.2858
     29 O          19.0699   70.4380   -5.9895 O.3     1  UNL1       -0.3226
     30 O          18.3973   70.7239  -10.0557 O.3     1  UNL1       -0.3794
     31 O          20.9768   71.4974   -8.9235 O.3     1  UNL1       -0.3775
     32 O          16.2288   71.2059   -8.1805 O.3     1  UNL1       -0.3792
     33 C          18.5754   71.2138   -8.7267 C.3     1  UNL1        0.1718
     34 C          19.9563   70.8067   -8.2120 C.3     1  UNL1        0.1968
     35 C          17.4796   70.6064   -7.8480 C.3     1  UNL1        0.1723
     36 C          20.0958   71.1116   -6.7199 C.3     1  UNL1        0.2706
     37 C          17.7567   70.8459   -6.3666 C.3     1  UNL1        0.1830
     38 H          19.0827   71.0966  -10.6324 H       1  UNL1        0.2105
     39 H          20.8942   71.3088   -9.8711 H       1  UNL1        0.2106
     40 H          16.0406   71.0608   -9.1210 H       1  UNL1        0.2106
     41 O          16.2073   69.0872   -6.2793 O.co2   1  UNL1       -0.5466
     42 O          16.7809   70.0671   -4.3020 O.co2   1  UNL1       -0.5466
     43 C          16.8808   69.9839   -5.5170 C.2     1  UNL1        0.0799
@<TRIPOS>UNITY_ATOM_ATTR
2 1
charge -1
26 1
charge -1
41 1
charge -1
@<TRIPOS>BOND
     1     1     4    1
     2     1    24    1
     3     1     2    1
     4     1     3    2
     5    25    28    1
     6    25    24    1
     7    25    26    1
     8    25    27    2
     9     6    11    1
    10     6    12    1
    11    29    36    1
    12    29    37    1
    13     7     9    1
    14     7    13    1
    15     8    10    1
    16     8    14    1
    17     4     5    1
    18    28    36    1
    19    30    33    1
    20    30    38    1
    21    31    34    1
    22    31    39    1
    23    32    35    1
    24    32    40    1
    25    41    43   ar
    26    15    19    2
    27    42    43   ar
    28    16    22    2
    29    17    12    1
    30    17    19   ar
    31    17    20   ar
    32    18    19   ar
    33    18    22   ar
    34    18    23    1
    35     9    10    1
    36     9    11    1
    37    10    12    1
    38    11     5    1
    39    33    34    1
    40    33    35    1
    41    34    36    1
    42    35    37    1
    43    37    43    1
    44    20    21   ar
    45    21    22   ar
@<TRIPOS>MOLECULE
*****
 43 45 0 0 0
SMALL
GASTEIGER

@<TRIPOS>ATOM
      1 P          22.0382   75.9022   -8.4856 P.3     1  UNL1        0.2189
      2 O          22.7681   75.3863   -7.1365 O.co2   1  UNL1       -0.4371
      3 O          22.0733   77.3875   -8.6966 O.2     1  UNL1       -0.5170
      4 O          20.5648   75.2381   -8.4085 O.3     1  UNL1       -0.3112
      5 C          20.4387   73.9326   -7.8754 C.3     1  UNL1        0.1811
      6 O          19.6875   71.7022   -8.3644 O.3     1  UNL1       -0.3308
      7 O          18.0070   72.9400  -10.5174 O.3     1  UNL1       -0.3794
      8 O          16.2014   72.5254   -8.5165 O.3     1  UNL1       -0.3779
      9 C          18.3368   73.4478   -9.2244 C.3     1  UNL1        0.1713
     10 C          17.5543   72.7122   -8.1572 C.3     1  UNL1        0.1895
     11 C          19.7688   73.0370   -8.9096 C.3     1  UNL1        0.1764
     12 C          18.3177   71.4029   -8.0525 C.3     1  UNL1        0.2383
     13 H          17.0963   73.1899  -10.7406 H       1  UNL1        0.2105
     14 H          15.7590   73.3876   -8.5697 H       1  UNL1        0.2106
     15 O          16.0878   70.0046   -7.0285 O.2     1  UNL1       -0.2464
     16 O          18.1775   69.2639   -2.9876 O.2     1  UNL1       -0.2670
     17 N          18.2522   70.8342   -6.7360 N.ar    1  UNL1       -0.2551
     18 N          17.1303   69.6379   -5.0165 N.ar    1  UNL1       -0.2743
     19 C          17.0850   70.1514   -6.3193 C.ar    1  UNL1        0.3323
     20 C          19.3356   70.9537   -5.8741 C.ar    1  UNL1        0.0869
     21 C          19.3640   70.4589   -4.6351 C.ar    1  UNL1        0.0795
     22 C          18.1842   69.7321   -4.1221 C.ar    1  UNL1        0.2626
     23 H          16.3284   69.1602   -4.7033 H       1  UNL1        0.1734
     24 O          22.7652   75.0402   -9.6438 O.3     1  UNL1       -0.2703
     25 P          24.2193   75.2007  -10.3320 P.3     1  UNL1        0.2208
     26 O          25.0409   73.9280   -9.7615 O.co2   1  UNL1       -0.4371
     27 O          24.8776   76.5259  -10.0784 O.2     1  UNL1       -0.5170
     28 O          23.9743   74.8621  -11.8901 O.3     1  UNL1       -0.2858
     29 O          25.3894   74.1392  -13.6462 O.3     1  UNL1       -0.3226
     30 O          22.8857   76.7716  -15.6135 O.3     1  UNL1       -0.3794
     31 O          23.9385   77.4258  -12.9682 O.3     1  UNL1       -0.3775
     32 O          22.5306   73.9042  -15.9341 O.3     1  UNL1       -0.3792
     33 C          23.2420   75.8007  -14.6295 C.3     1  UNL1        0.1718
     34 C          24.3863   76.3391  -13.7702 C.3     1  UNL1        0.1968
     35 C          23.6770   74.5269  -15.3576 C.3     1  UNL1        0.1723
     36 C          24.9476   75.2462  -12.8595 C.3     1  UNL1        0.2706
     37 C          24.3407   73.5386  -14.4031 C.3     1  UNL1        0.1830
     38 H          22.6058   77.5900  -15.1741 H       1  UNL1        0.2105
     39 H          23.5808   78.1229  -13.5395 H       1  UNL1        0.2106
     40 H          22.0988   74.5228  -16.5437 H       1  UNL1        0.2106
     41 O          25.6227   71.5766  -14.3102 O.co2   1  UNL1       -0.5466
     42 O          25.1033   72.3828  -16.3789 O.co2   1  UNL1       -0.5466
     43 C          25.0478   72.4625  -15.1609 C.2     1  UNL1        0.0799
@<TRIPOS>UNITY_ATOM_ATTR
2 1
charge -1
26 1
charge -1
41 1
charge -1
@<TRIPOS>BOND
     1     1     4    1
     2     1    24    1
     3     1     2    1
     4     1     3    2
     5    25    28    1
     6    25    24    1
     7    25    26    1
     8    25    27    2
     9     6    11    1
    10     6    12    1
    11    29    36    1
    12    29    37    1
    13     7     9    1
    14     7    13    1
    15     8    10    1
    16     8    14    1
    17     4     5    1
    18    28    36    1
    19    30    33    1
    20    30    38    1
    21    31    34    1
    22    31    39    1
    23    32    35    1
    24    32    40    1
    25    41    43   ar
    26    15    19    2
    27    42    43   ar
    28    16    22    2
    29    17    12    1
    30    17    19   ar
    31    17    20   ar
    32    18    19   ar
    33    18    22   ar
    34    18    23    1
    35     9    10    1
    36     9    11    1
    37    10    12    1
    38    11     5    1
    39    33    34    1
    40    33    35    1
    41    34    36    1
    42    35    37    1
    43    37    43    1
    44    20    21   ar
    45    21    22   ar
@<TRIPOS>MOLECULE
*****
 43 45 0 0 0
SMALL
GASTEIGER

@<TRIPOS>ATOM
      1 P          18.8497   75.4713   -2.3142 P.3     1  UNL1        0.2189
      2 O          18.6134   74.7281   -0.8962 O.co2   1  UNL1       -0.4371
      3 O          18.2490   76.8425   -2.4187 O.2     1  UNL1       -0.5170
      4 O          18.3369   74.3944   -3.4075 O.3     1  UNL1       -0.3112
      5 C          19.0919   73.2119   -3.5975 C.3     1  UNL1        0.1811
      6 O          17.5241   71.6803   -4.5842 O.3     1  UNL1       -0.3308
      7 O          18.0759   69.8953   -2.2388 O.3     1  UNL1       -0.3794
      8 O          19.5854   68.7706   -4.2117 O.3     1  UNL1       -0.3779
      9 C          18.9672   70.7549   -2.9497 C.3     1  UNL1        0.1713
     10 C          19.3129   70.1538   -4.2956 C.3     1  UNL1        0.1895
     11 C          18.1958   72.0057   -3.3480 C.3     1  UNL1        0.1764
     12 C          18.0640   70.4557   -5.1060 C.3     1  UNL1        0.2383
     13 H          18.5463   69.0890   -1.9738 H       1  UNL1        0.2105
     14 H          20.3894   68.6307   -3.6864 H       1  UNL1        0.2106
     15 O          16.1603   70.1358   -7.1677 O.2     1  UNL1       -0.2464
     16 O          19.2563   71.1399  -10.4312 O.2     1  UNL1       -0.2670
     17 N          18.3456   70.6275   -6.5032 N.ar    1  UNL1       -0.2551
     18 N          17.7044   70.6352   -8.7912 N.ar    1  UNL1       -0.2743
     19 C          17.3180   70.4431   -7.4582 C.ar    1  UNL1        0.3323
     20 C          19.6261   70.9762   -6.9148 C.ar    1  UNL1        0.0869
     21 C          19.9793   71.1560   -8.1891 C.ar    1  UNL1        0.0795
     22 C          18.9651   70.9817   -9.2495 C.ar    1  UNL1        0.2626
     23 H          17.0065   70.5103   -9.4744 H       1  UNL1        0.1734
     24 O          20.4564   75.4253   -2.4847 O.3     1  UNL1       -0.2703
     25 P          21.6405   75.4079   -1.3842 P.3     1  UNL1        0.2208
     26 O          21.0587   76.3459   -0.2001 O.co2   1  UNL1       -0.4371
     27 O          22.9786   75.8375   -1.9124 O.2     1  UNL1       -0.5170
     28 O          21.6097   73.9151   -0.7734 O.3     1  UNL1       -0.2858
     29 O          23.2342   73.7469    0.9419 O.3     1  UNL1       -0.3226
     30 O          21.7135   69.9069    0.8448 O.3     1  UNL1       -0.3794
     31 O          22.2503   71.3502   -1.6377 O.3     1  UNL1       -0.3775
     32 O          20.9554   71.7229    2.9846 O.3     1  UNL1       -0.3792
     33 C          21.6726   71.3283    0.7185 C.3     1  UNL1        0.1718
     34 C          22.6728   71.7763   -0.3475 C.3     1  UNL1        0.1968
     35 C          22.0347   71.9343    2.0763 C.3     1  UNL1        0.1723
     36 C          22.8243   73.2981   -0.3504 C.3     1  UNL1        0.2706
     37 C          22.2926   73.4343    1.9659 C.3     1  UNL1        0.1830
     38 H          21.4867   69.4998   -0.0062 H       1  UNL1        0.2105
     39 H          22.1518   70.3855   -1.6430 H       1  UNL1        0.2106
     40 H          20.7810   70.7720    3.0637 H       1  UNL1        0.2106
     41 O          22.0357   74.2386    4.1542 O.co2   1  UNL1       -0.5466
     42 O          24.1613   74.0946    3.3418 O.co2   1  UNL1       -0.5466
     43 C          22.9562   73.9507    3.2009 C.2     1  UNL1        0.0799
@<TRIPOS>UNITY_ATOM_ATTR
2 1
charge -1
26 1
charge -1
41 1
charge -1
@<TRIPOS>BOND
     1     1     4    1
     2     1    24    1
     3     1     2    1
     4     1     3    2
     5    25    28    1
     6    25    24    1
     7    25    26    1
     8    25    27    2
     9     6    11    1
    10     6    12    1
    11    29    36    1
    12    29    37    1
    13     7     9    1
    14     7    13    1
    15     8    10    1
    16     8    14    1
    17     4     5    1
    18    28    36    1
    19    30    33    1
    20    30    38    1
    21    31    34    1
    22    31    39    1
    23    32    35    1
    24    32    40    1
    25    41    43   ar
    26    15    19    2
    27    42    43   ar
    28    16    22    2
    29    17    12    1
    30    17    19   ar
    31    17    20   ar
    32    18    19   ar
    33    18    22   ar
    34    18    23    1
    35     9    10    1
    36     9    11    1
    37    10    12    1
    38    11     5    1
    39    33    34    1
    40    33    35    1
    41    34    36    1
    42    35    37    1
    43    37    43    1
    44    20    21   ar
    45    21    22   ar
@<TRIPOS>MOLECULE
*****
 43 45 0 0 0
SMALL
GASTEIGER

@<TRIPOS>ATOM
      1 P          22.8176   71.9166   -3.1969 P.3     1  UNL1        0.2189
      2 O          23.7057   72.8930   -4.1332 O.co2   1  UNL1       -0.4371
      3 O          23.2292   70.4737   -3.2161 O.2     1  UNL1       -0.5170
      4 O          21.2952   72.2192   -3.6539 O.3     1  UNL1       -0.3112
      5 C          20.5433   71.1707   -4.2369 C.3     1  UNL1        0.1811
      6 O          18.3422   71.7122   -3.4370 O.3     1  UNL1       -0.3308
      7 O          18.2350   68.9048   -2.3888 O.3     1  UNL1       -0.3794
      8 O          16.7693   68.7409   -4.6825 O.3     1  UNL1       -0.3779
      9 C          18.8364   69.4003   -3.5852 C.3     1  UNL1        0.1713
     10 C          17.7712   69.7334   -4.6082 C.3     1  UNL1        0.1895
     11 C          19.4262   70.7708   -3.2816 C.3     1  UNL1        0.1764
     12 C          17.2424   71.0608   -4.0923 C.3     1  UNL1        0.2383
     13 H          17.8511   68.0298   -2.5580 H       1  UNL1        0.2105
     14 H          17.1558   67.9156   -5.0164 H       1  UNL1        0.2106
     15 O          18.1185   70.9207   -6.7735 O.2     1  UNL1       -0.2464
     16 O          15.3248   74.3546   -8.0573 O.2     1  UNL1       -0.2670
     17 N          16.7606   71.9062   -5.1477 N.ar    1  UNL1       -0.2551
     18 N          16.7270   72.6318   -7.4102 N.ar    1  UNL1       -0.2743
     19 C          17.2664   71.7542   -6.4604 C.ar    1  UNL1        0.3323
     20 C          15.7975   72.8710   -4.8786 C.ar    1  UNL1        0.0869
     21 C          15.2928   73.7001   -5.7944 C.ar    1  UNL1        0.0795
     22 C          15.7684   73.6077   -7.1903 C.ar    1  UNL1        0.2626
     23 H          17.0652   72.5463   -8.3308 H       1  UNL1        0.1734
     24 O          22.9087   72.6236   -1.7461 O.3     1  UNL1       -0.2703
     25 P          22.2426   72.2257   -0.3278 P.3     1  UNL1        0.2208
     26 O          22.9364   70.8055    0.0213 O.co2   1  UNL1       -0.4371
     27 O          20.7416   72.1944   -0.3396 O.2     1  UNL1       -0.5170
     28 O          22.8823   73.2623    0.7299 O.3     1  UNL1       -0.2858
     29 O          22.7455   73.6468    3.0629 O.3     1  UNL1       -0.3226
     30 O          22.5360   77.4908    1.5636 O.3     1  UNL1       -0.3794
     31 O          21.0640   75.3183    0.2799 O.3     1  UNL1       -0.3775
     32 O          24.9955   76.5312    2.7804 O.3     1  UNL1       -0.3792
     33 C          22.9416   76.1223    1.5892 C.3     1  UNL1        0.1718
     34 C          21.7069   75.2216    1.5456 C.3     1  UNL1        0.1968
     35 C          23.7274   75.8860    2.8809 C.3     1  UNL1        0.1723
     36 C          22.0850   73.7622    1.8020 C.3     1  UNL1        0.2706
     37 C          23.9557   74.3979    3.1298 C.3     1  UNL1        0.1830
     38 H          22.0346   77.6645    0.7514 H       1  UNL1        0.2105
     39 H          20.8215   76.2418    0.1106 H       1  UNL1        0.2106
     40 H          24.8644   77.4791    2.6218 H       1  UNL1        0.2106
     41 O          23.4006   73.7176    5.3048 O.co2   1  UNL1       -0.5466
     42 O          25.5634   74.3336    4.9278 O.co2   1  UNL1       -0.5466
     43 C          24.4215   74.1595    4.5293 C.2     1  UNL1        0.0799
@<TRIPOS>UNITY_ATOM_ATTR
2 1
charge -1
26 1
charge -1
41 1
charge -1
@<TRIPOS>BOND
     1     1     4    1
     2     1    24    1
     3     1     2    1
     4     1     3    2
     5    25    28    1
     6    25    24    1
     7    25    26    1
     8    25    27    2
     9     6    11    1
    10     6    12    1
    11    29    36    1
    12    29    37    1
    13     7     9    1
    14     7    13    1
    15     8    10    1
    16     8    14    1
    17     4     5    1
    18    28    36    1
    19    30    33    1
    20    30    38    1
    21    31    34    1
    22    31    39    1
    23    32    35    1
    24    32    40    1
    25    41    43   ar
    26    15    19    2
    27    42    43   ar
    28    16    22    2
    29    17    12    1
    30    17    19   ar
    31    17    20   ar
    32    18    19   ar
    33    18    22   ar
    34    18    23    1
    35     9    10    1
    36     9    11    1
    37    10    12    1
    38    11     5    1
    39    33    34    1
    40    33    35    1
    41    34    36    1
    42    35    37    1
    43    37    43    1
    44    20    21   ar
    45    21    22   ar
@<TRIPOS>MOLECULE
*****
 43 45 0 0 0
SMALL
GASTEIGER

@<TRIPOS>ATOM
      1 P          18.2715   75.5071   -2.2122 P.3     1  UNL1        0.2189
      2 O          17.9968   74.3916   -1.0724 O.co2   1  UNL1       -0.4371
      3 O          17.4426   76.7522   -2.0929 O.2     1  UNL1       -0.5170
      4 O          18.1169   74.6904   -3.6004 O.3     1  UNL1       -0.3112
      5 C          18.9298   73.5499   -3.8081 C.3     1  UNL1        0.1811
      6 O          17.4785   71.8726   -4.7344 O.3     1  UNL1       -0.3308
      7 O          18.1252   70.2374   -2.3055 O.3     1  UNL1       -0.3794
      8 O          19.7268   69.1288   -4.2138 O.3     1  UNL1       -0.3779
      9 C          18.9639   71.1220   -3.0488 C.3     1  UNL1        0.1713
     10 C          19.3629   70.4852   -4.3631 C.3     1  UNL1        0.1895
     11 C          18.1143   72.2984   -3.5097 C.3     1  UNL1        0.1764
     12 C          18.1048   70.6649   -5.1954 C.3     1  UNL1        0.2383
     13 H          18.6460   69.4776   -2.0003 H       1  UNL1        0.2105
     14 H          20.5331   69.0676   -3.6769 H       1  UNL1        0.2106
     15 O          16.2610   70.0846   -7.2546 O.2     1  UNL1       -0.2464
     16 O          19.3020   71.1876  -10.5378 O.2     1  UNL1       -0.2670
     17 N          18.3884   70.7917   -6.5970 N.ar    1  UNL1       -0.2551
     18 N          17.7777   70.6335   -8.8879 N.ar    1  UNL1       -0.2743
     19 C          17.3921   70.4745   -7.5503 C.ar    1  UNL1        0.3323
     20 C          19.6401   71.2273   -7.0147 C.ar    1  UNL1        0.0869
     21 C          19.9928   71.3741   -8.2933 C.ar    1  UNL1        0.0795
     22 C          19.0104   71.0630   -9.3522 C.ar    1  UNL1        0.2626
     23 H          17.1015   70.4168   -9.5699 H       1  UNL1        0.1734
     24 O          19.8666   75.7474   -2.1077 O.3     1  UNL1       -0.2703
     25 P          20.8899   75.5573   -0.8706 P.3     1  UNL1        0.2208
     26 O          19.9232   75.6410    0.4251 O.co2   1  UNL1       -0.4371
     27 O          22.0283   76.5360   -0.8571 O.2     1  UNL1       -0.5170
     28 O          21.3385   74.0095   -0.9447 O.3     1  UNL1       -0.2858
     29 O          22.8346   72.4009   -0.0597 O.3     1  UNL1       -0.3226
     30 O          23.8123   72.3401   -4.0732 O.3     1  UNL1       -0.3794
     31 O          23.3055   74.8741   -2.7108 O.3     1  UNL1       -0.3775
     32 O          22.2389   70.1838   -2.9219 O.3     1  UNL1       -0.3792
     33 C          22.9514   72.4853   -2.9438 C.3     1  UNL1        0.1718
     34 C          23.4601   73.6207   -2.0552 C.3     1  UNL1        0.1968
     35 C          22.9558   71.1633   -2.1728 C.3     1  UNL1        0.1723
     36 C          22.7033   73.6568   -0.7267 C.3     1  UNL1        0.2706
     37 C          22.2935   71.3132   -0.8062 C.3     1  UNL1        0.1830
     38 H          23.8255   73.1682   -4.5785 H       1  UNL1        0.2105
     39 H          23.7830   74.8582   -3.5547 H       1  UNL1        0.2106
     40 H          22.6502   70.0789   -3.7940 H       1  UNL1        0.2106
     41 O          21.4429   69.5109    0.4306 O.co2   1  UNL1       -0.5466
     42 O          23.7083   69.7674    0.3897 O.co2   1  UNL1       -0.5466
     43 C          22.5898   70.1320    0.0593 C.2     1  UNL1        0.0799
@<TRIPOS>UNITY_ATOM_ATTR
2 1
charge -1
26 1
charge -1
41 1
charge -1
@<TRIPOS>BOND
     1     1     4    1
     2     1    24    1
     3     1     2    1
     4     1     3    2
     5    25    28    1
     6    25    24    1
     7    25    26    1
     8    25    27    2
     9     6    11    1
    10     6    12    1
    11    29    36    1
    12    29    37    1
    13     7     9    1
    14     7    13    1
    15     8    10    1
    16     8    14    1
    17     4     5    1
    18    28    36    1
    19    30    33    1
    20    30    38    1
    21    31    34    1
    22    31    39    1
    23    32    35    1
    24    32    40    1
    25    41    43   ar
    26    15    19    2
    27    42    43   ar
    28    16    22    2
    29    17    12    1
    30    17    19   ar
    31    17    20   ar
    32    18    19   ar
    33    18    22   ar
    34    18    23    1
    35     9    10    1
    36     9    11    1
    37    10    12    1
    38    11     5    1
    39    33    34    1
    40    33    35    1
    41    34    36    1
    42    35    37    1
    43    37    43    1
    44    20    21   ar
    45    21    22   ar
@<TRIPOS>MOLECULE
*****
 43 45 0 0 0
SMALL
GASTEIGER

@<TRIPOS>ATOM
      1 P          21.6302   72.8797   -4.8334 P.3     1  UNL1        0.2189
      2 O          21.4088   74.0948   -3.7878 O.co2   1  UNL1       -0.4371
      3 O          23.0417   72.7045   -5.3116 O.2     1  UNL1       -0.5170
      4 O          20.5269   73.1523   -5.9851 O.3     1  UNL1       -0.3112
      5 C          20.9673   73.2948   -7.3231 C.3     1  UNL1        0.1811
      6 O          19.6209   71.3037   -7.3242 O.3     1  UNL1       -0.3308
      7 O          18.9106   72.0092  -10.1507 O.3     1  UNL1       -0.3794
      8 O          16.7162   72.8382   -8.7602 O.3     1  UNL1       -0.3779
      9 C          19.1321   72.8696   -9.0330 C.3     1  UNL1        0.1713
     10 C          17.9550   72.8080   -8.0828 C.3     1  UNL1        0.1895
     11 C          20.2514   72.2696   -8.1930 C.3     1  UNL1        0.1764
     12 C          18.1973   71.4910   -7.3654 C.3     1  UNL1        0.2383
     13 H          18.1994   72.3719  -10.7024 H       1  UNL1        0.2105
     14 H          16.6091   73.6966   -9.2003 H       1  UNL1        0.2106
     15 O          17.2372   73.7887   -6.0330 O.2     1  UNL1       -0.2464
     16 O          16.2667   71.3935   -2.2165 O.2     1  UNL1       -0.2670
     17 N          17.6879   71.4962   -6.0233 N.ar    1  UNL1       -0.2551
     18 N          16.7557   72.5938   -4.1331 N.ar    1  UNL1       -0.2743
     19 C          17.2303   72.7046   -5.4467 C.ar    1  UNL1        0.3323
     20 C          17.6438   70.3145   -5.2936 C.ar    1  UNL1        0.0869
     21 C          17.1886   70.2245   -4.0424 C.ar    1  UNL1        0.0795
     22 C          16.6926   71.4413   -3.3666 C.ar    1  UNL1        0.2626
     23 H          16.4336   73.4222   -3.7098 H       1  UNL1        0.1734
     24 O          21.0239   71.6063   -4.0436 O.3     1  UNL1       -0.2703
     25 P          21.6894   70.6223   -2.9470 P.3     1  UNL1        0.2208
     26 O          23.2688   70.6964   -3.2936 O.co2   1  UNL1       -0.4371
     27 O          21.1219   69.2323   -2.9421 O.2     1  UNL1       -0.5170
     28 O          21.5423   71.4104   -1.5471 O.3     1  UNL1       -0.2858
     29 O          23.2355   72.7932   -0.6362 O.3     1  UNL1       -0.3226
     30 O          21.0492   71.8134    2.7295 O.3     1  UNL1       -0.3794
     31 O          21.6461   69.7886    0.7101 O.3     1  UNL1       -0.3775
     32 O          20.7926   74.4537    1.5404 O.3     1  UNL1       -0.3792
     33 C          21.2539   72.0969    1.3454 C.3     1  UNL1        0.1718
     34 C          22.2345   71.0834    0.7550 C.3     1  UNL1        0.1968
     35 C          21.8204   73.5140    1.2317 C.3     1  UNL1        0.1723
     36 C          22.6553   71.4885   -0.6584 C.3     1  UNL1        0.2706
     37 C          22.3334   73.7975   -0.1771 C.3     1  UNL1        0.1830
     38 H          20.6894   70.9176    2.8265 H       1  UNL1        0.2105
     39 H          21.3765   69.5252    1.6036 H       1  UNL1        0.2106
     40 H          20.4573   74.2841    2.4346 H       1  UNL1        0.2106
     41 O          22.3876   76.1414   -0.2462 O.co2   1  UNL1       -0.5466
     42 O          24.3917   75.0564   -0.1726 O.co2   1  UNL1       -0.5466
     43 C          23.1703   75.0350   -0.1979 C.2     1  UNL1        0.0799
@<TRIPOS>UNITY_ATOM_ATTR
2 1
charge -1
26 1
charge -1
41 1
charge -1
@<TRIPOS>BOND
     1     1     4    1
     2     1    24    1
     3     1     2    1
     4     1     3    2
     5    25    28    1
     6    25    24    1
     7    25    26    1
     8    25    27    2
     9     6    11    1
    10     6    12    1
    11    29    36    1
    12    29    37    1
    13     7     9    1
    14     7    13    1
    15     8    10    1
    16     8    14    1
    17     4     5    1
    18    28    36    1
    19    30    33    1
    20    30    38    1
    21    31    34    1
    22    31    39    1
    23    32    35    1
    24    32    40    1
    25    41    43   ar
    26    15    19    2
    27    42    43   ar
    28    16    22    2
    29    17    12    1
    30    17    19   ar
    31    17    20   ar
    32    18    19   ar
    33    18    22   ar
    34    18    23    1
    35     9    10    1
    36     9    11    1
    37    10    12    1
    38    11     5    1
    39    33    34    1
    40    33    35    1
    41    34    36    1
    42    35    37    1
    43    37    43    1
    44    20    21   ar
    45    21    22   ar
