@<TRIPOS>MOLECULE
UD2
 46 48 0 0 0
SMALL
GASTEIGER

@<TRIPOS>ATOM
      1 P          21.1623   71.5913   -2.4809 P.3     1  UNL1        0.2189
      2 O          22.3778   70.6755   -3.0056 O.3     1  UNL1       -0.4371
      3 O          21.4166   73.0035   -2.8411 O.2     1  UNL1       -0.5170
      4 O          19.7883   71.1021   -3.1639 O.3     1  UNL1       -0.3112
      5 C          18.6144   70.7902   -2.4116 C.3     1  UNL1        0.1811
      6 C          16.9849   70.5397   -5.6082 C.3     1  UNL1        0.2383
      7 C          16.9675   69.0949   -5.0477 C.3     1  UNL1        0.1895
      8 O          15.8192   68.3818   -5.5110 O.3     1  UNL1       -0.3779
      9 C          16.8870   69.3393   -3.5208 C.3     1  UNL1        0.1713
     10 C          17.3996   70.7812   -3.3428 C.3     1  UNL1        0.1764
     11 O          17.7761   71.2649   -4.6420 O.3     1  UNL1       -0.3308
     12 O          15.5366   69.2286   -3.0684 O.3     1  UNL1       -0.3794
     13 H          15.7638   67.4724   -5.1877 H       1  UNL1        0.2106
     14 H          15.1436   68.3569   -3.2104 H       1  UNL1        0.2105
     15 N          17.6216   70.5738   -6.9268 N.ar    1  UNL1       -0.2551
     16 C          16.8655   70.4740   -8.0346 C.ar    1  UNL1        0.3323
     17 N          17.4239   70.5022   -9.2592 N.ar    1  UNL1       -0.2743
     18 C          18.7593   70.6337   -9.3935 C.ar    1  UNL1        0.2626
     19 C          19.5670   70.7408   -8.2358 C.ar    1  UNL1        0.0795
     20 C          18.9801   70.7138   -7.0208 C.ar    1  UNL1        0.0869
     21 O          15.6601   70.3552   -7.9287 O.2     1  UNL1       -0.2464
     22 O          19.2658   70.6598  -10.5013 O.2     1  UNL1       -0.2670
     23 H          16.8643   70.4278  -10.0476 H       1  UNL1        0.1734
     24 O          21.0421   71.4586   -0.8805 O.3     1  UNL1       -0.2703
     25 P          22.0981   71.1660    0.2994 P.3     1  UNL1        0.2208
     26 O          21.6919   69.8042    1.0571 O.3     1  UNL1       -0.4371
     27 O          23.4538   71.0244   -0.2755 O.2     1  UNL1       -0.5170
     28 O          22.0841   72.3884    1.3474 O.3     1  UNL1       -0.2865
     29 C          22.3010   72.2148    2.7488 C.3     1  UNL1        0.2611
     30 C          21.9378   73.5060    3.4861 C.3     1  UNL1        0.1582
     31 C          22.8594   74.6327    3.0089 C.3     1  UNL1        0.1625
     32 C          24.3153   74.2205    3.2429 C.3     1  UNL1        0.1686
     33 C          24.5869   72.9014    2.5148 C.3     1  UNL1        0.1760
     34 O          22.5763   75.8249    3.7451 O.3     1  UNL1       -0.3801
     35 O          24.5443   74.0498    4.6428 O.3     1  UNL1       -0.3794
     36 O          23.6762   71.9046    2.9828 O.3     1  UNL1       -0.3263
     37 H          23.1239   76.5812    3.4937 H       1  UNL1        0.2105
     38 H          25.4485   73.7871    4.8650 H       1  UNL1        0.2105
     39 C          19.7401   74.2875    4.1912 C.2     1  UNL1        0.2231
     40 C          18.3081   74.6499    3.8970 C.3     1  UNL1        0.0946
     41 N          20.5449   73.8581    3.1992 N.am    1  UNL1       -0.2994
     42 O          20.1699   74.3819    5.3219 O.2     1  UNL1       -0.2751
     43 H          20.2014   73.7815    2.2952 H       1  UNL1        0.1496
     44 C          26.0225   72.4519    2.7926 C.3     1  UNL1        0.1693
     45 O          26.1762   71.0832    2.4114 O.3     1  UNL1       -0.3794
     46 H          27.0641   70.7303    2.5599 H       1  UNL1        0.2105
@<TRIPOS>BOND
     1    29    30    1
     2    30    41    1
     3    30    31    1
     4    31    34    1
     5    31    32    1
     6    32    35    1
     7    32    33    1
     8    33    36    1
     9    33    44    1
    10    39    40    1
    11    39    42    2
    12    39    41   am
    13    41    43    1
    14    29    28    1
    15    34    37    1
    16    35    38    1
    17    29    36    1
    18    44    45    1
    19    45    46    1
    20    15     6    1
    21    15    16   ar
    22    16    21    2
    23    16    17   ar
    24    17    23    1
    25    17    18   ar
    26    18    19   ar
    27    19    20   ar
    28    15    20   ar
    29    18    22    2
    30     6     7    1
    31     6    11    1
    32     7     9    1
    33     7     8    1
    34     8    13    1
    35     9    10    1
    36     9    12    1
    37    10     5    1
    38    10    11    1
    39    12    14    1
    40     5     4    1
    41     4     1    1
    42     1     2    1
    43     1    24    1
    44     1     3    2
    45    24    25    1
    46    28    25    1
    47    25    26    1
    48    25    27    2
@<TRIPOS>MOLECULE
UD2
 46 48 0 0 0
SMALL
GASTEIGER

@<TRIPOS>ATOM
      1 P          20.8953   71.3135   -3.7440 P.3     1  UNL1        0.2189
      2 O          21.1740   69.8715   -3.0847 O.3     1  UNL1       -0.4371
      3 O          20.9777   71.2072   -5.2173 O.2     1  UNL1       -0.5170
      4 O          19.4257   71.8205   -3.3237 O.3     1  UNL1       -0.3112
      5 C          18.4283   70.9511   -2.7843 C.3     1  UNL1        0.1811
      6 C          16.8493   70.5100   -5.9857 C.3     1  UNL1        0.2383
      7 C          16.7964   69.1074   -5.3285 C.3     1  UNL1        0.1895
      8 O          15.6435   68.3837   -5.7630 O.3     1  UNL1       -0.3779
      9 C          16.6943   69.4570   -3.8235 C.3     1  UNL1        0.1713
     10 C          17.2296   70.8989   -3.7348 C.3     1  UNL1        0.1764
     11 O          17.6369   71.2862   -5.0567 O.3     1  UNL1       -0.3308
     12 O          15.3345   69.4002   -3.3893 O.3     1  UNL1       -0.3794
     13 H          15.5662   67.4995   -5.3797 H       1  UNL1        0.2106
     14 H          14.9284   68.5275   -3.4788 H       1  UNL1        0.2105
     15 N          17.5089   70.4432   -7.2916 N.ar    1  UNL1       -0.2551
     16 C          16.7659   70.3975   -8.4118 C.ar    1  UNL1        0.3323
     17 N          17.3453   70.3355   -9.6254 N.ar    1  UNL1       -0.2743
     18 C          18.6893   70.3200   -9.7358 C.ar    1  UNL1        0.2626
     19 C          19.4836   70.3687   -8.5650 C.ar    1  UNL1        0.0795
     20 C          18.8760   70.4347   -7.3616 C.ar    1  UNL1        0.0869
     21 O          15.5531   70.4110   -8.3273 O.2     1  UNL1       -0.2464
     22 O          19.2149   70.2643  -10.8336 O.2     1  UNL1       -0.2670
     23 H          16.7948   70.3020  -10.4228 H       1  UNL1        0.1734
     24 O          21.9957   72.3656   -3.2191 O.3     1  UNL1       -0.2703
     25 P          23.5320   72.2377   -2.7539 P.3     1  UNL1        0.2208
     26 O          24.0898   70.7774   -3.1412 O.3     1  UNL1       -0.4371
     27 O          24.3418   73.2711   -3.4357 O.2     1  UNL1       -0.5170
     28 O          23.6290   72.4443   -1.1600 O.3     1  UNL1       -0.2865
     29 C          23.0205   71.5556   -0.2214 C.3     1  UNL1        0.2611
     30 C          22.0034   72.3244    0.6254 C.3     1  UNL1        0.1582
     31 C          22.7321   73.4124    1.4202 C.3     1  UNL1        0.1625
     32 C          23.8240   72.7614    2.2736 C.3     1  UNL1        0.1686
     33 C          24.7712   71.9755    1.3630 C.3     1  UNL1        0.1760
     34 O          21.8013   74.0875    2.2693 O.3     1  UNL1       -0.3801
     35 O          23.2251   71.8743    3.2200 O.3     1  UNL1       -0.3794
     36 O          24.0256   71.0014    0.6300 O.3     1  UNL1       -0.3263
     37 H          22.1950   74.7917    2.8025 H       1  UNL1        0.2105
     38 H          23.8600   71.4251    3.7955 H       1  UNL1        0.2105
     39 C          19.7659   73.1970    0.2131 C.2     1  UNL1        0.2231
     40 C          18.7395   73.8335   -0.6869 C.3     1  UNL1        0.0946
     41 N          21.0055   72.9434   -0.2507 N.am    1  UNL1       -0.2994
     42 O          19.4769   72.9120    1.3565 O.2     1  UNL1       -0.2751
     43 H          21.2367   73.1702   -1.1651 H       1  UNL1        0.1496
     44 C          25.8305   71.2729    2.2142 C.3     1  UNL1        0.1693
     45 O          25.2979   70.0486    2.7239 O.3     1  UNL1       -0.3794
     46 H          25.9164   69.5488    3.2741 H       1  UNL1        0.2105
@<TRIPOS>BOND
     1    29    30    1
     2    30    41    1
     3    30    31    1
     4    31    34    1
     5    31    32    1
     6    32    35    1
     7    32    33    1
     8    33    36    1
     9    33    44    1
    10    39    40    1
    11    39    42    2
    12    39    41   am
    13    41    43    1
    14    29    28    1
    15    34    37    1
    16    35    38    1
    17    29    36    1
    18    44    45    1
    19    45    46    1
    20    15     6    1
    21    15    16   ar
    22    16    21    2
    23    16    17   ar
    24    17    23    1
    25    17    18   ar
    26    18    19   ar
    27    19    20   ar
    28    15    20   ar
    29    18    22    2
    30     6     7    1
    31     6    11    1
    32     7     9    1
    33     7     8    1
    34     8    13    1
    35     9    10    1
    36     9    12    1
    37    10     5    1
    38    10    11    1
    39    12    14    1
    40     5     4    1
    41     4     1    1
    42     1     2    1
    43     1    24    1
    44     1     3    2
    45    24    25    1
    46    28    25    1
    47    25    26    1
    48    25    27    2
@<TRIPOS>MOLECULE
UD2
 46 48 0 0 0
SMALL
GASTEIGER

@<TRIPOS>ATOM
      1 P          20.1906   71.9494   -1.0815 P.3     1  UNL1        0.2189
      2 O          18.8866   72.8236   -0.7256 O.3     1  UNL1       -0.4371
      3 O          20.4036   70.9298   -0.0308 O.2     1  UNL1       -0.5170
      4 O          19.9766   71.2203   -2.5015 O.3     1  UNL1       -0.3112
      5 C          19.1875   70.0395   -2.6577 C.3     1  UNL1        0.1811
      6 C          17.3368   70.4033   -5.7202 C.3     1  UNL1        0.2383
      7 C          17.0421   68.9541   -5.2566 C.3     1  UNL1        0.1895
      8 O          15.7383   68.5413   -5.6706 O.3     1  UNL1       -0.3779
      9 C          17.1169   69.0840   -3.7155 C.3     1  UNL1        0.1713
     10 C          17.9416   70.3648   -3.4852 C.3     1  UNL1        0.1764
     11 O          18.3285   70.8624   -4.7760 O.3     1  UNL1       -0.3308
     12 O          15.8074   69.2256   -3.1626 O.3     1  UNL1       -0.3794
     13 H          15.5075   67.6409   -5.4047 H       1  UNL1        0.2106
     14 H          15.2256   68.4718   -3.3293 H       1  UNL1        0.2105
     15 N          17.8779   70.4096   -7.0812 N.ar    1  UNL1       -0.2551
     16 C          17.0386   70.4307   -8.1319 C.ar    1  UNL1        0.3323
     17 N          17.5081   70.4367   -9.3935 N.ar    1  UNL1       -0.2743
     18 C          18.8368   70.4233   -9.6234 C.ar    1  UNL1        0.2626
     19 C          19.7318   70.4021   -8.5267 C.ar    1  UNL1        0.0795
     20 C          19.2334   70.4008   -7.2724 C.ar    1  UNL1        0.0869
     21 O          15.8381   70.4432   -7.9396 O.2     1  UNL1       -0.2464
     22 O          19.2630   70.4292  -10.7648 O.2     1  UNL1       -0.2670
     23 H          16.8890   70.4508  -10.1397 H       1  UNL1        0.1734
     24 O          21.4777   72.9138   -1.1628 O.3     1  UNL1       -0.2703
     25 P          23.0296   72.7425   -0.7686 P.3     1  UNL1        0.2208
     26 O          23.5888   71.3614   -1.3797 O.3     1  UNL1       -0.4371
     27 O          23.8065   73.8750   -1.3186 O.2     1  UNL1       -0.5170
     28 O          23.1764   72.7188    0.8347 O.3     1  UNL1       -0.2865
     29 C          23.3791   73.8981    1.6154 C.3     1  UNL1        0.2611
     30 C          23.6921   73.5063    3.0615 C.3     1  UNL1        0.1582
     31 C          22.4913   72.7595    3.6504 C.3     1  UNL1        0.1625
     32 C          21.2493   73.6487    3.5457 C.3     1  UNL1        0.1686
     33 C          21.0304   74.0350    2.0805 C.3     1  UNL1        0.1760
     34 O          22.7458   72.4541    5.0234 O.3     1  UNL1       -0.3801
     35 O          21.4396   74.8289    4.3281 O.3     1  UNL1       -0.3794
     36 O          22.1953   74.6981    1.5853 O.3     1  UNL1       -0.3263
     37 H          22.0255   71.9792    5.4603 H       1  UNL1        0.2105
     38 H          20.6901   75.4404    4.3076 H       1  UNL1        0.2105
     39 C          26.1053   73.1759    3.1300 C.2     1  UNL1        0.2231
     40 C          27.3178   72.2827    3.1582 C.3     1  UNL1        0.0946
     41 N          24.8709   72.6368    3.0887 N.am    1  UNL1       -0.2994
     42 O          26.2396   74.3817    3.1444 O.2     1  UNL1       -0.2751
     43 H          24.7632   71.6728    3.0762 H       1  UNL1        0.1496
     44 C          19.8259   74.9723    1.9750 C.3     1  UNL1        0.1693
     45 O          19.5650   75.2608    0.5998 O.3     1  UNL1       -0.3794
     46 H          18.8126   75.8512    0.4571 H       1  UNL1        0.2105
@<TRIPOS>BOND
     1    29    30    1
     2    30    41    1
     3    30    31    1
     4    31    34    1
     5    31    32    1
     6    32    35    1
     7    32    33    1
     8    33    36    1
     9    33    44    1
    10    39    40    1
    11    39    42    2
    12    39    41   am
    13    41    43    1
    14    29    28    1
    15    34    37    1
    16    35    38    1
    17    29    36    1
    18    44    45    1
    19    45    46    1
    20    15     6    1
    21    15    16   ar
    22    16    21    2
    23    16    17   ar
    24    17    23    1
    25    17    18   ar
    26    18    19   ar
    27    19    20   ar
    28    15    20   ar
    29    18    22    2
    30     6     7    1
    31     6    11    1
    32     7     9    1
    33     7     8    1
    34     8    13    1
    35     9    10    1
    36     9    12    1
    37    10     5    1
    38    10    11    1
    39    12    14    1
    40     5     4    1
    41     4     1    1
    42     1     2    1
    43     1    24    1
    44     1     3    2
    45    24    25    1
    46    28    25    1
    47    25    26    1
    48    25    27    2
@<TRIPOS>MOLECULE
UD2
 46 48 0 0 0
SMALL
GASTEIGER

@<TRIPOS>ATOM
      1 P          20.8167   70.8097   -3.3595 P.3     1  UNL1        0.2189
      2 O          21.4037   70.4059   -1.9160 O.3     1  UNL1       -0.4371
      3 O          20.5244   69.5838   -4.1344 O.2     1  UNL1       -0.5170
      4 O          19.4623   71.6601   -3.1691 O.3     1  UNL1       -0.3112
      5 C          18.3188   71.1557   -2.4766 C.3     1  UNL1        0.1811
      6 C          16.8668   70.6221   -5.7237 C.3     1  UNL1        0.2383
      7 C          16.9338   69.2093   -5.0898 C.3     1  UNL1        0.1895
      8 O          15.8669   68.3860   -5.5648 O.3     1  UNL1       -0.3779
      9 C          16.7625   69.5205   -3.5828 C.3     1  UNL1        0.1713
     10 C          17.1539   71.0054   -3.4581 C.3     1  UNL1        0.1764
     11 O          17.5533   71.4536   -4.7631 O.3     1  UNL1       -0.3308
     12 O          15.4046   69.3256   -3.1843 O.3     1  UNL1       -0.3794
     13 H          15.8662   67.4918   -5.1973 H       1  UNL1        0.2106
     14 H          15.0868   68.4197   -3.2977 H       1  UNL1        0.2105
     15 N          17.5608   70.6422   -7.0133 N.ar    1  UNL1       -0.2551
     16 C          16.8564   70.5100   -8.1513 C.ar    1  UNL1        0.3323
     17 N          17.4680   70.5247   -9.3504 N.ar    1  UNL1       -0.2743
     18 C          18.8059   70.6753   -9.4281 C.ar    1  UNL1        0.2626
     19 C          19.5597   70.8166   -8.2382 C.ar    1  UNL1        0.0795
     20 C          18.9199   70.8024   -7.0500 C.ar    1  UNL1        0.0869
     21 O          15.6494   70.3737   -8.0964 O.2     1  UNL1       -0.2464
     22 O          19.3607   70.6892  -10.5128 O.2     1  UNL1       -0.2670
     23 H          16.9452   70.4269  -10.1611 H       1  UNL1        0.1734
     24 O          21.9012   71.6993   -4.1505 O.3     1  UNL1       -0.2703
     25 P          22.8597   72.9244   -3.7344 P.3     1  UNL1        0.2208
     26 O          24.2969   72.7440   -4.4384 O.3     1  UNL1       -0.4371
     27 O          22.2516   74.1988   -4.1755 O.2     1  UNL1       -0.5170
     28 O          23.0437   72.9424   -2.1348 O.3     1  UNL1       -0.2865
     29 C          22.2965   73.8046   -1.2749 C.3     1  UNL1        0.2611
     30 C          23.2237   74.8738   -0.6919 C.3     1  UNL1        0.1582
     31 C          24.3036   74.1939    0.1554 C.3     1  UNL1        0.1625
     32 C          23.6297   73.3540    1.2438 C.3     1  UNL1        0.1686
     33 C          22.6867   72.3430    0.5860 C.3     1  UNL1        0.1760
     34 O          25.1301   75.1892    0.7634 O.3     1  UNL1       -0.3801
     35 O          22.8840   74.2080    2.1132 O.3     1  UNL1       -0.3794
     36 O          21.7265   73.0387   -0.2115 O.3     1  UNL1       -0.3263
     37 H          25.8377   74.8288    1.3153 H       1  UNL1        0.2105
     38 H          22.4287   73.7418    2.8282 H       1  UNL1        0.2105
     39 C          23.9757   76.9609   -1.7001 C.2     1  UNL1        0.2231
     40 C          24.6251   77.7299   -2.8206 C.3     1  UNL1        0.0946
     41 N          23.8553   75.6211   -1.7824 N.am    1  UNL1       -0.2994
     42 O          23.5605   77.5475   -0.7225 O.2     1  UNL1       -0.2751
     43 H          24.1862   75.1518   -2.5642 H       1  UNL1        0.1496
     44 C          21.9644   71.5399    1.6694 C.3     1  UNL1        0.1693
     45 O          21.6132   70.2535    1.1553 O.3     1  UNL1       -0.3794
     46 H          21.1509   69.6887    1.7895 H       1  UNL1        0.2105
@<TRIPOS>BOND
     1    29    30    1
     2    30    41    1
     3    30    31    1
     4    31    34    1
     5    31    32    1
     6    32    35    1
     7    32    33    1
     8    33    36    1
     9    33    44    1
    10    39    40    1
    11    39    42    2
    12    39    41   am
    13    41    43    1
    14    29    28    1
    15    34    37    1
    16    35    38    1
    17    29    36    1
    18    44    45    1
    19    45    46    1
    20    15     6    1
    21    15    16   ar
    22    16    21    2
    23    16    17   ar
    24    17    23    1
    25    17    18   ar
    26    18    19   ar
    27    19    20   ar
    28    15    20   ar
    29    18    22    2
    30     6     7    1
    31     6    11    1
    32     7     9    1
    33     7     8    1
    34     8    13    1
    35     9    10    1
    36     9    12    1
    37    10     5    1
    38    10    11    1
    39    12    14    1
    40     5     4    1
    41     4     1    1
    42     1     2    1
    43     1    24    1
    44     1     3    2
    45    24    25    1
    46    28    25    1
    47    25    26    1
    48    25    27    2
@<TRIPOS>MOLECULE
UD2
 46 48 0 0 0
SMALL
GASTEIGER

@<TRIPOS>ATOM
      1 P          16.6116   69.3837   -3.1418 P.3     1  UNL1        0.2189
      2 O          17.4652   68.1727   -2.5124 O.3     1  UNL1       -0.4371
      3 O          15.9781   68.9385   -4.4025 O.2     1  UNL1       -0.5170
      4 O          15.4710   69.8352   -2.0982 O.3     1  UNL1       -0.3112
      5 C          15.2246   69.1472   -0.8705 C.3     1  UNL1        0.1811
      6 C          12.2883   68.0972    0.9217 C.3     1  UNL1        0.2383
      7 C          12.5651   69.5334    1.4345 C.3     1  UNL1        0.1895
      8 O          11.3481   70.1896    1.7951 O.3     1  UNL1       -0.3779
      9 C          13.2075   70.2031    0.1951 C.3     1  UNL1        0.1713
     10 C          13.7150   69.0202   -0.6514 C.3     1  UNL1        0.1764
     11 O          13.4266   67.8170    0.0783 O.3     1  UNL1       -0.3308
     12 O          12.2311   70.9540   -0.5285 O.3     1  UNL1       -0.3794
     13 H          11.4692   71.0912    2.1226 H       1  UNL1        0.2106
     14 H          11.8347   71.6760   -0.0225 H       1  UNL1        0.2105
     15 N          12.2291   67.1529    2.0396 N.ar    1  UNL1       -0.2551
     16 C          13.3694   66.6892    2.5815 C.ar    1  UNL1        0.3323
     17 N          13.3448   65.8204    3.6095 N.ar    1  UNL1       -0.2743
     18 C          12.1673   65.4009    4.1155 C.ar    1  UNL1        0.2626
     19 C          10.9593   65.8816    3.5555 C.ar    1  UNL1        0.0795
     20 C          11.0137   66.7553    2.5283 C.ar    1  UNL1        0.0869
     21 O          14.4383   67.0591    2.1354 O.2     1  UNL1       -0.2464
     22 O          12.1437   64.6149    5.0462 O.2     1  UNL1       -0.2670
     23 H          14.1763   65.4951    3.9875 H       1  UNL1        0.1734
     24 O          17.5871   70.6294   -3.4416 O.3     1  UNL1       -0.2703
     25 P          18.7275   71.3857   -2.5928 P.3     1  UNL1        0.2208
     26 O          18.0478   72.5198   -1.6731 O.3     1  UNL1       -0.4371
     27 O          19.4311   70.4098   -1.7322 O.2     1  UNL1       -0.5170
     28 O          19.7804   72.0709   -3.6000 O.3     1  UNL1       -0.2865
     29 C          20.8558   71.3534   -4.2083 C.3     1  UNL1        0.2611
     30 C          21.9396   72.3379   -4.6543 C.3     1  UNL1        0.1582
     31 C          21.3559   73.2832   -5.7088 C.3     1  UNL1        0.1625
     32 C          20.8089   72.4548   -6.8746 C.3     1  UNL1        0.1686
     33 C          19.7684   71.4656   -6.3429 C.3     1  UNL1        0.1760
     34 O          22.3808   74.1587   -6.1845 O.3     1  UNL1       -0.3801
     35 O          21.8781   71.7374   -7.4938 O.3     1  UNL1       -0.3794
     36 O          20.3676   70.6372   -5.3445 O.3     1  UNL1       -0.3263
     37 H          22.0808   74.7866   -6.8559 H       1  UNL1        0.2105
     38 H          21.6034   71.1891   -8.2421 H       1  UNL1        0.2105
     39 C          23.7128   73.3685   -3.3385 C.2     1  UNL1        0.2231
     40 C          24.1861   74.1678   -2.1529 C.3     1  UNL1        0.0946
     41 N          22.3992   73.1153   -3.5006 N.am    1  UNL1       -0.2994
     42 O          24.5145   72.9521   -4.1486 O.2     1  UNL1       -0.2751
     43 H          21.7580   73.4472   -2.8527 H       1  UNL1        0.1496
     44 C          19.2604   70.5932   -7.4923 C.3     1  UNL1        0.1693
     45 O          19.3124   71.3346   -8.7130 O.3     1  UNL1       -0.3794
     46 H          19.0042   70.8424   -9.4862 H       1  UNL1        0.2105
@<TRIPOS>BOND
     1    29    30    1
     2    30    41    1
     3    30    31    1
     4    31    34    1
     5    31    32    1
     6    32    35    1
     7    32    33    1
     8    33    36    1
     9    33    44    1
    10    39    40    1
    11    39    42    2
    12    39    41   am
    13    41    43    1
    14    29    28    1
    15    34    37    1
    16    35    38    1
    17    29    36    1
    18    44    45    1
    19    45    46    1
    20    15     6    1
    21    15    16   ar
    22    16    21    2
    23    16    17   ar
    24    17    23    1
    25    17    18   ar
    26    18    19   ar
    27    19    20   ar
    28    15    20   ar
    29    18    22    2
    30     6     7    1
    31     6    11    1
    32     7     9    1
    33     7     8    1
    34     8    13    1
    35     9    10    1
    36     9    12    1
    37    10     5    1
    38    10    11    1
    39    12    14    1
    40     5     4    1
    41     4     1    1
    42     1     2    1
    43     1    24    1
    44     1     3    2
    45    24    25    1
    46    28    25    1
    47    25    26    1
    48    25    27    2
@<TRIPOS>MOLECULE
UD2
 46 48 0 0 0
SMALL
GASTEIGER

@<TRIPOS>ATOM
      1 P          22.9102   73.4070   -4.5722 P.3     1  UNL1        0.2189
      2 O          23.2931   74.5659   -5.6218 O.3     1  UNL1       -0.4371
      3 O          24.0767   72.5200   -4.3685 O.2     1  UNL1       -0.5170
      4 O          22.4905   74.0730   -3.1672 O.3     1  UNL1       -0.3112
      5 C          21.4733   73.5307   -2.3231 C.3     1  UNL1        0.1811
      6 C          23.2787   71.5329    0.0614 C.3     1  UNL1        0.2383
      7 C          21.8481   71.6414    0.6477 C.3     1  UNL1        0.1895
      8 O          21.5160   70.4740    1.4018 O.3     1  UNL1       -0.3779
      9 C          20.9794   71.7391   -0.6303 C.3     1  UNL1        0.1713
     10 C          21.9621   72.2122   -1.7184 C.3     1  UNL1        0.1764
     11 O          23.2377   72.4073   -1.0872 O.3     1  UNL1       -0.3308
     12 O          20.4395   70.4596   -0.9655 O.3     1  UNL1       -0.3794
     13 H          20.6306   70.4946    1.7895 H       1  UNL1        0.2106
     14 H          19.8594   70.0869   -0.2880 H       1  UNL1        0.2105
     15 N          24.2707   72.0013    1.0317 N.ar    1  UNL1       -0.2551
     16 C          24.9479   71.1090    1.7760 C.ar    1  UNL1        0.3323
     17 N          25.8651   71.5112    2.6755 N.ar    1  UNL1       -0.2743
     18 C          26.1211   72.8246    2.8430 C.ar    1  UNL1        0.2626
     19 C          25.4164   73.7748    2.0655 C.ar    1  UNL1        0.0795
     20 C          24.5054   73.3431    1.1681 C.ar    1  UNL1        0.0869
     21 O          24.7275   69.9215    1.6355 O.2     1  UNL1       -0.2464
     22 O          26.9513   73.1899    3.6565 O.2     1  UNL1       -0.2670
     23 H          26.3435   70.8546    3.2049 H       1  UNL1        0.1734
     24 O          21.6760   72.5475   -5.1477 O.3     1  UNL1       -0.2703
     25 P          20.3560   72.9150   -5.9935 P.3     1  UNL1        0.2208
     26 O          19.9843   74.4647   -5.7609 O.3     1  UNL1       -0.4371
     27 O          20.6099   72.6798   -7.4318 O.2     1  UNL1       -0.5170
     28 O          19.1315   71.9900   -5.5059 O.3     1  UNL1       -0.2865
     29 C          19.1401   70.5655   -5.6161 C.3     1  UNL1        0.2611
     30 C          18.0868   70.1254   -6.6358 C.3     1  UNL1        0.1582
     31 C          16.7002   70.5451   -6.1381 C.3     1  UNL1        0.1625
     32 C          16.4597   69.9345   -4.7548 C.3     1  UNL1        0.1686
     33 C          17.5760   70.3822   -3.8074 C.3     1  UNL1        0.1760
     34 O          15.7038   70.0736   -7.0481 O.3     1  UNL1       -0.3801
     35 O          16.4606   68.5092   -4.8550 O.3     1  UNL1       -0.3794
     36 O          18.8404   69.9879   -4.3438 O.3     1  UNL1       -0.3263
     37 H          14.7995   70.3047   -6.7949 H       1  UNL1        0.2105
     38 H          16.3142   68.0550   -4.0135 H       1  UNL1        0.2105
     39 C          18.9187   70.0542   -8.9250 C.2     1  UNL1        0.2231
     40 C          19.1976   70.7100  -10.2519 C.3     1  UNL1        0.0946
     41 N          18.3580   70.7641   -7.9261 N.am    1  UNL1       -0.2994
     42 O          19.1990   68.8860   -8.7547 O.2     1  UNL1       -0.2751
     43 H          18.1347   71.6983   -8.0615 H       1  UNL1        0.1496
     44 C          17.3759   69.7283   -2.4389 C.3     1  UNL1        0.1693
     45 O          17.7969   68.3638   -2.4959 O.3     1  UNL1       -0.3794
     46 H          17.6982   67.8860   -1.6611 H       1  UNL1        0.2105
@<TRIPOS>BOND
     1    29    30    1
     2    30    41    1
     3    30    31    1
     4    31    34    1
     5    31    32    1
     6    32    35    1
     7    32    33    1
     8    33    36    1
     9    33    44    1
    10    39    40    1
    11    39    42    2
    12    39    41   am
    13    41    43    1
    14    29    28    1
    15    34    37    1
    16    35    38    1
    17    29    36    1
    18    44    45    1
    19    45    46    1
    20    15     6    1
    21    15    16   ar
    22    16    21    2
    23    16    17   ar
    24    17    23    1
    25    17    18   ar
    26    18    19   ar
    27    19    20   ar
    28    15    20   ar
    29    18    22    2
    30     6     7    1
    31     6    11    1
    32     7     9    1
    33     7     8    1
    34     8    13    1
    35     9    10    1
    36     9    12    1
    37    10     5    1
    38    10    11    1
    39    12    14    1
    40     5     4    1
    41     4     1    1
    42     1     2    1
    43     1    24    1
    44     1     3    2
    45    24    25    1
    46    28    25    1
    47    25    26    1
    48    25    27    2
@<TRIPOS>MOLECULE
UD2
 46 48 0 0 0
SMALL
GASTEIGER

@<TRIPOS>ATOM
      1 P          17.0805   69.2476   -2.5505 P.3     1  UNL1        0.2189
      2 O          17.6028   68.0825   -3.5308 O.3     1  UNL1       -0.4371
      3 O          16.3021   70.2361   -3.3290 O.2     1  UNL1       -0.5170
      4 O          16.1442   68.6073   -1.4072 O.3     1  UNL1       -0.3112
      5 C          15.0837   69.3282   -0.7772 C.3     1  UNL1        0.1811
      6 C          12.8166   67.7681    1.5386 C.3     1  UNL1        0.2383
      7 C          12.0101   68.9477    0.9385 C.3     1  UNL1        0.1895
      8 O          10.6155   68.6400    0.8907 O.3     1  UNL1       -0.3779
      9 C          12.6016   69.0535   -0.4885 C.3     1  UNL1        0.1713
     10 C          13.9706   68.3549   -0.3814 C.3     1  UNL1        0.1764
     11 O          14.1386   67.9505    0.9867 O.3     1  UNL1       -0.3308
     12 O          11.7653   68.3747   -1.4269 O.3     1  UNL1       -0.3794
     13 H          10.0687   69.3476    0.5233 H       1  UNL1        0.2106
     14 H          10.8712   68.7365   -1.4916 H       1  UNL1        0.2105
     15 N          12.8505   67.8571    3.0001 N.ar    1  UNL1       -0.2551
     16 C          12.4906   69.0023    3.6065 C.ar    1  UNL1        0.3323
     17 N          12.5123   69.1124    4.9480 N.ar    1  UNL1       -0.2743
     18 C          12.8965   68.0672    5.7087 C.ar    1  UNL1        0.2626
     19 C          13.2770   66.8553    5.0836 C.ar    1  UNL1        0.0795
     20 C          13.2416   66.7717    3.7371 C.ar    1  UNL1        0.0869
     21 O          12.1418   69.9528    2.9333 O.2     1  UNL1       -0.2464
     22 O          12.9162   68.1654    6.9230 O.2     1  UNL1       -0.2670
     23 H          12.2508   69.9458    5.3691 H       1  UNL1        0.1734
     24 O          18.3414   69.9773   -1.8642 O.3     1  UNL1       -0.2703
     25 P          19.2054   71.2881   -2.2222 P.3     1  UNL1        0.2208
     26 O          18.6887   72.5294   -1.3357 O.3     1  UNL1       -0.4371
     27 O          20.6329   71.0337   -1.9289 O.2     1  UNL1       -0.5170
     28 O          19.0317   71.6349   -3.7850 O.3     1  UNL1       -0.2865
     29 C          19.8216   71.0286   -4.8094 C.3     1  UNL1        0.2611
     30 C          20.5585   72.1146   -5.5970 C.3     1  UNL1        0.1582
     31 C          19.5317   73.0244   -6.2786 C.3     1  UNL1        0.1625
     32 C          18.6252   72.1734   -7.1721 C.3     1  UNL1        0.1686
     33 C          17.9626   71.0849   -6.3235 C.3     1  UNL1        0.1760
     34 O          20.2110   73.9972   -7.0758 O.3     1  UNL1       -0.3801
     35 O          19.4050   71.5667   -8.2041 O.3     1  UNL1       -0.3794
     36 O          18.9722   70.2940   -5.6933 O.3     1  UNL1       -0.3263
     37 H          19.6207   74.6088   -7.5369 H       1  UNL1        0.2105
     38 H          18.8940   71.0109   -8.8090 H       1  UNL1        0.2105
     39 C          22.7173   72.9774   -4.8672 C.2     1  UNL1        0.2231
     40 C          23.5669   73.7922   -3.9276 C.3     1  UNL1        0.0946
     41 N          21.3842   72.9072   -4.6825 N.am    1  UNL1       -0.2994
     42 O          23.2329   72.3836   -5.7912 O.2     1  UNL1       -0.2751
     43 H          20.9717   73.3809   -3.9433 H       1  UNL1        0.1496
     44 C          17.1014   70.1933   -7.2200 C.3     1  UNL1        0.1693
     45 O          15.7234   70.3676   -6.8837 O.3     1  UNL1       -0.3794
     46 H          15.1177   69.8315   -7.4136 H       1  UNL1        0.2105
@<TRIPOS>BOND
     1    29    30    1
     2    30    41    1
     3    30    31    1
     4    31    34    1
     5    31    32    1
     6    32    35    1
     7    32    33    1
     8    33    36    1
     9    33    44    1
    10    39    40    1
    11    39    42    2
    12    39    41   am
    13    41    43    1
    14    29    28    1
    15    34    37    1
    16    35    38    1
    17    29    36    1
    18    44    45    1
    19    45    46    1
    20    15     6    1
    21    15    16   ar
    22    16    21    2
    23    16    17   ar
    24    17    23    1
    25    17    18   ar
    26    18    19   ar
    27    19    20   ar
    28    15    20   ar
    29    18    22    2
    30     6     7    1
    31     6    11    1
    32     7     9    1
    33     7     8    1
    34     8    13    1
    35     9    10    1
    36     9    12    1
    37    10     5    1
    38    10    11    1
    39    12    14    1
    40     5     4    1
    41     4     1    1
    42     1     2    1
    43     1    24    1
    44     1     3    2
    45    24    25    1
    46    28    25    1
    47    25    26    1
    48    25    27    2
@<TRIPOS>MOLECULE
UD2
 46 48 0 0 0
SMALL
GASTEIGER

@<TRIPOS>ATOM
      1 P          15.7267   70.8051   -2.7364 P.3     1  UNL1        0.2189
      2 O          14.4214   71.7426   -2.6442 O.3     1  UNL1       -0.4371
      3 O          16.7915   71.3541   -1.8683 O.2     1  UNL1       -0.5170
      4 O          15.3529   69.3157   -2.2508 O.3     1  UNL1       -0.3112
      5 C          15.1428   68.9754   -0.8791 C.3     1  UNL1        0.1811
      6 C          12.2499   68.0425    1.0438 C.3     1  UNL1        0.2383
      7 C          12.5958   69.4731    1.5293 C.3     1  UNL1        0.1895
      8 O          11.4176   70.1736    1.9328 O.3     1  UNL1       -0.3779
      9 C          13.2082   70.1091    0.2574 C.3     1  UNL1        0.1713
     10 C          13.6402   68.9018   -0.5967 C.3     1  UNL1        0.1764
     11 O          13.3421   67.7159    0.1572 O.3     1  UNL1       -0.3308
     12 O          12.2283   70.8859   -0.4333 O.3     1  UNL1       -0.3794
     13 H          11.5823   71.0735    2.2453 H       1  UNL1        0.2106
     14 H          11.8778   71.6256    0.0809 H       1  UNL1        0.2105
     15 N          12.2056   67.1111    2.1732 N.ar    1  UNL1       -0.2551
     16 C          13.3529   66.6524    2.7042 C.ar    1  UNL1        0.3323
     17 N          13.3420   65.7955    3.7423 N.ar    1  UNL1       -0.2743
     18 C          12.1714   65.3832    4.2698 C.ar    1  UNL1        0.2626
     19 C          10.9560   65.8588    3.7214 C.ar    1  UNL1        0.0795
     20 C          10.9968   66.7205    2.6835 C.ar    1  UNL1        0.0869
     21 O          14.4158   67.0159    2.2389 O.2     1  UNL1       -0.2464
     22 O          12.1602   64.6079    5.2097 O.2     1  UNL1       -0.2670
     23 H          14.1785   65.4736    4.1124 H       1  UNL1        0.1734
     24 O          16.2471   70.7573   -4.2596 O.3     1  UNL1       -0.2703
     25 P          17.1064   69.6974   -5.1147 P.3     1  UNL1        0.2208
     26 O          17.5055   68.4501   -4.1772 O.3     1  UNL1       -0.4371
     27 O          16.3002   69.2162   -6.2579 O.2     1  UNL1       -0.5170
     28 O          18.4438   70.4077   -5.6617 O.3     1  UNL1       -0.2865
     29 C          18.6995   71.8055   -5.5128 C.3     1  UNL1        0.2611
     30 C          19.7409   72.2474   -6.5438 C.3     1  UNL1        0.1582
     31 C          21.0541   71.5038   -6.2811 C.3     1  UNL1        0.1625
     32 C          21.5061   71.7799   -4.8445 C.3     1  UNL1        0.1686
     33 C          20.3963   71.3558   -3.8788 C.3     1  UNL1        0.1760
     34 O          22.0539   71.9643   -7.1931 O.3     1  UNL1       -0.3801
     35 O          21.7701   73.1751   -4.6865 O.3     1  UNL1       -0.3794
     36 O          19.1950   72.0612   -4.1970 O.3     1  UNL1       -0.3263
     37 H          22.9133   71.5344   -7.0839 H       1  UNL1        0.2105
     38 H          22.0610   73.4229   -3.7977 H       1  UNL1        0.2105
     39 C          19.6161   70.7720   -8.4791 C.2     1  UNL1        0.2231
     40 C          19.1223   70.4462   -9.8642 C.3     1  UNL1        0.0946
     41 N          19.2603   71.9313   -7.8912 N.am    1  UNL1       -0.2994
     42 O          20.3349   69.9906   -7.8918 O.2     1  UNL1       -0.2751
     43 H          18.6865   72.5568   -8.3608 H       1  UNL1        0.1496
     44 C          20.8159   71.6835   -2.4446 C.3     1  UNL1        0.1693
     45 O          19.7431   71.3764   -1.5517 O.3     1  UNL1       -0.3794
     46 H          19.9391   71.5597   -0.6227 H       1  UNL1        0.2105
@<TRIPOS>BOND
     1    29    30    1
     2    30    41    1
     3    30    31    1
     4    31    34    1
     5    31    32    1
     6    32    35    1
     7    32    33    1
     8    33    36    1
     9    33    44    1
    10    39    40    1
    11    39    42    2
    12    39    41   am
    13    41    43    1
    14    29    28    1
    15    34    37    1
    16    35    38    1
    17    29    36    1
    18    44    45    1
    19    45    46    1
    20    15     6    1
    21    15    16   ar
    22    16    21    2
    23    16    17   ar
    24    17    23    1
    25    17    18   ar
    26    18    19   ar
    27    19    20   ar
    28    15    20   ar
    29    18    22    2
    30     6     7    1
    31     6    11    1
    32     7     9    1
    33     7     8    1
    34     8    13    1
    35     9    10    1
    36     9    12    1
    37    10     5    1
    38    10    11    1
    39    12    14    1
    40     5     4    1
    41     4     1    1
    42     1     2    1
    43     1    24    1
    44     1     3    2
    45    24    25    1
    46    28    25    1
    47    25    26    1
    48    25    27    2
@<TRIPOS>MOLECULE
UD2
 46 48 0 0 0
SMALL
GASTEIGER

@<TRIPOS>ATOM
      1 P          16.5146   69.5237   -2.9595 P.3     1  UNL1        0.2189
      2 O          17.4489   68.4484   -2.2098 O.3     1  UNL1       -0.4371
      3 O          16.1465   69.0105   -4.2975 O.2     1  UNL1       -0.5170
      4 O          15.1794   69.7707   -2.0934 O.3     1  UNL1       -0.3112
      5 C          14.9851   69.2180   -0.7903 C.3     1  UNL1        0.1811
      6 C          12.1415   68.0168    1.0557 C.3     1  UNL1        0.2383
      7 C          12.3653   69.4583    1.5791 C.3     1  UNL1        0.1895
      8 O          11.1288   70.0549    1.9752 O.3     1  UNL1       -0.3779
      9 C          12.9479   70.1699    0.3335 C.3     1  UNL1        0.1713
     10 C          13.4883   69.0204   -0.5384 C.3     1  UNL1        0.1764
     11 O          13.2713   67.7975    0.1833 O.3     1  UNL1       -0.3308
     12 O          11.9221   70.8836   -0.3587 O.3     1  UNL1       -0.3794
     13 H          11.2167   70.9573    2.3105 H       1  UNL1        0.2106
     14 H          11.5055   71.5814    0.1648 H       1  UNL1        0.2105
     15 N          12.1509   67.0586    2.1634 N.ar    1  UNL1       -0.2551
     16 C          13.3231   66.6066    2.6435 C.ar    1  UNL1        0.3323
     17 N          13.3615   65.7255    3.6606 N.ar    1  UNL1       -0.2743
     18 C          12.2165   65.2817    4.2179 C.ar    1  UNL1        0.2626
     19 C          10.9755   65.7500    3.7230 C.ar    1  UNL1        0.0795
     20 C          10.9668   66.6364    2.7052 C.ar    1  UNL1        0.0869
     21 O          14.3634   66.9982    2.1509 O.2     1  UNL1       -0.2464
     22 O          12.2499   64.4846    5.1387 O.2     1  UNL1       -0.2670
     23 H          14.2152   65.4088    3.9940 H       1  UNL1        0.1734
     24 O          17.3148   70.9121   -3.1183 O.3     1  UNL1       -0.2703
     25 P          17.2359   72.1347   -4.1633 P.3     1  UNL1        0.2208
     26 O          15.7908   72.1397   -4.8744 O.3     1  UNL1       -0.4371
     27 O          17.4357   73.4121   -3.4446 O.2     1  UNL1       -0.5170
     28 O          18.3831   71.9613   -5.2797 O.3     1  UNL1       -0.2865
     29 C          19.0099   70.7092   -5.5639 C.3     1  UNL1        0.2611
     30 C          20.5245   70.9066   -5.6633 C.3     1  UNL1        0.1582
     31 C          20.8318   71.8551   -6.8262 C.3     1  UNL1        0.1625
     32 C          20.2360   71.2777   -8.1130 C.3     1  UNL1        0.1686
     33 C          18.7322   71.0660   -7.9191 C.3     1  UNL1        0.1760
     34 O          22.2476   71.9874   -6.9727 O.3     1  UNL1       -0.3801
     35 O          20.8606   70.0273   -8.4094 O.3     1  UNL1       -0.3794
     36 O          18.5146   70.1996   -6.8038 O.3     1  UNL1       -0.3263
     37 H          22.5148   72.5759   -7.6921 H       1  UNL1        0.2105
     38 H          20.5304   69.6029   -9.2137 H       1  UNL1        0.2105
     39 C          21.2578   70.6921   -3.3495 C.2     1  UNL1        0.2231
     40 C          21.7732   71.2860   -2.0648 C.3     1  UNL1        0.0946
     41 N          21.0256   71.4851   -4.4140 N.am    1  UNL1       -0.2994
     42 O          21.0514   69.4989   -3.4264 O.2     1  UNL1       -0.2751
     43 H          21.1895   72.4392   -4.3526 H       1  UNL1        0.1496
     44 C          18.1397   70.4335   -9.1798 C.3     1  UNL1        0.1693
     45 O          18.6993   71.0600  -10.3360 O.3     1  UNL1       -0.3794
     46 H          18.3682   70.7083  -11.1737 H       1  UNL1        0.2105
@<TRIPOS>BOND
     1    29    30    1
     2    30    41    1
     3    30    31    1
     4    31    34    1
     5    31    32    1
     6    32    35    1
     7    32    33    1
     8    33    36    1
     9    33    44    1
    10    39    40    1
    11    39    42    2
    12    39    41   am
    13    41    43    1
    14    29    28    1
    15    34    37    1
    16    35    38    1
    17    29    36    1
    18    44    45    1
    19    45    46    1
    20    15     6    1
    21    15    16   ar
    22    16    21    2
    23    16    17   ar
    24    17    23    1
    25    17    18   ar
    26    18    19   ar
    27    19    20   ar
    28    15    20   ar
    29    18    22    2
    30     6     7    1
    31     6    11    1
    32     7     9    1
    33     7     8    1
    34     8    13    1
    35     9    10    1
    36     9    12    1
    37    10     5    1
    38    10    11    1
    39    12    14    1
    40     5     4    1
    41     4     1    1
    42     1     2    1
    43     1    24    1
    44     1     3    2
    45    24    25    1
    46    28    25    1
    47    25    26    1
    48    25    27    2
@<TRIPOS>MOLECULE
UD2
 46 48 0 0 0
SMALL
GASTEIGER

@<TRIPOS>ATOM
      1 P          21.4060   71.1610   -0.2115 P.3     1  UNL1        0.2189
      2 O          21.4988   70.2397    1.1054 O.3     1  UNL1       -0.4371
      3 O          22.6574   71.0362   -0.9908 O.2     1  UNL1       -0.5170
      4 O          20.1614   70.6823   -1.1145 O.3     1  UNL1       -0.3112
      5 C          20.2363   70.5534   -2.5355 C.3     1  UNL1        0.1811
      6 C          17.8487   70.6010   -5.2250 C.3     1  UNL1        0.2383
      7 C          17.7417   69.1722   -4.6341 C.3     1  UNL1        0.1895
      8 O          16.4164   68.6581   -4.7796 O.3     1  UNL1       -0.3779
      9 C          18.0809   69.4109   -3.1424 C.3     1  UNL1        0.1713
     10 C          18.8435   70.7496   -3.1392 C.3     1  UNL1        0.1764
     11 O          18.9589   71.1795   -4.5049 O.3     1  UNL1       -0.3308
     12 O          16.8843   69.5145   -2.3690 O.3     1  UNL1       -0.3794
     13 H          16.2992   67.7662   -4.4254 H       1  UNL1        0.2106
     14 H          16.3354   68.7190   -2.3838 H       1  UNL1        0.2105
     15 N          18.1368   70.5455   -6.6600 N.ar    1  UNL1       -0.2551
     16 C          17.1225   70.5205   -7.5428 C.ar    1  UNL1        0.3323
     17 N          17.3579   70.4693   -8.8672 N.ar    1  UNL1       -0.2743
     18 C          18.6239   70.4440   -9.3311 C.ar    1  UNL1        0.2626
     19 C          19.7012   70.4709   -8.4131 C.ar    1  UNL1        0.0795
     20 C          19.4360   70.5265   -7.0909 C.ar    1  UNL1        0.0869
     21 O          15.9759   70.5429   -7.1388 O.2     1  UNL1       -0.2464
     22 O          18.8383   70.3981  -10.5296 O.2     1  UNL1       -0.2670
     23 H          16.6149   70.4506   -9.4900 H       1  UNL1        0.1734
     24 O          21.1942   72.6974    0.2219 O.3     1  UNL1       -0.2703
     25 P          21.0919   74.0840   -0.5903 P.3     1  UNL1        0.2208
     26 O          21.2426   73.7941   -2.1673 O.3     1  UNL1       -0.4371
     27 O          19.7792   74.7138   -0.3284 O.2     1  UNL1       -0.5170
     28 O          22.2678   75.0743   -0.1116 O.3     1  UNL1       -0.2865
     29 C          23.6222   74.6512    0.0550 C.3     1  UNL1        0.2611
     30 C          24.0462   74.8556    1.5115 C.3     1  UNL1        0.1582
     31 C          23.9805   76.3484    1.8486 C.3     1  UNL1        0.1625
     32 C          24.8702   77.1212    0.8712 C.3     1  UNL1        0.1686
     33 C          24.4143   76.8295   -0.5610 C.3     1  UNL1        0.1760
     34 O          24.4449   76.5568    3.1843 O.3     1  UNL1       -0.3801
     35 O          26.2286   76.7094    1.0338 O.3     1  UNL1       -0.3794
     36 O          24.4700   75.4216   -0.7994 O.3     1  UNL1       -0.3263
     37 H          24.4299   77.4819    3.4657 H       1  UNL1        0.2105
     38 H          26.8499   77.1589    0.4439 H       1  UNL1        0.2105
     39 C          23.5382   72.9484    2.9406 C.2     1  UNL1        0.2231
     40 C          22.6084   72.1857    3.8474 C.3     1  UNL1        0.0946
     41 N          23.1411   74.1141    2.3932 N.am    1  UNL1       -0.2994
     42 O          24.6456   72.5135    2.7023 O.2     1  UNL1       -0.2751
     43 H          22.2555   74.4617    2.5826 H       1  UNL1        0.1496
     44 C          25.3358   77.5508   -1.5462 C.3     1  UNL1        0.1693
     45 O          24.5486   78.2955   -2.4780 O.3     1  UNL1       -0.3794
     46 H          25.0683   78.7795   -3.1344 H       1  UNL1        0.2105
@<TRIPOS>BOND
     1    29    30    1
     2    30    41    1
     3    30    31    1
     4    31    34    1
     5    31    32    1
     6    32    35    1
     7    32    33    1
     8    33    36    1
     9    33    44    1
    10    39    40    1
    11    39    42    2
    12    39    41   am
    13    41    43    1
    14    29    28    1
    15    34    37    1
    16    35    38    1
    17    29    36    1
    18    44    45    1
    19    45    46    1
    20    15     6    1
    21    15    16   ar
    22    16    21    2
    23    16    17   ar
    24    17    23    1
    25    17    18   ar
    26    18    19   ar
    27    19    20   ar
    28    15    20   ar
    29    18    22    2
    30     6     7    1
    31     6    11    1
    32     7     9    1
    33     7     8    1
    34     8    13    1
    35     9    10    1
    36     9    12    1
    37    10     5    1
    38    10    11    1
    39    12    14    1
    40     5     4    1
    41     4     1    1
    42     1     2    1
    43     1    24    1
    44     1     3    2
    45    24    25    1
    46    28    25    1
    47    25    26    1
    48    25    27    2
@<TRIPOS>MOLECULE
UD2
 46 48 0 0 0
SMALL
GASTEIGER

@<TRIPOS>ATOM
      1 P          23.4601   71.9892   -3.2933 P.3     1  UNL1        0.2189
      2 O          24.4130   72.9527   -4.1623 O.3     1  UNL1       -0.4371
      3 O          24.1680   70.7220   -3.0071 O.2     1  UNL1       -0.5170
      4 O          23.0815   72.7173   -1.9076 O.3     1  UNL1       -0.3112
      5 C          21.7423   72.8075   -1.4177 C.3     1  UNL1        0.1811
      6 C          23.1294   72.0975    1.8240 C.3     1  UNL1        0.2383
      7 C          22.4936   73.5032    1.9716 C.3     1  UNL1        0.1895
      8 O          22.0289   73.7153    3.3060 O.3     1  UNL1       -0.3779
      9 C          21.3076   73.4296    0.9788 C.3     1  UNL1        0.1713
     10 C          21.6894   72.2855    0.0203 C.3     1  UNL1        0.1764
     11 O          22.9861   71.8106    0.4159 O.3     1  UNL1       -0.3308
     12 O          20.0966   73.1201    1.6704 O.3     1  UNL1       -0.3794
     13 H          21.6234   74.5812    3.4486 H       1  UNL1        0.2106
     14 H          19.8398   73.7790    2.3296 H       1  UNL1        0.2105
     15 N          24.5437   72.1286    2.2032 N.ar    1  UNL1       -0.2551
     16 C          25.2464   70.9828    2.2506 C.ar    1  UNL1        0.3323
     17 N          26.5475   70.9818    2.5961 N.ar    1  UNL1       -0.2743
     18 C          27.1699   72.1389    2.9001 C.ar    1  UNL1        0.2626
     19 C          26.4426   73.3525    2.8534 C.ar    1  UNL1        0.0795
     20 C          25.1404   73.3245    2.4997 C.ar    1  UNL1        0.0869
     21 O          24.6981   69.9322    1.9787 O.2     1  UNL1       -0.2464
     22 O          28.3475   72.1393    3.2126 O.2     1  UNL1       -0.2670
     23 H          27.0390   70.1466    2.6264 H       1  UNL1        0.1734
     24 O          22.1139   71.6776   -4.1203 O.3     1  UNL1       -0.2703
     25 P          21.4699   72.2701   -5.4720 P.3     1  UNL1        0.2208
     26 O          21.2559   73.8583   -5.3125 O.3     1  UNL1       -0.4371
     27 O          22.3794   72.0071   -6.6086 O.2     1  UNL1       -0.5170
     28 O          20.0500   71.5616   -5.7452 O.3     1  UNL1       -0.2865
     29 C          18.9908   72.1933   -6.4664 C.3     1  UNL1        0.2611
     30 C          17.6473   71.8119   -5.8402 C.3     1  UNL1        0.1582
     31 C          17.4509   70.2972   -5.9572 C.3     1  UNL1        0.1625
     32 C          17.5393   69.8942   -7.4317 C.3     1  UNL1        0.1686
     33 C          18.8874   70.3496   -7.9967 C.3     1  UNL1        0.1760
     34 O          16.1663   69.9413   -5.4409 O.3     1  UNL1       -0.3801
     35 O          16.4802   70.5165   -8.1613 O.3     1  UNL1       -0.3794
     36 O          19.0195   71.7625   -7.8288 O.3     1  UNL1       -0.3263
     37 H          15.9746   68.9944   -5.4829 H       1  UNL1        0.2105
     38 H          16.4751   70.3054   -9.1054 H       1  UNL1        0.2105
     39 C          18.0499   71.3261   -3.4865 C.2     1  UNL1        0.2231
     40 C          18.0414   71.7235   -2.0337 C.3     1  UNL1        0.0946
     41 N          17.6385   72.1991   -4.4272 N.am    1  UNL1       -0.2994
     42 O          18.4271   70.2194   -3.8107 O.2     1  UNL1       -0.2751
     43 H          17.3359   73.0837   -4.1684 H       1  UNL1        0.1496
     44 C          18.9593   70.0036   -9.4851 C.3     1  UNL1        0.1693
     45 O          18.5556   71.1358  -10.2582 O.3     1  UNL1       -0.3794
     46 H          18.5767   70.9882  -11.2136 H       1  UNL1        0.2105
@<TRIPOS>BOND
     1    29    30    1
     2    30    41    1
     3    30    31    1
     4    31    34    1
     5    31    32    1
     6    32    35    1
     7    32    33    1
     8    33    36    1
     9    33    44    1
    10    39    40    1
    11    39    42    2
    12    39    41   am
    13    41    43    1
    14    29    28    1
    15    34    37    1
    16    35    38    1
    17    29    36    1
    18    44    45    1
    19    45    46    1
    20    15     6    1
    21    15    16   ar
    22    16    21    2
    23    16    17   ar
    24    17    23    1
    25    17    18   ar
    26    18    19   ar
    27    19    20   ar
    28    15    20   ar
    29    18    22    2
    30     6     7    1
    31     6    11    1
    32     7     9    1
    33     7     8    1
    34     8    13    1
    35     9    10    1
    36     9    12    1
    37    10     5    1
    38    10    11    1
    39    12    14    1
    40     5     4    1
    41     4     1    1
    42     1     2    1
    43     1    24    1
    44     1     3    2
    45    24    25    1
    46    28    25    1
    47    25    26    1
    48    25    27    2
@<TRIPOS>MOLECULE
UD2
 46 48 0 0 0
SMALL
GASTEIGER

@<TRIPOS>ATOM
      1 P          19.9503   71.7606   -1.0925 P.3     1  UNL1        0.2189
      2 O          21.3197   71.5076   -1.9000 O.3     1  UNL1       -0.4371
      3 O          19.4003   73.0852   -1.4556 O.2     1  UNL1       -0.5170
      4 O          18.8843   70.6146   -1.4716 O.3     1  UNL1       -0.3112
      5 C          18.9351   69.8803   -2.6963 C.3     1  UNL1        0.1811
      6 C          17.2135   70.3570   -5.8180 C.3     1  UNL1        0.2383
      7 C          16.8738   68.9027   -5.4038 C.3     1  UNL1        0.1895
      8 O          15.5798   68.5261   -5.8787 O.3     1  UNL1       -0.3779
      9 C          16.8903   68.9925   -3.8581 C.3     1  UNL1        0.1713
     10 C          17.7290   70.2507   -3.5630 C.3     1  UNL1        0.1764
     11 O          18.1756   70.7728   -4.8245 O.3     1  UNL1       -0.3308
     12 O          15.5628   69.1459   -3.3531 O.3     1  UNL1       -0.3794
     13 H          15.3221   67.6240   -5.6452 H       1  UNL1        0.2106
     14 H          14.9741   68.4080   -3.5616 H       1  UNL1        0.2105
     15 N          17.8078   70.3867   -7.1563 N.ar    1  UNL1       -0.2551
     16 C          17.0118   70.4695   -8.2372 C.ar    1  UNL1        0.3323
     17 N          17.5306   70.4984   -9.4791 N.ar    1  UNL1       -0.2743
     18 C          18.8662   70.4461   -9.6581 C.ar    1  UNL1        0.2626
     19 C          19.7159   70.3598   -8.5291 C.ar    1  UNL1        0.0795
     20 C          19.1687   70.3369   -7.2956 C.ar    1  UNL1        0.0869
     21 O          15.8057   70.5176   -8.0908 O.2     1  UNL1       -0.2464
     22 O          19.3370   70.4726  -10.7815 O.2     1  UNL1       -0.2670
     23 H          16.9423   70.5571  -10.2476 H       1  UNL1        0.1734
     24 O          20.2443   71.7167    0.4902 O.3     1  UNL1       -0.2703
     25 P          21.5878   71.7039    1.3777 P.3     1  UNL1        0.2208
     26 O          21.2186   72.0157    2.9140 O.3     1  UNL1       -0.4371
     27 O          22.2278   70.3734    1.2852 O.2     1  UNL1       -0.5170
     28 O          22.6031   72.8275    0.8306 O.3     1  UNL1       -0.2865
     29 C          22.3108   74.2255    0.8685 C.3     1  UNL1        0.2611
     30 C          22.9617   74.9166   -0.3321 C.3     1  UNL1        0.1582
     31 C          24.4823   74.7566   -0.2397 C.3     1  UNL1        0.1625
     32 C          24.9655   75.3331    1.0939 C.3     1  UNL1        0.1686
     33 C          24.2372   74.6257    2.2399 C.3     1  UNL1        0.1760
     34 O          25.1027   75.4616   -1.3175 O.3     1  UNL1       -0.3801
     35 O          24.6829   76.7328    1.1397 O.3     1  UNL1       -0.3794
     36 O          22.8267   74.7869    2.0772 O.3     1  UNL1       -0.3263
     37 H          26.0679   75.4025   -1.3217 H       1  UNL1        0.2105
     38 H          24.9622   77.1646    1.9592 H       1  UNL1        0.2105
     39 C          22.0136   75.0765   -2.5711 C.2     1  UNL1        0.2231
     40 C          21.5175   74.4454   -3.8455 C.3     1  UNL1        0.0946
     41 N          22.4791   74.3019   -1.5714 N.am    1  UNL1       -0.2994
     42 O          21.9944   76.2830   -2.4440 O.2     1  UNL1       -0.2751
     43 H          22.4937   73.3372   -1.6722 H       1  UNL1        0.1496
     44 C          24.6704   75.2371    3.5736 C.3     1  UNL1        0.1693
     45 O          23.8286   76.3494    3.8843 O.3     1  UNL1       -0.3794
     46 H          24.0461   76.7870    4.7187 H       1  UNL1        0.2105
@<TRIPOS>BOND
     1    29    30    1
     2    30    41    1
     3    30    31    1
     4    31    34    1
     5    31    32    1
     6    32    35    1
     7    32    33    1
     8    33    36    1
     9    33    44    1
    10    39    40    1
    11    39    42    2
    12    39    41   am
    13    41    43    1
    14    29    28    1
    15    34    37    1
    16    35    38    1
    17    29    36    1
    18    44    45    1
    19    45    46    1
    20    15     6    1
    21    15    16   ar
    22    16    21    2
    23    16    17   ar
    24    17    23    1
    25    17    18   ar
    26    18    19   ar
    27    19    20   ar
    28    15    20   ar
    29    18    22    2
    30     6     7    1
    31     6    11    1
    32     7     9    1
    33     7     8    1
    34     8    13    1
    35     9    10    1
    36     9    12    1
    37    10     5    1
    38    10    11    1
    39    12    14    1
    40     5     4    1
    41     4     1    1
    42     1     2    1
    43     1    24    1
    44     1     3    2
    45    24    25    1
    46    28    25    1
    47    25    26    1
    48    25    27    2
@<TRIPOS>MOLECULE
UD2
 46 48 0 0 0
SMALL
GASTEIGER

@<TRIPOS>ATOM
      1 P          22.7691   71.0638    0.8251 P.3     1  UNL1        0.2189
      2 O          21.4818   70.1003    0.9022 O.3     1  UNL1       -0.4371
      3 O          23.7691   70.6332    1.8269 O.2     1  UNL1       -0.5170
      4 O          23.4146   70.9799   -0.6479 O.3     1  UNL1       -0.3112
      5 C          23.3281   72.0452   -1.5962 C.3     1  UNL1        0.1811
      6 C          20.9879   70.7783   -4.0159 C.3     1  UNL1        0.2383
      7 C          21.0684   72.2979   -4.3101 C.3     1  UNL1        0.1895
      8 O          20.8521   72.5609   -5.6978 O.3     1  UNL1       -0.3779
      9 C          22.5253   72.6308   -3.9053 C.3     1  UNL1        0.1713
     10 C          22.9259   71.4812   -2.9611 C.3     1  UNL1        0.1764
     11 O          21.7806   70.6260   -2.8184 O.3     1  UNL1       -0.3308
     12 O          23.3709   72.6507   -5.0566 O.3     1  UNL1       -0.3794
     13 H          20.8922   73.4981   -5.9317 H       1  UNL1        0.2106
     14 H          23.1275   73.3175   -5.7128 H       1  UNL1        0.2105
     15 N          19.6018   70.3727   -3.7726 N.ar    1  UNL1       -0.2551
     16 C          18.7858   70.1303   -4.8139 C.ar    1  UNL1        0.3323
     17 N          17.5073   69.7563   -4.6198 N.ar    1  UNL1       -0.2743
     18 C          17.0234   69.6166   -3.3688 C.ar    1  UNL1        0.2626
     19 C          17.8716   69.8676   -2.2635 C.ar    1  UNL1        0.0795
     20 C          19.1502   70.2370   -2.4874 C.ar    1  UNL1        0.0869
     21 O          19.2086   70.2521   -5.9474 O.2     1  UNL1       -0.2464
     22 O          15.8666   69.2778   -3.1918 O.2     1  UNL1       -0.2670
     23 H          16.9322   69.5867   -5.3818 H       1  UNL1        0.1734
     24 O          22.3232   72.5810    1.1293 O.3     1  UNL1       -0.2703
     25 P          21.3555   73.2645    2.2199 P.3     1  UNL1        0.2208
     26 O          20.4654   74.4027    1.5085 O.3     1  UNL1       -0.4371
     27 O          20.4660   72.2366    2.8036 O.2     1  UNL1       -0.5170
     28 O          22.2456   73.9292    3.3854 O.3     1  UNL1       -0.2865
     29 C          23.1636   73.1821    4.1858 C.3     1  UNL1        0.2611
     30 C          23.0828   73.6605    5.6375 C.3     1  UNL1        0.1582
     31 C          23.4989   75.1331    5.7046 C.3     1  UNL1        0.1625
     32 C          24.9070   75.2818    5.1220 C.3     1  UNL1        0.1686
     33 C          24.9174   74.7408    3.6898 C.3     1  UNL1        0.1760
     34 O          23.4971   75.5679    7.0663 O.3     1  UNL1       -0.3801
     35 O          25.8341   74.5426    5.9190 O.3     1  UNL1       -0.3794
     36 O          24.4913   73.3769    3.6944 O.3     1  UNL1       -0.3263
     37 H          23.7508   76.4937    7.1835 H       1  UNL1        0.2105
     38 H          26.7485   74.5913    5.6068 H       1  UNL1        0.2105
     39 C          20.8463   74.5481    6.0219 C.2     1  UNL1        0.2231
     40 C          19.4330   74.4016    6.5217 C.3     1  UNL1        0.0946
     41 N          21.7083   73.5173    6.1241 N.am    1  UNL1       -0.2994
     42 O          21.2094   75.5946    5.5269 O.2     1  UNL1       -0.2751
     43 H          21.4187   72.6807    6.5206 H       1  UNL1        0.1496
     44 C          26.3348   74.8308    3.1212 C.3     1  UNL1        0.1693
     45 O          27.0038   75.9612    3.6842 O.3     1  UNL1       -0.3794
     46 H          27.9098   76.0805    3.3679 H       1  UNL1        0.2105
@<TRIPOS>BOND
     1    29    30    1
     2    30    41    1
     3    30    31    1
     4    31    34    1
     5    31    32    1
     6    32    35    1
     7    32    33    1
     8    33    36    1
     9    33    44    1
    10    39    40    1
    11    39    42    2
    12    39    41   am
    13    41    43    1
    14    29    28    1
    15    34    37    1
    16    35    38    1
    17    29    36    1
    18    44    45    1
    19    45    46    1
    20    15     6    1
    21    15    16   ar
    22    16    21    2
    23    16    17   ar
    24    17    23    1
    25    17    18   ar
    26    18    19   ar
    27    19    20   ar
    28    15    20   ar
    29    18    22    2
    30     6     7    1
    31     6    11    1
    32     7     9    1
    33     7     8    1
    34     8    13    1
    35     9    10    1
    36     9    12    1
    37    10     5    1
    38    10    11    1
    39    12    14    1
    40     5     4    1
    41     4     1    1
    42     1     2    1
    43     1    24    1
    44     1     3    2
    45    24    25    1
    46    28    25    1
    47    25    26    1
    48    25    27    2
@<TRIPOS>MOLECULE
UD2
 46 48 0 0 0
SMALL
GASTEIGER

@<TRIPOS>ATOM
      1 P          22.6111   72.9581   -4.3029 P.3     1  UNL1        0.2189
      2 O          23.1098   73.7887   -5.5885 O.3     1  UNL1       -0.4371
      3 O          23.4881   71.7834   -4.1031 O.2     1  UNL1       -0.5170
      4 O          22.6713   73.9009   -2.9986 O.3     1  UNL1       -0.3112
      5 C          21.8670   73.6761   -1.8393 C.3     1  UNL1        0.1811
      6 C          23.7214   71.8626    0.6525 C.3     1  UNL1        0.2383
      7 C          22.3243   72.0795    1.2875 C.3     1  UNL1        0.1895
      8 O          21.9927   71.0054    2.1697 O.3     1  UNL1       -0.3779
      9 C          21.3992   72.0804    0.0460 C.3     1  UNL1        0.1713
     10 C          22.3432   72.4078   -1.1267 C.3     1  UNL1        0.1764
     11 O          23.6527   72.6193   -0.5756 O.3     1  UNL1       -0.3308
     12 O          20.8047   70.7939   -0.1341 O.3     1  UNL1       -0.3794
     13 H          21.1278   71.0959    2.5921 H       1  UNL1        0.2106
     14 H          20.2463   70.5112    0.6026 H       1  UNL1        0.2105
     15 N          24.7724   72.3897    1.5257 N.ar    1  UNL1       -0.2551
     16 C          25.6107   71.5409    2.1468 C.ar    1  UNL1        0.3323
     17 N          26.5856   71.9975    2.9551 N.ar    1  UNL1       -0.2743
     18 C          26.7377   73.3227    3.1534 C.ar    1  UNL1        0.2626
     19 C          25.8631   74.2275    2.5051 C.ar    1  UNL1        0.0795
     20 C          24.8972   73.7421    1.6970 C.ar    1  UNL1        0.0869
     21 O          25.4853   70.3435    1.9770 O.2     1  UNL1       -0.2464
     22 O          27.6200   73.7372    3.8844 O.2     1  UNL1       -0.2670
     23 H          27.1806   71.3717    3.3961 H       1  UNL1        0.1734
     24 O          21.0965   72.4638   -4.5374 O.3     1  UNL1       -0.2703
     25 P          20.2514   71.1816   -4.0530 P.3     1  UNL1        0.2208
     26 O          21.2617   69.9886   -3.6658 O.3     1  UNL1       -0.4371
     27 O          19.4399   71.5434   -2.8702 O.2     1  UNL1       -0.5170
     28 O          19.2804   70.6981   -5.2431 O.3     1  UNL1       -0.2865
     29 C          18.3113   71.5527   -5.8528 C.3     1  UNL1        0.2611
     30 C          16.9195   70.9327   -5.7075 C.3     1  UNL1        0.1582
     31 C          16.8877   69.5915   -6.4468 C.3     1  UNL1        0.1625
     32 C          17.2717   69.8189   -7.9114 C.3     1  UNL1        0.1686
     33 C          18.6504   70.4819   -7.9718 C.3     1  UNL1        0.1760
     34 O          15.5706   69.0401   -6.3784 O.3     1  UNL1       -0.3801
     35 O          16.3051   70.6682   -8.5323 O.3     1  UNL1       -0.3794
     36 O          18.6197   71.7086   -7.2395 O.3     1  UNL1       -0.3263
     37 H          15.4777   68.1881   -6.8263 H       1  UNL1        0.2105
     38 H          16.4862   70.8559   -9.4640 H       1  UNL1        0.2105
     39 C          16.8775   69.5199   -3.7226 C.2     1  UNL1        0.2231
     40 C          16.5761   69.2971   -2.2638 C.3     1  UNL1        0.0946
     41 N          16.6258   70.7168   -4.2884 N.am    1  UNL1       -0.2994
     42 O          17.3471   68.6214   -4.3892 O.2     1  UNL1       -0.2751
     43 H          16.2495   71.4351   -3.7561 H       1  UNL1        0.1496
     44 C          19.0155   70.7669   -9.4298 C.3     1  UNL1        0.1693
     45 O          18.1276   70.0528  -10.2924 O.3     1  UNL1       -0.3794
     46 H          18.3008   70.1867  -11.2342 H       1  UNL1        0.2105
@<TRIPOS>BOND
     1    29    30    1
     2    30    41    1
     3    30    31    1
     4    31    34    1
     5    31    32    1
     6    32    35    1
     7    32    33    1
     8    33    36    1
     9    33    44    1
    10    39    40    1
    11    39    42    2
    12    39    41   am
    13    41    43    1
    14    29    28    1
    15    34    37    1
    16    35    38    1
    17    29    36    1
    18    44    45    1
    19    45    46    1
    20    15     6    1
    21    15    16   ar
    22    16    21    2
    23    16    17   ar
    24    17    23    1
    25    17    18   ar
    26    18    19   ar
    27    19    20   ar
    28    15    20   ar
    29    18    22    2
    30     6     7    1
    31     6    11    1
    32     7     9    1
    33     7     8    1
    34     8    13    1
    35     9    10    1
    36     9    12    1
    37    10     5    1
    38    10    11    1
    39    12    14    1
    40     5     4    1
    41     4     1    1
    42     1     2    1
    43     1    24    1
    44     1     3    2
    45    24    25    1
    46    28    25    1
    47    25    26    1
    48    25    27    2
@<TRIPOS>MOLECULE
UD2
 46 48 0 0 0
SMALL
GASTEIGER

@<TRIPOS>ATOM
      1 P          19.5213   73.5072   -2.7812 P.3     1  UNL1        0.2189
      2 O          20.0038   74.7895   -3.6264 O.3     1  UNL1       -0.4371
      3 O          19.1816   73.9235   -1.4027 O.2     1  UNL1       -0.5170
      4 O          18.2234   72.8604   -3.4818 O.3     1  UNL1       -0.3112
      5 C          17.2550   72.0923   -2.7651 C.3     1  UNL1        0.1811
      6 C          16.5814   70.4500   -5.8933 C.3     1  UNL1        0.2383
      7 C          17.0774   69.3182   -4.9579 C.3     1  UNL1        0.1895
      8 O          16.4714   68.0705   -5.3011 O.3     1  UNL1       -0.3779
      9 C          16.5909   69.8057   -3.5711 C.3     1  UNL1        0.1713
     10 C          16.3810   71.3206   -3.7569 C.3     1  UNL1        0.1764
     11 O          16.7663   71.6441   -5.1024 O.3     1  UNL1       -0.3308
     12 O          15.3607   69.1689   -3.2219 O.3     1  UNL1       -0.3794
     13 H          16.7506   67.3310   -4.7444 H       1  UNL1        0.2106
     14 H          15.4215   68.2069   -3.1496 H       1  UNL1        0.2105
     15 N          17.3937   70.5062   -7.1107 N.ar    1  UNL1       -0.2551
     16 C          16.7925   70.6226   -8.3081 C.ar    1  UNL1        0.3323
     17 N          17.5141   70.6763   -9.4433 N.ar    1  UNL1       -0.2743
     18 C          18.8604   70.6156   -9.3953 C.ar    1  UNL1        0.2626
     19 C          19.5064   70.4940   -8.1415 C.ar    1  UNL1        0.0795
     20 C          18.7583   70.4466   -7.0192 C.ar    1  UNL1        0.0869
     21 O          15.5793   70.6787   -8.3665 O.2     1  UNL1       -0.2464
     22 O          19.5147   70.6645  -10.4219 O.2     1  UNL1       -0.2670
     23 H          17.0647   70.7591  -10.2985 H       1  UNL1        0.1734
     24 O          20.7055   72.4169   -2.7365 O.3     1  UNL1       -0.2703
     25 P          22.2365   72.4492   -2.2386 P.3     1  UNL1        0.2208
     26 O          22.2772   72.4326   -0.6287 O.3     1  UNL1       -0.4371
     27 O          22.9508   71.2640   -2.7617 O.2     1  UNL1       -0.5170
     28 O          22.9488   73.7879   -2.7801 O.3     1  UNL1       -0.2865
     29 C          24.0369   73.7708   -3.7059 C.3     1  UNL1        0.2611
     30 C          24.4440   75.2073   -4.0428 C.3     1  UNL1        0.1582
     31 C          23.2677   75.9166   -4.7207 C.3     1  UNL1        0.1625
     32 C          22.8550   75.1236   -5.9637 C.3     1  UNL1        0.1686
     33 C          22.5089   73.6900   -5.5526 C.3     1  UNL1        0.1760
     34 O          23.6630   77.2354   -5.1050 O.3     1  UNL1       -0.3801
     35 O          23.9350   75.1053   -6.8990 O.3     1  UNL1       -0.3794
     36 O          23.6345   73.0982   -4.9009 O.3     1  UNL1       -0.3263
     37 H          22.9650   77.7435   -5.5406 H       1  UNL1        0.2105
     38 H          23.7434   74.6181   -7.7125 H       1  UNL1        0.2105
     39 C          25.8260   76.7900   -2.8088 C.2     1  UNL1        0.2231
     40 C          26.1922   77.5199   -1.5431 C.3     1  UNL1        0.0946
     41 N          24.7997   75.9167   -2.8112 N.am    1  UNL1       -0.2994
     42 O          26.4553   76.9880   -3.8271 O.2     1  UNL1       -0.2751
     43 H          24.2969   75.7573   -1.9970 H       1  UNL1        0.1496
     44 C          22.1530   72.8746   -6.7972 C.3     1  UNL1        0.1693
     45 O          21.4107   73.6905   -7.7059 O.3     1  UNL1       -0.3794
     46 H          21.1506   73.2375   -8.5196 H       1  UNL1        0.2105
@<TRIPOS>BOND
     1    29    30    1
     2    30    41    1
     3    30    31    1
     4    31    34    1
     5    31    32    1
     6    32    35    1
     7    32    33    1
     8    33    36    1
     9    33    44    1
    10    39    40    1
    11    39    42    2
    12    39    41   am
    13    41    43    1
    14    29    28    1
    15    34    37    1
    16    35    38    1
    17    29    36    1
    18    44    45    1
    19    45    46    1
    20    15     6    1
    21    15    16   ar
    22    16    21    2
    23    16    17   ar
    24    17    23    1
    25    17    18   ar
    26    18    19   ar
    27    19    20   ar
    28    15    20   ar
    29    18    22    2
    30     6     7    1
    31     6    11    1
    32     7     9    1
    33     7     8    1
    34     8    13    1
    35     9    10    1
    36     9    12    1
    37    10     5    1
    38    10    11    1
    39    12    14    1
    40     5     4    1
    41     4     1    1
    42     1     2    1
    43     1    24    1
    44     1     3    2
    45    24    25    1
    46    28    25    1
    47    25    26    1
    48    25    27    2
@<TRIPOS>MOLECULE
UD2
 46 48 0 0 0
SMALL
GASTEIGER

@<TRIPOS>ATOM
      1 P          22.9626   71.9178   -3.4569 P.3     1  UNL1        0.2189
      2 O          24.0298   72.6150   -4.4400 O.3     1  UNL1       -0.4371
      3 O          23.5111   70.6360   -2.9619 O.2     1  UNL1       -0.5170
      4 O          22.6660   72.8922   -2.2094 O.3     1  UNL1       -0.3112
      5 C          22.2994   72.4089   -0.9158 C.3     1  UNL1        0.1811
      6 C          23.9611   72.6421    2.2655 C.3     1  UNL1        0.2383
      7 C          23.7509   71.1223    2.0461 C.3     1  UNL1        0.1895
      8 O          24.7944   70.3683    2.6663 O.3     1  UNL1       -0.3779
      9 C          23.8247   71.0030    0.5042 C.3     1  UNL1        0.1713
     10 C          23.5247   72.4280    0.0015 C.3     1  UNL1        0.1764
     11 O          23.2588   73.2416    1.1551 O.3     1  UNL1       -0.3308
     12 O          25.1315   70.5934    0.0974 O.3     1  UNL1       -0.3794
     13 H          24.7069   69.4117    2.5573 H       1  UNL1        0.2106
     14 H          25.3960   69.7272    0.4354 H       1  UNL1        0.2105
     15 N          23.3726   73.0658    3.5380 N.ar    1  UNL1       -0.2551
     16 C          22.1023   72.7329    3.8283 C.ar    1  UNL1        0.3323
     17 N          21.5357   73.1090    4.9901 N.ar    1  UNL1       -0.2743
     18 C          22.2401   73.8289    5.8870 C.ar    1  UNL1        0.2626
     19 C          23.5786   74.1853    5.5948 C.ar    1  UNL1        0.0795
     20 C          24.1225   73.7912    4.4242 C.ar    1  UNL1        0.0869
     21 O          21.4553   72.0840    3.0291 O.2     1  UNL1       -0.2464
     22 O          21.7286   74.1695    6.9391 O.2     1  UNL1       -0.2670
     23 H          20.6183   72.8616    5.1831 H       1  UNL1        0.1734
     24 O          21.5937   71.6422   -4.2591 O.3     1  UNL1       -0.2703
     25 P          20.0655   71.4016   -3.8126 P.3     1  UNL1        0.2208
     26 O          20.0150   70.2846   -2.6535 O.3     1  UNL1       -0.4371
     27 O          19.4953   72.6675   -3.3019 O.2     1  UNL1       -0.5170
     28 O          19.2088   70.8994   -5.0801 O.3     1  UNL1       -0.2865
     29 C          18.1973   71.6951   -5.7006 C.3     1  UNL1        0.2611
     30 C          16.8438   70.9918   -5.5730 C.3     1  UNL1        0.1582
     31 C          16.9021   69.6526   -6.3143 C.3     1  UNL1        0.1625
     32 C          17.2894   69.9057   -7.7739 C.3     1  UNL1        0.1686
     33 C          18.6261   70.6510   -7.8166 C.3     1  UNL1        0.1760
     34 O          15.6201   69.0225   -6.2628 O.3     1  UNL1       -0.3801
     35 O          16.2808   70.6963   -8.4055 O.3     1  UNL1       -0.3794
     36 O          18.5125   71.8721   -7.0832 O.3     1  UNL1       -0.3263
     37 H          15.5842   68.1673   -6.7128 H       1  UNL1        0.2105
     38 H          16.4614   70.8965   -9.3346 H       1  UNL1        0.2105
     39 C          16.8550   69.5718   -3.5928 C.2     1  UNL1        0.2231
     40 C          16.5500   69.3283   -2.1381 C.3     1  UNL1        0.0946
     41 N          16.5466   70.7557   -4.1579 N.am    1  UNL1       -0.2994
     42 O          17.3787   68.7017   -4.2569 O.2     1  UNL1       -0.2751
     43 H          16.1270   71.4512   -3.6277 H       1  UNL1        0.1496
     44 C          18.9910   70.9604   -9.2697 C.3     1  UNL1        0.1693
     45 O          18.2539   70.0996  -10.1404 O.3     1  UNL1       -0.3794
     46 H          18.4356   70.2402  -11.0797 H       1  UNL1        0.2105
@<TRIPOS>BOND
     1    29    30    1
     2    30    41    1
     3    30    31    1
     4    31    34    1
     5    31    32    1
     6    32    35    1
     7    32    33    1
     8    33    36    1
     9    33    44    1
    10    39    40    1
    11    39    42    2
    12    39    41   am
    13    41    43    1
    14    29    28    1
    15    34    37    1
    16    35    38    1
    17    29    36    1
    18    44    45    1
    19    45    46    1
    20    15     6    1
    21    15    16   ar
    22    16    21    2
    23    16    17   ar
    24    17    23    1
    25    17    18   ar
    26    18    19   ar
    27    19    20   ar
    28    15    20   ar
    29    18    22    2
    30     6     7    1
    31     6    11    1
    32     7     9    1
    33     7     8    1
    34     8    13    1
    35     9    10    1
    36     9    12    1
    37    10     5    1
    38    10    11    1
    39    12    14    1
    40     5     4    1
    41     4     1    1
    42     1     2    1
    43     1    24    1
    44     1     3    2
    45    24    25    1
    46    28    25    1
    47    25    26    1
    48    25    27    2
@<TRIPOS>MOLECULE
UD2
 46 48 0 0 0
SMALL
GASTEIGER

@<TRIPOS>ATOM
      1 P          18.2279   73.8395   -1.5942 P.3     1  UNL1        0.2189
      2 O          17.6383   75.1640   -2.2937 O.3     1  UNL1       -0.4371
      3 O          17.2852   73.3678   -0.5560 O.2     1  UNL1       -0.5170
      4 O          18.4242   72.6888   -2.7037 O.3     1  UNL1       -0.3112
      5 C          17.9485   71.3527   -2.5303 C.3     1  UNL1        0.1811
      6 C          16.6916   70.5616   -5.8061 C.3     1  UNL1        0.2383
      7 C          16.8362   69.1885   -5.1021 C.3     1  UNL1        0.1895
      8 O          15.8576   68.2641   -5.5812 O.3     1  UNL1       -0.3779
      9 C          16.5728   69.5532   -3.6205 C.3     1  UNL1        0.1713
     10 C          16.8445   71.0681   -3.5517 C.3     1  UNL1        0.1764
     11 O          17.2684   71.4866   -4.8589 O.3     1  UNL1       -0.3308
     12 O          15.2167   69.2715   -3.2709 O.3     1  UNL1       -0.3794
     13 H          15.9077   67.3901   -5.1711 H       1  UNL1        0.2106
     14 H          14.9739   68.3394   -3.3534 H       1  UNL1        0.2105
     15 N          17.4405   70.5774   -7.0647 N.ar    1  UNL1       -0.2551
     16 C          16.7776   70.6180   -8.2341 C.ar    1  UNL1        0.3323
     17 N          17.4402   70.6331   -9.4059 N.ar    1  UNL1       -0.2743
     18 C          18.7884   70.6096   -9.4236 C.ar    1  UNL1        0.2626
     19 C          19.4990   70.5679   -8.2000 C.ar    1  UNL1        0.0795
     20 C          18.8091   70.5578   -7.0400 C.ar    1  UNL1        0.0869
     21 O          15.5619   70.6398   -8.2333 O.2     1  UNL1       -0.2464
     22 O          19.3893   70.6236  -10.4835 O.2     1  UNL1       -0.2670
     23 H          16.9467   70.6612  -10.2401 H       1  UNL1        0.1734
     24 O          19.6487   74.1777   -0.9157 O.3     1  UNL1       -0.2703
     25 P          20.6695   73.3484    0.0133 P.3     1  UNL1        0.2208
     26 O          20.2932   73.5793    1.5622 O.3     1  UNL1       -0.4371
     27 O          20.5704   71.9079   -0.3082 O.2     1  UNL1       -0.5170
     28 O          22.1735   73.8566   -0.2555 O.3     1  UNL1       -0.2865
     29 C          23.2865   72.9682   -0.3709 C.3     1  UNL1        0.2611
     30 C          22.7902   71.5206   -0.3421 C.3     1  UNL1        0.1582
     31 C          22.1153   71.2480    1.0057 C.3     1  UNL1        0.1625
     32 C          23.1102   71.5431    2.1316 C.3     1  UNL1        0.1686
     33 C          23.5942   72.9903    2.0074 C.3     1  UNL1        0.1760
     34 O          21.7140   69.8776    1.0700 O.3     1  UNL1       -0.3801
     35 O          24.2250   70.6556    2.0286 O.3     1  UNL1       -0.3794
     36 O          24.1835   73.1849    0.7203 O.3     1  UNL1       -0.3263
     37 H          21.2778   69.6344    1.8981 H       1  UNL1        0.2105
     38 H          24.8974   70.7867    2.7118 H       1  UNL1        0.2105
     39 C          22.2555   70.9883   -2.6591 C.2     1  UNL1        0.2231
     40 C          21.2634   70.7742   -3.7720 C.3     1  UNL1        0.0946
     41 N          21.8245   71.3127   -1.4241 N.am    1  UNL1       -0.2994
     42 O          23.4437   70.8688   -2.8741 O.2     1  UNL1       -0.2751
     43 H          20.8748   71.4094   -1.2521 H       1  UNL1        0.1496
     44 C          24.6337   73.2750    3.0931 C.3     1  UNL1        0.1693
     45 O          25.7480   73.9610    2.5184 O.3     1  UNL1       -0.3794
     46 H          26.4479   74.1743    3.1506 H       1  UNL1        0.2105
@<TRIPOS>BOND
     1    29    30    1
     2    30    41    1
     3    30    31    1
     4    31    34    1
     5    31    32    1
     6    32    35    1
     7    32    33    1
     8    33    36    1
     9    33    44    1
    10    39    40    1
    11    39    42    2
    12    39    41   am
    13    41    43    1
    14    29    28    1
    15    34    37    1
    16    35    38    1
    17    29    36    1
    18    44    45    1
    19    45    46    1
    20    15     6    1
    21    15    16   ar
    22    16    21    2
    23    16    17   ar
    24    17    23    1
    25    17    18   ar
    26    18    19   ar
    27    19    20   ar
    28    15    20   ar
    29    18    22    2
    30     6     7    1
    31     6    11    1
    32     7     9    1
    33     7     8    1
    34     8    13    1
    35     9    10    1
    36     9    12    1
    37    10     5    1
    38    10    11    1
    39    12    14    1
    40     5     4    1
    41     4     1    1
    42     1     2    1
    43     1    24    1
    44     1     3    2
    45    24    25    1
    46    28    25    1
    47    25    26    1
    48    25    27    2
@<TRIPOS>MOLECULE
UD2
 46 48 0 0 0
SMALL
GASTEIGER

@<TRIPOS>ATOM
      1 P          16.5771   70.3628   -3.1093 P.3     1  UNL1        0.2189
      2 O          15.9581   69.0674   -3.8375 O.3     1  UNL1       -0.4371
      3 O          16.2003   71.5796   -3.8619 O.2     1  UNL1       -0.5170
      4 O          16.0020   70.4605   -1.6082 O.3     1  UNL1       -0.3112
      5 C          14.8021   71.1633   -1.2798 C.3     1  UNL1        0.1811
      6 C          12.5208   68.5835   -0.2423 C.3     1  UNL1        0.2383
      7 C          11.8376   69.9053    0.1913 C.3     1  UNL1        0.1895
      8 O          10.4146   69.7801    0.1542 O.3     1  UNL1       -0.3779
      9 C          12.3331   70.8973   -0.8894 C.3     1  UNL1        0.1713
     10 C          13.6007   70.2318   -1.4584 C.3     1  UNL1        0.1764
     11 O          13.8119   69.0155   -0.7240 O.3     1  UNL1       -0.3308
     12 O          11.3479   71.0541   -1.9119 O.3     1  UNL1       -0.3794
     13 H           9.9420   70.5812    0.4178 H       1  UNL1        0.2106
     14 H          10.5078   71.4146   -1.5978 H       1  UNL1        0.2105
     15 N          12.6719   67.6816    0.9017 N.ar    1  UNL1       -0.2551
     16 C          11.7166   66.7719    1.1640 C.ar    1  UNL1        0.3323
     17 N          11.8292   65.9305    2.2087 N.ar    1  UNL1       -0.2743
     18 C          12.9108   65.9871    3.0123 C.ar    1  UNL1        0.2626
     19 C          13.9245   66.9390    2.7473 C.ar    1  UNL1        0.0795
     20 C          13.7875   67.7673    1.6905 C.ar    1  UNL1        0.0869
     21 O          10.7360   66.7095    0.4478 O.2     1  UNL1       -0.2464
     22 O          13.0141   65.2258    3.9579 O.2     1  UNL1       -0.2670
     23 H          11.1306   65.2815    2.3843 H       1  UNL1        0.1734
     24 O          18.1818   70.2364   -3.0614 O.3     1  UNL1       -0.2703
     25 P          19.3897   71.2978   -3.1462 P.3     1  UNL1        0.2208
     26 O          18.9835   72.6372   -2.3496 O.3     1  UNL1       -0.4371
     27 O          20.6047   70.7124   -2.5384 O.2     1  UNL1       -0.5170
     28 O          19.6806   71.6575   -4.6885 O.3     1  UNL1       -0.2865
     29 C          19.9002   72.9922   -5.1485 C.3     1  UNL1        0.2611
     30 C          20.1772   72.9750   -6.6538 C.3     1  UNL1        0.1582
     31 C          21.4562   72.1751   -6.9197 C.3     1  UNL1        0.1625
     32 C          22.6082   72.7956   -6.1246 C.3     1  UNL1        0.1686
     33 C          22.2374   72.8196   -4.6393 C.3     1  UNL1        0.1760
     34 O          21.7628   72.2156   -8.3153 O.3     1  UNL1       -0.3801
     35 O          22.8398   74.1294   -6.5811 O.3     1  UNL1       -0.3794
     36 O          21.0231   73.5525   -4.4650 O.3     1  UNL1       -0.3263
     37 H          22.5622   71.7277   -8.5562 H       1  UNL1        0.2105
     38 H          23.5578   74.5848   -6.1195 H       1  UNL1        0.2105
     39 C          19.0858   71.0290   -7.6333 C.2     1  UNL1        0.2231
     40 C          17.9299   70.3818   -8.3500 C.3     1  UNL1        0.0946
     41 N          19.0525   72.3463   -7.3511 N.am    1  UNL1       -0.2994
     42 O          20.0479   70.3643   -7.3096 O.2     1  UNL1       -0.2751
     43 H          18.2839   72.8783   -7.6106 H       1  UNL1        0.1496
     44 C          23.3583   73.4925   -3.8449 C.3     1  UNL1        0.1693
     45 O          24.6155   72.9262   -4.2204 O.3     1  UNL1       -0.3794
     46 H          25.3733   73.3061   -3.7552 H       1  UNL1        0.2105
@<TRIPOS>BOND
     1    29    30    1
     2    30    41    1
     3    30    31    1
     4    31    34    1
     5    31    32    1
     6    32    35    1
     7    32    33    1
     8    33    36    1
     9    33    44    1
    10    39    40    1
    11    39    42    2
    12    39    41   am
    13    41    43    1
    14    29    28    1
    15    34    37    1
    16    35    38    1
    17    29    36    1
    18    44    45    1
    19    45    46    1
    20    15     6    1
    21    15    16   ar
    22    16    21    2
    23    16    17   ar
    24    17    23    1
    25    17    18   ar
    26    18    19   ar
    27    19    20   ar
    28    15    20   ar
    29    18    22    2
    30     6     7    1
    31     6    11    1
    32     7     9    1
    33     7     8    1
    34     8    13    1
    35     9    10    1
    36     9    12    1
    37    10     5    1
    38    10    11    1
    39    12    14    1
    40     5     4    1
    41     4     1    1
    42     1     2    1
    43     1    24    1
    44     1     3    2
    45    24    25    1
    46    28    25    1
    47    25    26    1
    48    25    27    2
@<TRIPOS>MOLECULE
UD2
 46 48 0 0 0
SMALL
GASTEIGER

@<TRIPOS>ATOM
      1 P          20.7639   70.6637   -3.5757 P.3     1  UNL1        0.2189
      2 O          21.7390   70.5782   -2.2977 O.3     1  UNL1       -0.4371
      3 O          20.2941   69.3063   -3.9302 O.2     1  UNL1       -0.5170
      4 O          19.4980   71.5948   -3.2233 O.3     1  UNL1       -0.3112
      5 C          18.3484   71.1120   -2.5256 C.3     1  UNL1        0.1811
      6 C          16.8771   70.6004   -5.7675 C.3     1  UNL1        0.2383
      7 C          16.9262   69.1866   -5.1344 C.3     1  UNL1        0.1895
      8 O          15.8459   68.3788   -5.6057 O.3     1  UNL1       -0.3779
      9 C          16.7649   69.4997   -3.6266 C.3     1  UNL1        0.1713
     10 C          17.1778   70.9787   -3.5028 C.3     1  UNL1        0.1764
     11 O          17.5788   71.4217   -4.8091 O.3     1  UNL1       -0.3308
     12 O          15.4058   69.3239   -3.2233 O.3     1  UNL1       -0.3794
     13 H          15.8338   67.4846   -5.2385 H       1  UNL1        0.2106
     14 H          15.0747   68.4227   -3.3357 H       1  UNL1        0.2105
     15 N          17.5665   70.6112   -7.0596 N.ar    1  UNL1       -0.2551
     16 C          16.8538   70.5150   -8.1961 C.ar    1  UNL1        0.3323
     17 N          17.4612   70.5221   -9.3975 N.ar    1  UNL1       -0.2743
     18 C          18.8030   70.6285   -9.4790 C.ar    1  UNL1        0.2626
     19 C          19.5656   70.7316   -8.2907 C.ar    1  UNL1        0.0795
     20 C          18.9301   70.7261   -7.1001 C.ar    1  UNL1        0.0869
     21 O          15.6431   70.4186   -8.1377 O.2     1  UNL1       -0.2464
     22 O          19.3539   70.6355  -10.5657 O.2     1  UNL1       -0.2670
     23 H          16.9323   70.4506  -10.2070 H       1  UNL1        0.1734
     24 O          21.5649   71.2971   -4.8208 O.3     1  UNL1       -0.2703
     25 P          21.9657   72.7978   -5.2454 P.3     1  UNL1        0.2208
     26 O          23.1750   72.7495   -6.3080 O.3     1  UNL1       -0.4371
     27 O          20.7972   73.4660   -5.8588 O.2     1  UNL1       -0.5170
     28 O          22.4300   73.6187   -3.9403 O.3     1  UNL1       -0.2865
     29 C          23.7698   73.5994   -3.4443 C.3     1  UNL1        0.2611
     30 C          23.7761   74.0188   -1.9723 C.3     1  UNL1        0.1582
     31 C          23.2583   75.4559   -1.8577 C.3     1  UNL1        0.1625
     32 C          24.1267   76.3708   -2.7256 C.3     1  UNL1        0.1686
     33 C          24.1068   75.8605   -4.1690 C.3     1  UNL1        0.1760
     34 O          23.3298   75.8816   -0.4950 O.3     1  UNL1       -0.3801
     35 O          25.4682   76.3631   -2.2342 O.3     1  UNL1       -0.3794
     36 O          24.5706   74.5093   -4.2013 O.3     1  UNL1       -0.3263
     37 H          23.0162   76.7846   -0.3485 H       1  UNL1        0.2105
     38 H          26.0758   76.9222   -2.7384 H       1  UNL1        0.2105
     39 C          23.2741   72.7227    0.0291 C.2     1  UNL1        0.2231
     40 C          22.3818   71.8017    0.8192 C.3     1  UNL1        0.0946
     41 N          22.9077   73.1228   -1.2045 N.am    1  UNL1       -0.2994
     42 O          24.3236   73.1048    0.5031 O.2     1  UNL1       -0.2751
     43 H          22.0691   72.8167   -1.5842 H       1  UNL1        0.1496
     44 C          25.0199   76.7343   -5.0312 C.3     1  UNL1        0.1693
     45 O          26.0310   75.9215   -5.6306 O.3     1  UNL1       -0.3794
     46 H          26.6476   76.4104   -6.1926 H       1  UNL1        0.2105
@<TRIPOS>BOND
     1    29    30    1
     2    30    41    1
     3    30    31    1
     4    31    34    1
     5    31    32    1
     6    32    35    1
     7    32    33    1
     8    33    36    1
     9    33    44    1
    10    39    40    1
    11    39    42    2
    12    39    41   am
    13    41    43    1
    14    29    28    1
    15    34    37    1
    16    35    38    1
    17    29    36    1
    18    44    45    1
    19    45    46    1
    20    15     6    1
    21    15    16   ar
    22    16    21    2
    23    16    17   ar
    24    17    23    1
    25    17    18   ar
    26    18    19   ar
    27    19    20   ar
    28    15    20   ar
    29    18    22    2
    30     6     7    1
    31     6    11    1
    32     7     9    1
    33     7     8    1
    34     8    13    1
    35     9    10    1
    36     9    12    1
    37    10     5    1
    38    10    11    1
    39    12    14    1
    40     5     4    1
    41     4     1    1
    42     1     2    1
    43     1    24    1
    44     1     3    2
    45    24    25    1
    46    28    25    1
    47    25    26    1
    48    25    27    2
@<TRIPOS>MOLECULE
UD2
 46 48 0 0 0
SMALL
GASTEIGER

@<TRIPOS>ATOM
      1 P          23.4121   71.8921   -3.1678 P.3     1  UNL1        0.2189
      2 O          24.3381   72.9884   -3.8971 O.3     1  UNL1       -0.4371
      3 O          24.1994   70.6632   -2.9250 O.2     1  UNL1       -0.5170
      4 O          22.8890   72.4807   -1.7629 O.3     1  UNL1       -0.3112
      5 C          23.7495   72.7005   -0.6437 C.3     1  UNL1        0.1811
      6 C          22.9638   72.1331    2.8200 C.3     1  UNL1        0.2383
      7 C          21.6234   72.5825    2.1849 C.3     1  UNL1        0.1895
      8 O          20.5144   71.9789    2.8538 O.3     1  UNL1       -0.3779
      9 C          21.7535   72.0473    0.7378 C.3     1  UNL1        0.1713
     10 C          23.2698   71.8584    0.5411 C.3     1  UNL1        0.1764
     11 O          23.9157   72.2982    1.7465 O.3     1  UNL1       -0.3308
     12 O          21.0721   70.7988    0.6045 O.3     1  UNL1       -0.3794
     13 H          19.6532   72.2297    2.4931 H       1  UNL1        0.2106
     14 H          20.1221   70.8481    0.7760 H       1  UNL1        0.2105
     15 N          23.3108   72.9921    3.9543 N.ar    1  UNL1       -0.2551
     16 C          24.3239   73.8693    3.8406 C.ar    1  UNL1        0.3323
     17 N          24.6647   74.6710    4.8669 N.ar    1  UNL1       -0.2743
     18 C          23.9886   74.6066    6.0319 C.ar    1  UNL1        0.2626
     19 C          22.9192   73.6886    6.1652 C.ar    1  UNL1        0.0795
     20 C          22.5966   72.9000    5.1185 C.ar    1  UNL1        0.0869
     21 O          24.9422   73.9383    2.7959 O.2     1  UNL1       -0.2464
     22 O          24.2958   75.3320    6.9615 O.2     1  UNL1       -0.2670
     23 H          25.3986   75.2970    4.7684 H       1  UNL1        0.1734
     24 O          22.1504   71.5449   -4.1064 O.3     1  UNL1       -0.2703
     25 P          21.5267   72.2119   -5.4327 P.3     1  UNL1        0.2208
     26 O          21.2494   73.7759   -5.1666 O.3     1  UNL1       -0.4371
     27 O          22.4798   72.0644   -6.5544 O.2     1  UNL1       -0.5170
     28 O          20.1430   71.4765   -5.8033 O.3     1  UNL1       -0.2865
     29 C          19.0708   72.1320   -6.4830 C.3     1  UNL1        0.2611
     30 C          17.7375   71.7110   -5.8603 C.3     1  UNL1        0.1582
     31 C          17.5516   70.2018   -6.0450 C.3     1  UNL1        0.1625
     32 C          17.6265   69.8678   -7.5374 C.3     1  UNL1        0.1686
     33 C          18.9645   70.3600   -8.0955 C.3     1  UNL1        0.1760
     34 O          16.2758   69.8118   -5.5317 O.3     1  UNL1       -0.3801
     35 O          16.5544   70.5143   -8.2259 O.3     1  UNL1       -0.3794
     36 O          19.0875   71.7647   -7.8640 O.3     1  UNL1       -0.3263
     37 H          16.0910   68.8662   -5.6153 H       1  UNL1        0.2105
     38 H          16.5402   70.3469   -9.1786 H       1  UNL1        0.2105
     39 C          18.1738   71.1219   -3.5365 C.2     1  UNL1        0.2231
     40 C          18.1786   71.4519   -2.0669 C.3     1  UNL1        0.0946
     41 N          17.7417   72.0326   -4.4310 N.am    1  UNL1       -0.2994
     42 O          18.5589   70.0357   -3.9158 O.2     1  UNL1       -0.2751
     43 H          17.4327   72.9008   -4.1281 H       1  UNL1        0.1496
     44 C          19.0223   70.0836   -9.5990 C.3     1  UNL1        0.1693
     45 O          18.5115   71.2122  -10.3116 O.3     1  UNL1       -0.3794
     46 H          18.5179   71.1069  -11.2728 H       1  UNL1        0.2105
@<TRIPOS>BOND
     1    29    30    1
     2    30    41    1
     3    30    31    1
     4    31    34    1
     5    31    32    1
     6    32    35    1
     7    32    33    1
     8    33    36    1
     9    33    44    1
    10    39    40    1
    11    39    42    2
    12    39    41   am
    13    41    43    1
    14    29    28    1
    15    34    37    1
    16    35    38    1
    17    29    36    1
    18    44    45    1
    19    45    46    1
    20    15     6    1
    21    15    16   ar
    22    16    21    2
    23    16    17   ar
    24    17    23    1
    25    17    18   ar
    26    18    19   ar
    27    19    20   ar
    28    15    20   ar
    29    18    22    2
    30     6     7    1
    31     6    11    1
    32     7     9    1
    33     7     8    1
    34     8    13    1
    35     9    10    1
    36     9    12    1
    37    10     5    1
    38    10    11    1
    39    12    14    1
    40     5     4    1
    41     4     1    1
    42     1     2    1
    43     1    24    1
    44     1     3    2
    45    24    25    1
    46    28    25    1
    47    25    26    1
    48    25    27    2
