@<TRIPOS>MOLECULE
GDU
 43 45 0 0 0
SMALL
GASTEIGER

@<TRIPOS>ATOM
      1 P          20.8957   71.5661   -2.1023 P.3     1  UNL1        0.2189
      2 O          21.7943   70.6142   -2.7921 O.2     1  UNL1       -0.5170
      3 O          21.6418   72.9834   -1.9352 O.3     1  UNL1       -0.4371
      4 O          19.5556   71.7641   -2.9692 O.3     1  UNL1       -0.3112
      5 C          18.6264   70.7734   -2.5267 C.3     1  UNL1        0.1811
      6 C          16.9858   70.5062   -5.7149 C.3     1  UNL1        0.2383
      7 C          16.9597   69.0660   -5.1419 C.3     1  UNL1        0.1895
      8 O          15.8048   68.3571   -5.5967 O.3     1  UNL1       -0.3779
      9 C          16.8838   69.3253   -3.6147 C.3     1  UNL1        0.1713
     10 C          17.4088   70.7639   -3.4528 C.3     1  UNL1        0.1764
     11 O          17.7847   71.2348   -4.7586 O.3     1  UNL1       -0.3308
     12 O          15.5338   69.2238   -3.1573 O.3     1  UNL1       -0.3794
     13 H          15.8488   67.4729   -5.2066 H       1  UNL1        0.2106
     14 H          15.2436   68.3198   -3.3394 H       1  UNL1        0.2105
     15 N          17.6162   70.5267   -7.0358 N.ar    1  UNL1       -0.2551
     16 C          16.8528   70.4517   -8.1403 C.ar    1  UNL1        0.3323
     17 N          17.4071   70.4722   -9.3668 N.ar    1  UNL1       -0.2743
     18 C          18.7439   70.5586   -9.5074 C.ar    1  UNL1        0.2626
     19 C          19.5610   70.6326   -8.3528 C.ar    1  UNL1        0.0795
     20 C          18.9788   70.6144   -7.1349 C.ar    1  UNL1        0.0869
     21 O          15.6455   70.3738   -8.0293 O.2     1  UNL1       -0.2464
     22 O          19.2469   70.5724  -10.6171 O.2     1  UNL1       -0.2670
     23 H          16.8407   70.4214  -10.1531 H       1  UNL1        0.1734
     24 O          20.5156   70.9868   -0.6489 O.3     1  UNL1       -0.2703
     25 P          21.8523   71.0545    0.2447 P.3     1  UNL1        0.2208
     26 O          21.8729   69.9150    1.1882 O.2     1  UNL1       -0.5170
     27 O          23.1436   70.9792   -0.7151 O.3     1  UNL1       -0.4371
     28 O          21.8783   72.4361    1.0696 O.3     1  UNL1       -0.2858
     29 C          22.3886   72.1341    2.3689 C.3     1  UNL1        0.2704
     30 C          21.5810   72.8939    3.4224 C.3     1  UNL1        0.1967
     31 C          21.6794   74.3959    3.1384 C.3     1  UNL1        0.1715
     32 C          23.1602   74.7816    3.0483 C.3     1  UNL1        0.1694
     33 C          23.8480   73.8792    2.0210 C.3     1  UNL1        0.1761
     34 O          20.2138   72.4831    3.3655 O.3     1  UNL1       -0.3775
     35 O          21.0539   75.1265    4.1955 O.3     1  UNL1       -0.3794
     36 O          23.7759   74.6148    4.3262 O.3     1  UNL1       -0.3794
     37 O          23.7597   72.5182    2.4402 O.3     1  UNL1       -0.3258
     38 H          20.2005   71.5327    3.5426 H       1  UNL1        0.2106
     39 H          20.1309   74.8441    4.2229 H       1  UNL1        0.2105
     40 H          23.3082   75.1957    4.9403 H       1  UNL1        0.2105
     41 C          25.3202   74.2788    1.8982 C.3     1  UNL1        0.1693
     42 O          25.4096   75.6374    1.4655 O.3     1  UNL1       -0.3794
     43 H          26.3510   75.8494    1.4016 H       1  UNL1        0.2105
@<TRIPOS>BOND
     1    15    16   ar
     2    15    20   ar
     3    15     6    1
     4    16    17   ar
     5    16    21    2
     6    17    18   ar
     7    17    23    1
     8    18    19   ar
     9    18    22    2
    10    19    20   ar
    11     6     7    1
    12     6    11    1
    13     7     8    1
    14     7     9    1
    15     8    13    1
    16     9    10    1
    17     9    12    1
    18    10    11    1
    19    10     5    1
    20    12    14    1
    21     5     4    1
    22     4     1    1
    23     1     2    2
    24     1     3    1
    25     1    24    1
    26    24    25    1
    27    25    26    2
    28    25    27    1
    29    25    28    1
    30    28    29    1
    31    29    30    1
    32    29    37    1
    33    30    31    1
    34    30    34    1
    35    31    32    1
    36    31    35    1
    37    32    33    1
    38    32    36    1
    39    33    41    1
    40    33    37    1
    41    41    42    1
    42    34    38    1
    43    35    39    1
    44    36    40    1
    45    42    43    1
@<TRIPOS>MOLECULE
GDU
 43 45 0 0 0
SMALL
GASTEIGER

@<TRIPOS>ATOM
      1 P          20.8850   70.7698   -3.5761 P.3     1  UNL1        0.2189
      2 O          20.3886   69.4528   -4.0330 O.2     1  UNL1       -0.5170
      3 O          21.6806   71.4894   -4.7770 O.3     1  UNL1       -0.4371
      4 O          19.6414   71.6874   -3.1306 O.3     1  UNL1       -0.3112
      5 C          18.6533   70.8100   -2.5880 C.3     1  UNL1        0.1811
      6 C          16.9947   70.5055   -5.7635 C.3     1  UNL1        0.2383
      7 C          16.9786   69.0707   -5.1769 C.3     1  UNL1        0.1895
      8 O          15.8242   68.3524   -5.6180 O.3     1  UNL1       -0.3779
      9 C          16.9107   69.3439   -3.6518 C.3     1  UNL1        0.1713
     10 C          17.4302   70.7863   -3.5065 C.3     1  UNL1        0.1764
     11 O          17.7960   71.2466   -4.8190 O.3     1  UNL1       -0.3308
     12 O          15.5640   69.2407   -3.1852 O.3     1  UNL1       -0.3794
     13 H          15.8745   67.4721   -5.2200 H       1  UNL1        0.2106
     14 H          15.2767   68.3337   -3.3571 H       1  UNL1        0.2105
     15 N          17.6170   70.5165   -7.0884 N.ar    1  UNL1       -0.2551
     16 C          16.8446   70.4747   -8.1884 C.ar    1  UNL1        0.3323
     17 N          17.3915   70.4872   -9.4182 N.ar    1  UNL1       -0.2743
     18 C          18.7294   70.5322   -9.5671 C.ar    1  UNL1        0.2626
     19 C          19.5557   70.5708   -8.4173 C.ar    1  UNL1        0.0795
     20 C          18.9810   70.5614   -7.1958 C.ar    1  UNL1        0.0869
     21 O          15.6361   70.4344   -8.0699 O.2     1  UNL1       -0.2464
     22 O          19.2255   70.5387  -10.6799 O.2     1  UNL1       -0.2670
     23 H          16.8187   70.4609  -10.2012 H       1  UNL1        0.1734
     24 O          21.8770   70.5637   -2.3247 O.3     1  UNL1       -0.2703
     25 P          22.7889   71.8863   -2.2294 P.3     1  UNL1        0.2208
     26 O          24.1143   71.6156   -2.8287 O.2     1  UNL1       -0.5170
     27 O          22.0749   73.0889   -3.0282 O.3     1  UNL1       -0.4371
     28 O          22.9719   72.3032   -0.6858 O.3     1  UNL1       -0.2858
     29 C          23.1498   71.0936    0.0524 C.3     1  UNL1        0.2704
     30 C          21.9729   70.9041    1.0106 C.3     1  UNL1        0.1967
     31 C          21.8997   72.1081    1.9547 C.3     1  UNL1        0.1715
     32 C          23.2656   72.2876    2.6268 C.3     1  UNL1        0.1694
     33 C          24.3451   72.3743    1.5451 C.3     1  UNL1        0.1761
     34 O          20.7589   70.8050    0.2639 O.3     1  UNL1       -0.3775
     35 O          20.8991   71.8785    2.9490 O.3     1  UNL1       -0.3794
     36 O          23.5275   71.1738    3.4818 O.3     1  UNL1       -0.3794
     37 O          24.3680   71.1638    0.7899 O.3     1  UNL1       -0.3258
     38 H          20.8523   70.0403   -0.3203 H       1  UNL1        0.2106
     39 H          20.0625   71.7598    2.4819 H       1  UNL1        0.2105
     40 H          22.8218   71.1554    4.1414 H       1  UNL1        0.2105
     41 C          25.7095   72.5880    2.2044 C.3     1  UNL1        0.1693
     42 O          25.5460   73.3579    3.3967 O.3     1  UNL1       -0.3794
     43 H          26.4265   73.4691    3.7810 H       1  UNL1        0.2105
@<TRIPOS>BOND
     1    15    16   ar
     2    15    20   ar
     3    15     6    1
     4    16    17   ar
     5    16    21    2
     6    17    18   ar
     7    17    23    1
     8    18    19   ar
     9    18    22    2
    10    19    20   ar
    11     6     7    1
    12     6    11    1
    13     7     8    1
    14     7     9    1
    15     8    13    1
    16     9    10    1
    17     9    12    1
    18    10    11    1
    19    10     5    1
    20    12    14    1
    21     5     4    1
    22     4     1    1
    23     1     2    2
    24     1     3    1
    25     1    24    1
    26    24    25    1
    27    25    26    2
    28    25    27    1
    29    25    28    1
    30    28    29    1
    31    29    30    1
    32    29    37    1
    33    30    31    1
    34    30    34    1
    35    31    32    1
    36    31    35    1
    37    32    33    1
    38    32    36    1
    39    33    41    1
    40    33    37    1
    41    41    42    1
    42    34    38    1
    43    35    39    1
    44    36    40    1
    45    42    43    1
@<TRIPOS>MOLECULE
GDU
 43 45 0 0 0
SMALL
GASTEIGER

@<TRIPOS>ATOM
      1 P          20.9828   70.8269   -3.4302 P.3     1  UNL1        0.2189
      2 O          21.9638   70.6830   -2.3319 O.2     1  UNL1       -0.5170
      3 O          20.5070   69.3682   -3.9191 O.3     1  UNL1       -0.4371
      4 O          19.7097   71.6593   -2.9076 O.3     1  UNL1       -0.3112
      5 C          18.7515   70.7048   -2.4478 C.3     1  UNL1        0.1811
      6 C          17.0557   70.5387   -5.6139 C.3     1  UNL1        0.2383
      7 C          17.0100   69.0873   -5.0714 C.3     1  UNL1        0.1895
      8 O          15.8341   68.4112   -5.5223 O.3     1  UNL1       -0.3779
      9 C          16.9633   69.3150   -3.5380 C.3     1  UNL1        0.1713
     10 C          17.5195   70.7392   -3.3540 C.3     1  UNL1        0.1764
     11 O          17.8840   71.2307   -4.6555 O.3     1  UNL1       -0.3308
     12 O          15.6190   69.2302   -3.0610 O.3     1  UNL1       -0.3794
     13 H          15.8665   67.5182   -5.1519 H       1  UNL1        0.2106
     14 H          15.3079   68.3362   -3.2576 H       1  UNL1        0.2105
     15 N          17.6655   70.5754   -6.9442 N.ar    1  UNL1       -0.2551
     16 C          16.8896   70.4639   -8.0368 C.ar    1  UNL1        0.3323
     17 N          17.4247   70.4982   -9.2714 N.ar    1  UNL1       -0.2743
     18 C          18.7549   70.6355   -9.4324 C.ar    1  UNL1        0.2626
     19 C          19.5853   70.7483   -8.2904 C.ar    1  UNL1        0.0795
     20 C          19.0221   70.7152   -7.0639 C.ar    1  UNL1        0.0869
     21 O          15.6879   70.3400   -7.9074 O.2     1  UNL1       -0.2464
     22 O          19.2408   70.6618  -10.5494 O.2     1  UNL1       -0.2670
     23 H          16.8492   70.4206  -10.0489 H       1  UNL1        0.1734
     24 O          21.6672   71.6071   -4.6611 O.3     1  UNL1       -0.2703
     25 P          22.6257   72.7326   -4.0252 P.3     1  UNL1        0.2208
     26 O          22.2341   72.9768   -2.6194 O.2     1  UNL1       -0.5170
     27 O          24.1540   72.2266   -4.0757 O.3     1  UNL1       -0.4371
     28 O          22.4853   74.0969   -4.8672 O.3     1  UNL1       -0.2858
     29 C          21.5038   73.8617   -5.8777 C.3     1  UNL1        0.2704
     30 C          22.1938   73.7266   -7.2360 C.3     1  UNL1        0.1967
     31 C          22.9743   75.0117   -7.5287 C.3     1  UNL1        0.1715
     32 C          22.0210   76.2048   -7.3972 C.3     1  UNL1        0.1694
     33 C          21.3451   76.1529   -6.0248 C.3     1  UNL1        0.1761
     34 O          23.0915   72.6154   -7.2085 O.3     1  UNL1       -0.3775
     35 O          23.5031   74.9606   -8.8555 O.3     1  UNL1       -0.3794
     36 O          21.0314   76.1413   -8.4252 O.3     1  UNL1       -0.3794
     37 O          20.5848   74.9511   -5.9078 O.3     1  UNL1       -0.3258
     38 H          22.5595   71.8317   -7.0144 H       1  UNL1        0.2106
     39 H          24.0852   74.1913   -8.8953 H       1  UNL1        0.2105
     40 H          21.5017   76.1710   -9.2686 H       1  UNL1        0.2105
     41 C          20.4163   77.3592   -5.8696 C.3     1  UNL1        0.1693
     42 O          20.7411   78.0577   -4.6664 O.3     1  UNL1       -0.3794
     43 H          20.1351   78.8091   -4.6068 H       1  UNL1        0.2105
@<TRIPOS>BOND
     1    15    16   ar
     2    15    20   ar
     3    15     6    1
     4    16    17   ar
     5    16    21    2
     6    17    18   ar
     7    17    23    1
     8    18    19   ar
     9    18    22    2
    10    19    20   ar
    11     6     7    1
    12     6    11    1
    13     7     8    1
    14     7     9    1
    15     8    13    1
    16     9    10    1
    17     9    12    1
    18    10    11    1
    19    10     5    1
    20    12    14    1
    21     5     4    1
    22     4     1    1
    23     1     2    2
    24     1     3    1
    25     1    24    1
    26    24    25    1
    27    25    26    2
    28    25    27    1
    29    25    28    1
    30    28    29    1
    31    29    30    1
    32    29    37    1
    33    30    31    1
    34    30    34    1
    35    31    32    1
    36    31    35    1
    37    32    33    1
    38    32    36    1
    39    33    41    1
    40    33    37    1
    41    41    42    1
    42    34    38    1
    43    35    39    1
    44    36    40    1
    45    42    43    1
@<TRIPOS>MOLECULE
GDU
 43 45 0 0 0
SMALL
GASTEIGER

@<TRIPOS>ATOM
      1 P          23.0750   71.7086   -3.3760 P.3     1  UNL1        0.2189
      2 O          24.2692   70.9698   -2.9095 O.2     1  UNL1       -0.5170
      3 O          22.9652   73.1061   -2.5835 O.3     1  UNL1       -0.4371
      4 O          23.2029   71.9949   -4.9535 O.3     1  UNL1       -0.3112
      5 C          22.5705   73.2522   -5.1985 C.3     1  UNL1        0.1811
      6 C          19.5823   72.1202   -6.8467 C.3     1  UNL1        0.2383
      7 C          19.2170   73.5238   -6.2996 C.3     1  UNL1        0.1895
      8 O          18.2557   74.1647   -7.1411 O.3     1  UNL1       -0.3779
      9 C          20.5808   74.2600   -6.3573 C.3     1  UNL1        0.1713
     10 C          21.6189   73.1230   -6.3892 C.3     1  UNL1        0.1764
     11 O          20.8994   71.8805   -6.3069 O.3     1  UNL1       -0.3308
     12 O          20.6676   75.0590   -7.5388 O.3     1  UNL1       -0.3794
     13 H          18.0721   75.0289   -6.7469 H       1  UNL1        0.2106
     14 H          19.9572   75.7128   -7.4876 H       1  UNL1        0.2105
     15 N          18.6358   71.1134   -6.3635 N.ar    1  UNL1       -0.2551
     16 C          17.7093   70.6134   -7.2000 C.ar    1  UNL1        0.3323
     17 N          16.8296   69.6843   -6.7819 N.ar    1  UNL1       -0.2743
     18 C          16.8576   69.2456   -5.5087 C.ar    1  UNL1        0.2626
     19 C          17.8243   69.7677   -4.6148 C.ar    1  UNL1        0.0795
     20 C          18.6974   70.6955   -5.0613 C.ar    1  UNL1        0.0869
     21 O          17.6722   70.9990   -8.3515 O.2     1  UNL1       -0.2464
     22 O          16.0586   68.4082   -5.1281 O.2     1  UNL1       -0.2670
     23 H          16.1705   69.3312   -7.4005 H       1  UNL1        0.1734
     24 O          21.7566   70.8284   -3.0941 O.3     1  UNL1       -0.2703
     25 P          20.9925   71.5159   -1.8558 P.3     1  UNL1        0.2208
     26 O          20.3149   72.7476   -2.3170 O.2     1  UNL1       -0.5170
     27 O          19.8990   70.4916   -1.2647 O.3     1  UNL1       -0.4371
     28 O          22.0561   71.8858   -0.7060 O.3     1  UNL1       -0.2858
     29 C          21.5760   71.3033    0.5064 C.3     1  UNL1        0.2704
     30 C          20.9107   72.3829    1.3614 C.3     1  UNL1        0.1967
     31 C          21.9331   73.4842    1.6584 C.3     1  UNL1        0.1715
     32 C          23.1809   72.8412    2.2743 C.3     1  UNL1        0.1694
     33 C          23.6755   71.7273    1.3482 C.3     1  UNL1        0.1761
     34 O          19.8001   72.9370    0.6538 O.3     1  UNL1       -0.3775
     35 O          21.3723   74.4252    2.5761 O.3     1  UNL1       -0.3794
     36 O          22.8555   72.2962    3.5538 O.3     1  UNL1       -0.3794
     37 O          22.6675   70.7258    1.2189 O.3     1  UNL1       -0.3258
     38 H          19.1873   72.2090    0.4823 H       1  UNL1        0.2106
     39 H          20.5865   74.7942    2.1534 H       1  UNL1        0.2105
     40 H          22.5443   73.0300    4.0997 H       1  UNL1        0.2105
     41 C          24.9416   71.1012    1.9373 C.3     1  UNL1        0.1693
     42 O          24.7599   69.6898    2.0630 O.3     1  UNL1       -0.3794
     43 H          25.5783   69.3344    2.4361 H       1  UNL1        0.2105
@<TRIPOS>BOND
     1    15    16   ar
     2    15    20   ar
     3    15     6    1
     4    16    17   ar
     5    16    21    2
     6    17    18   ar
     7    17    23    1
     8    18    19   ar
     9    18    22    2
    10    19    20   ar
    11     6     7    1
    12     6    11    1
    13     7     8    1
    14     7     9    1
    15     8    13    1
    16     9    10    1
    17     9    12    1
    18    10    11    1
    19    10     5    1
    20    12    14    1
    21     5     4    1
    22     4     1    1
    23     1     2    2
    24     1     3    1
    25     1    24    1
    26    24    25    1
    27    25    26    2
    28    25    27    1
    29    25    28    1
    30    28    29    1
    31    29    30    1
    32    29    37    1
    33    30    31    1
    34    30    34    1
    35    31    32    1
    36    31    35    1
    37    32    33    1
    38    32    36    1
    39    33    41    1
    40    33    37    1
    41    41    42    1
    42    34    38    1
    43    35    39    1
    44    36    40    1
    45    42    43    1
@<TRIPOS>MOLECULE
GDU
 43 45 0 0 0
SMALL
GASTEIGER

@<TRIPOS>ATOM
      1 P          20.0217   72.0732   -1.2478 P.3     1  UNL1        0.2189
      2 O          18.7358   72.6810   -0.8395 O.2     1  UNL1       -0.5170
      3 O          20.4111   70.8986   -0.2174 O.3     1  UNL1       -0.4371
      4 O          19.8809   71.4628   -2.7291 O.3     1  UNL1       -0.3112
      5 C          19.0466   70.3081   -2.6232 C.3     1  UNL1        0.1811
      6 C          17.2367   70.4192   -5.7279 C.3     1  UNL1        0.2383
      7 C          17.0547   68.9648   -5.2232 C.3     1  UNL1        0.1895
      8 O          15.7987   68.4310   -5.6485 O.3     1  UNL1       -0.3779
      9 C          17.0845   69.1491   -3.6836 C.3     1  UNL1        0.1713
     10 C          17.7954   70.5002   -3.4821 C.3     1  UNL1        0.1764
     11 O          18.1661   70.9900   -4.7825 O.3     1  UNL1       -0.3308
     12 O          15.7557   69.1924   -3.1598 O.3     1  UNL1       -0.3794
     13 H          15.7482   67.5285   -5.3036 H       1  UNL1        0.2106
     14 H          15.3444   68.3427   -3.3687 H       1  UNL1        0.2105
     15 N          17.8017   70.4319   -7.0783 N.ar    1  UNL1       -0.2551
     16 C          16.9819   70.4634   -8.1438 C.ar    1  UNL1        0.3323
     17 N          17.4757   70.4792   -9.3960 N.ar    1  UNL1       -0.2743
     18 C          18.8064   70.4537   -9.6025 C.ar    1  UNL1        0.2626
     19 C          19.6819   70.4146   -8.4897 C.ar    1  UNL1        0.0795
     20 C          19.1602   70.4037   -7.2446 C.ar    1  UNL1        0.0869
     21 O          15.7792   70.4872   -7.9733 O.2     1  UNL1       -0.2464
     22 O          19.2542   70.4632  -10.7356 O.2     1  UNL1       -0.2670
     23 H          16.8694   70.5063  -10.1533 H       1  UNL1        0.1734
     24 O          21.1734   73.1983   -1.2368 O.3     1  UNL1       -0.2703
     25 P          22.5662   72.4432   -1.5194 P.3     1  UNL1        0.2208
     26 O          22.3786   70.9848   -1.3547 O.2     1  UNL1       -0.5170
     27 O          23.0498   72.7550   -3.0238 O.3     1  UNL1       -0.4371
     28 O          23.6801   72.9627   -0.4805 O.3     1  UNL1       -0.2858
     29 C          23.0387   73.0826    0.7900 C.3     1  UNL1        0.2704
     30 C          23.2276   74.5035    1.3236 C.3     1  UNL1        0.1967
     31 C          24.7264   74.7955    1.4447 C.3     1  UNL1        0.1715
     32 C          25.3743   73.6908    2.2871 C.3     1  UNL1        0.1694
     33 C          25.0240   72.3307    1.6787 C.3     1  UNL1        0.1761
     34 O          22.6279   75.4366    0.4231 O.3     1  UNL1       -0.3775
     35 O          24.9192   76.0617    2.0787 O.3     1  UNL1       -0.3794
     36 O          24.8835   73.7613    3.6265 O.3     1  UNL1       -0.3794
     37 O          23.6095   72.1442    1.6990 O.3     1  UNL1       -0.3258
     38 H          21.6890   75.2111    0.3721 H       1  UNL1        0.2106
     39 H          24.4868   76.7219    1.5225 H       1  UNL1        0.2105
     40 H          25.1211   74.6339    3.9661 H       1  UNL1        0.2105
     41 C          25.6946   71.2218    2.4927 C.3     1  UNL1        0.1693
     42 O          24.8891   70.0429    2.4443 O.3     1  UNL1       -0.3794
     43 H          25.3461   69.3700    2.9675 H       1  UNL1        0.2105
@<TRIPOS>BOND
     1    15    16   ar
     2    15    20   ar
     3    15     6    1
     4    16    17   ar
     5    16    21    2
     6    17    18   ar
     7    17    23    1
     8    18    19   ar
     9    18    22    2
    10    19    20   ar
    11     6     7    1
    12     6    11    1
    13     7     8    1
    14     7     9    1
    15     8    13    1
    16     9    10    1
    17     9    12    1
    18    10    11    1
    19    10     5    1
    20    12    14    1
    21     5     4    1
    22     4     1    1
    23     1     2    2
    24     1     3    1
    25     1    24    1
    26    24    25    1
    27    25    26    2
    28    25    27    1
    29    25    28    1
    30    28    29    1
    31    29    30    1
    32    29    37    1
    33    30    31    1
    34    30    34    1
    35    31    32    1
    36    31    35    1
    37    32    33    1
    38    32    36    1
    39    33    41    1
    40    33    37    1
    41    41    42    1
    42    34    38    1
    43    35    39    1
    44    36    40    1
    45    42    43    1
@<TRIPOS>MOLECULE
GDU
 43 45 0 0 0
SMALL
GASTEIGER

@<TRIPOS>ATOM
      1 P          21.0975   71.7539   -1.7023 P.3     1  UNL1        0.2189
      2 O          20.7733   73.1027   -1.1874 O.2     1  UNL1       -0.5170
      3 O          20.8525   70.6638   -0.5427 O.3     1  UNL1       -0.4371
      4 O          20.1549   71.4189   -2.9617 O.3     1  UNL1       -0.3112
      5 C          19.1738   70.4853   -2.5074 C.3     1  UNL1        0.1811
      6 C          17.2975   70.4981   -5.5744 C.3     1  UNL1        0.2383
      7 C          17.1591   69.0497   -5.0396 C.3     1  UNL1        0.1895
      8 O          15.9070   68.4801   -5.4284 O.3     1  UNL1       -0.3779
      9 C          17.2168   69.2633   -3.5046 C.3     1  UNL1        0.1713
     10 C          17.9009   70.6334   -3.3428 C.3     1  UNL1        0.1764
     11 O          18.2332   71.1071   -4.6594 O.3     1  UNL1       -0.3308
     12 O          15.8986   69.2866   -2.9535 O.3     1  UNL1       -0.3794
     13 H          15.8842   67.5834   -5.0662 H       1  UNL1        0.2106
     14 H          15.5025   68.4242   -3.1382 H       1  UNL1        0.2105
     15 N          17.8337   70.4982   -6.9365 N.ar    1  UNL1       -0.2551
     16 C          16.9949   70.4057   -7.9834 C.ar    1  UNL1        0.3323
     17 N          17.4618   70.4072   -9.2459 N.ar    1  UNL1       -0.2743
     18 C          18.7853   70.4920   -9.4813 C.ar    1  UNL1        0.2626
     19 C          19.6812   70.5842   -8.3881 C.ar    1  UNL1        0.0795
     20 C          19.1859   70.5848   -7.1323 C.ar    1  UNL1        0.0869
     21 O          15.7984   70.3291   -7.7868 O.2     1  UNL1       -0.2464
     22 O          19.2092   70.4886  -10.6236 O.2     1  UNL1       -0.2670
     23 H          16.8416   70.3440   -9.9897 H       1  UNL1        0.1734
     24 O          22.6409   71.7117   -2.1592 O.3     1  UNL1       -0.2703
     25 P          22.8219   72.8361   -3.2962 P.3     1  UNL1        0.2208
     26 O          23.9975   72.5073   -4.1322 O.2     1  UNL1       -0.5170
     27 O          21.5032   72.8821   -4.2198 O.3     1  UNL1       -0.4371
     28 O          23.0401   74.2719   -2.6026 O.3     1  UNL1       -0.2858
     29 C          24.3301   74.2452   -1.9902 C.3     1  UNL1        0.2704
     30 C          24.2362   74.8287   -0.5795 C.3     1  UNL1        0.1967
     31 C          23.7090   76.2642   -0.6678 C.3     1  UNL1        0.1715
     32 C          24.5925   77.0517   -1.6419 C.3     1  UNL1        0.1694
     33 C          24.6577   76.2999   -2.9737 C.3     1  UNL1        0.1761
     34 O          23.3443   74.0372    0.2074 O.3     1  UNL1       -0.3775
     35 O          23.7544   76.8727    0.6245 O.3     1  UNL1       -0.3794
     36 O          25.9061   77.1824   -1.0967 O.3     1  UNL1       -0.3794
     37 O          25.2414   75.0136   -2.7723 O.3     1  UNL1       -0.3258
     38 H          23.7108   73.1427    0.2297 H       1  UNL1        0.2106
     39 H          23.1965   76.3393    1.2047 H       1  UNL1        0.2105
     40 H          25.8157   77.6550   -0.2590 H       1  UNL1        0.2105
     41 C          25.5100   77.0953   -3.9652 C.3     1  UNL1        0.1693
     42 O          26.8762   76.6950   -3.8458 O.3     1  UNL1       -0.3794
     43 H          27.3780   77.2178   -4.4862 H       1  UNL1        0.2105
@<TRIPOS>BOND
     1    15    16   ar
     2    15    20   ar
     3    15     6    1
     4    16    17   ar
     5    16    21    2
     6    17    18   ar
     7    17    23    1
     8    18    19   ar
     9    18    22    2
    10    19    20   ar
    11     6     7    1
    12     6    11    1
    13     7     8    1
    14     7     9    1
    15     8    13    1
    16     9    10    1
    17     9    12    1
    18    10    11    1
    19    10     5    1
    20    12    14    1
    21     5     4    1
    22     4     1    1
    23     1     2    2
    24     1     3    1
    25     1    24    1
    26    24    25    1
    27    25    26    2
    28    25    27    1
    29    25    28    1
    30    28    29    1
    31    29    30    1
    32    29    37    1
    33    30    31    1
    34    30    34    1
    35    31    32    1
    36    31    35    1
    37    32    33    1
    38    32    36    1
    39    33    41    1
    40    33    37    1
    41    41    42    1
    42    34    38    1
    43    35    39    1
    44    36    40    1
    45    42    43    1
@<TRIPOS>MOLECULE
GDU
 43 45 0 0 0
SMALL
GASTEIGER

@<TRIPOS>ATOM
      1 P          20.4962   70.8748   -2.5229 P.3     1  UNL1        0.2189
      2 O          20.9718   70.7863   -1.1245 O.2     1  UNL1       -0.5170
      3 O          21.5102   70.0767   -3.4861 O.3     1  UNL1       -0.4371
      4 O          19.0286   70.2260   -2.6332 O.3     1  UNL1       -0.3112
      5 C          18.0942   71.3052   -2.5819 C.3     1  UNL1        0.1811
      6 C          16.7576   70.5593   -5.8353 C.3     1  UNL1        0.2383
      7 C          16.8797   69.1797   -5.1391 C.3     1  UNL1        0.1895
      8 O          15.8690   68.2824   -5.6045 O.3     1  UNL1       -0.3779
      9 C          16.6510   69.5460   -3.6496 C.3     1  UNL1        0.1713
     10 C          16.9647   71.0522   -3.5822 C.3     1  UNL1        0.1764
     11 O          17.3749   71.4660   -4.8970 O.3     1  UNL1       -0.3308
     12 O          15.2952   69.2933   -3.2755 O.3     1  UNL1       -0.3794
     13 H          16.0002   67.4468   -5.1350 H       1  UNL1        0.2106
     14 H          15.1435   68.3460   -3.3951 H       1  UNL1        0.2105
     15 N          17.4806   70.5631   -7.1081 N.ar    1  UNL1       -0.2551
     16 C          16.7947   70.5598   -8.2647 C.ar    1  UNL1        0.3323
     17 N          17.4353   70.5667   -9.4486 N.ar    1  UNL1       -0.2743
     18 C          18.7815   70.5670   -9.4933 C.ar    1  UNL1        0.2626
     19 C          19.5171   70.5647   -8.2829 C.ar    1  UNL1        0.0795
     20 C          18.8496   70.5621   -7.1095 C.ar    1  UNL1        0.0869
     21 O          15.5800   70.5599   -8.2402 O.2     1  UNL1       -0.2464
     22 O          19.3622   70.5685  -10.5644 O.2     1  UNL1       -0.2670
     23 H          16.9242   70.5685  -10.2736 H       1  UNL1        0.1734
     24 O          20.4363   72.4200   -2.9715 O.3     1  UNL1       -0.2703
     25 P          21.9211   73.0151   -2.7948 P.3     1  UNL1        0.2208
     26 O          22.8633   72.2485   -3.6396 O.2     1  UNL1       -0.5170
     27 O          21.9359   74.5620   -3.2430 O.3     1  UNL1       -0.4371
     28 O          22.3664   72.9003   -1.2525 O.3     1  UNL1       -0.2858
     29 C          22.1876   74.1927   -0.6717 C.3     1  UNL1        0.2704
     30 C          23.5211   74.6866   -0.1083 C.3     1  UNL1        0.1967
     31 C          24.0205   73.6871    0.9395 C.3     1  UNL1        0.1715
     32 C          22.9136   73.4715    1.9777 C.3     1  UNL1        0.1694
     33 C          21.6258   73.0675    1.2556 C.3     1  UNL1        0.1761
     34 O          24.4771   74.7926   -1.1647 O.3     1  UNL1       -0.3775
     35 O          25.1881   74.2059    1.5798 O.3     1  UNL1       -0.3794
     36 O          22.6993   74.6812    2.7061 O.3     1  UNL1       -0.3794
     37 O          21.2207   74.1128    0.3729 O.3     1  UNL1       -0.3258
     38 H          24.1190   75.4247   -1.8027 H       1  UNL1        0.2106
     39 H          25.8508   74.3367    0.8899 H       1  UNL1        0.2105
     40 H          23.5353   74.8996    3.1382 H       1  UNL1        0.2105
     41 C          20.5226   72.8162    2.2861 C.3     1  UNL1        0.1693
     42 O          21.0756   72.1480    3.4214 O.3     1  UNL1       -0.3794
     43 H          20.3500   72.0095    4.0455 H       1  UNL1        0.2105
@<TRIPOS>BOND
     1    15    16   ar
     2    15    20   ar
     3    15     6    1
     4    16    17   ar
     5    16    21    2
     6    17    18   ar
     7    17    23    1
     8    18    19   ar
     9    18    22    2
    10    19    20   ar
    11     6     7    1
    12     6    11    1
    13     7     8    1
    14     7     9    1
    15     8    13    1
    16     9    10    1
    17     9    12    1
    18    10    11    1
    19    10     5    1
    20    12    14    1
    21     5     4    1
    22     4     1    1
    23     1     2    2
    24     1     3    1
    25     1    24    1
    26    24    25    1
    27    25    26    2
    28    25    27    1
    29    25    28    1
    30    28    29    1
    31    29    30    1
    32    29    37    1
    33    30    31    1
    34    30    34    1
    35    31    32    1
    36    31    35    1
    37    32    33    1
    38    32    36    1
    39    33    41    1
    40    33    37    1
    41    41    42    1
    42    34    38    1
    43    35    39    1
    44    36    40    1
    45    42    43    1
@<TRIPOS>MOLECULE
GDU
 43 45 0 0 0
SMALL
GASTEIGER

@<TRIPOS>ATOM
      1 P          20.4076   71.3477   -0.9263 P.3     1  UNL1        0.2189
      2 O          21.5518   70.8692   -1.7334 O.2     1  UNL1       -0.5170
      3 O          20.1917   72.9228   -1.1823 O.3     1  UNL1       -0.4371
      4 O          19.0786   70.5479   -1.3516 O.3     1  UNL1       -0.3112
      5 C          19.2713   70.1114   -2.6980 C.3     1  UNL1        0.1811
      6 C          17.3942   70.4137   -5.7496 C.3     1  UNL1        0.2383
      7 C          17.1081   68.9717   -5.2580 C.3     1  UNL1        0.1895
      8 O          15.8020   68.5474   -5.6548 O.3     1  UNL1       -0.3779
      9 C          17.1939   69.1305   -3.7177 C.3     1  UNL1        0.1713
     10 C          18.0174   70.4166   -3.5194 C.3     1  UNL1        0.1764
     11 O          18.3918   70.8937   -4.8234 O.3     1  UNL1       -0.3308
     12 O          15.8875   69.2735   -3.1567 O.3     1  UNL1       -0.3794
     13 H          15.6876   67.6471   -5.3198 H       1  UNL1        0.2106
     14 H          15.4031   68.4630   -3.3645 H       1  UNL1        0.2105
     15 N          17.9220   70.4004   -7.1149 N.ar    1  UNL1       -0.2551
     16 C          17.0743   70.4423   -8.1580 C.ar    1  UNL1        0.3323
     17 N          17.5338   70.4347   -9.4232 N.ar    1  UNL1       -0.2743
     18 C          18.8574   70.3747   -9.6656 C.ar    1  UNL1        0.2626
     19 C          19.7618   70.3242   -8.5767 C.ar    1  UNL1        0.0795
     20 C          19.2744   70.3374   -7.3178 C.ar    1  UNL1        0.0869
     21 O          15.8777   70.4971   -7.9550 O.2     1  UNL1       -0.2464
     22 O          19.2740   70.3629  -10.8105 O.2     1  UNL1       -0.2670
     23 H          16.9079   70.4698  -10.1640 H       1  UNL1        0.1734
     24 O          20.7107   71.0958    0.6348 O.3     1  UNL1       -0.2703
     25 P          22.1835   71.6766    0.9239 P.3     1  UNL1        0.2208
     26 O          22.3107   72.0051    2.3609 O.2     1  UNL1       -0.5170
     27 O          23.2841   70.5695    0.5275 O.3     1  UNL1       -0.4371
     28 O          22.4196   73.0046    0.0459 O.3     1  UNL1       -0.2858
     29 C          23.8287   73.1249   -0.1537 C.3     1  UNL1        0.2704
     30 C          24.3040   74.4791    0.3751 C.3     1  UNL1        0.1967
     31 C          23.5560   75.5932   -0.3635 C.3     1  UNL1        0.1715
     32 C          23.7308   75.3843   -1.8720 C.3     1  UNL1        0.1694
     33 C          23.2967   73.9610   -2.2308 C.3     1  UNL1        0.1761
     34 O          24.0354   74.5671    1.7756 O.3     1  UNL1       -0.3775
     35 O          24.0926   76.8632    0.0130 O.3     1  UNL1       -0.3794
     36 O          25.1016   75.5742   -2.2250 O.3     1  UNL1       -0.3794
     37 O          24.1205   73.0191   -1.5452 O.3     1  UNL1       -0.3258
     38 H          24.5192   73.8445    2.1984 H       1  UNL1        0.2106
     39 H          23.9722   76.9460    0.9675 H       1  UNL1        0.2105
     40 H          25.3319   76.4789   -1.9764 H       1  UNL1        0.2105
     41 C          23.4348   73.7529   -3.7407 C.3     1  UNL1        0.1693
     42 O          24.2873   72.6340   -3.9904 O.3     1  UNL1       -0.3794
     43 H          24.3474   72.5367   -4.9507 H       1  UNL1        0.2105
@<TRIPOS>BOND
     1    15    16   ar
     2    15    20   ar
     3    15     6    1
     4    16    17   ar
     5    16    21    2
     6    17    18   ar
     7    17    23    1
     8    18    19   ar
     9    18    22    2
    10    19    20   ar
    11     6     7    1
    12     6    11    1
    13     7     8    1
    14     7     9    1
    15     8    13    1
    16     9    10    1
    17     9    12    1
    18    10    11    1
    19    10     5    1
    20    12    14    1
    21     5     4    1
    22     4     1    1
    23     1     2    2
    24     1     3    1
    25     1    24    1
    26    24    25    1
    27    25    26    2
    28    25    27    1
    29    25    28    1
    30    28    29    1
    31    29    30    1
    32    29    37    1
    33    30    31    1
    34    30    34    1
    35    31    32    1
    36    31    35    1
    37    32    33    1
    38    32    36    1
    39    33    41    1
    40    33    37    1
    41    41    42    1
    42    34    38    1
    43    35    39    1
    44    36    40    1
    45    42    43    1
@<TRIPOS>MOLECULE
GDU
 43 45 0 0 0
SMALL
GASTEIGER

@<TRIPOS>ATOM
      1 P          20.4668   71.1104   -1.5168 P.3     1  UNL1        0.2189
      2 O          20.5264   72.5872   -1.5896 O.2     1  UNL1       -0.5170
      3 O          20.6982   70.6385    0.0053 O.3     1  UNL1       -0.4371
      4 O          19.0257   70.6055   -2.0220 O.3     1  UNL1       -0.3112
      5 C          18.3835   71.7278   -2.6291 C.3     1  UNL1        0.1811
      6 C          16.9888   70.5494   -5.7264 C.3     1  UNL1        0.2383
      7 C          17.3483   69.2593   -4.9458 C.3     1  UNL1        0.1895
      8 O          16.4537   68.1955   -5.2792 O.3     1  UNL1       -0.3779
      9 C          17.1528   69.7054   -3.4733 C.3     1  UNL1        0.1713
     10 C          17.2484   71.2413   -3.5318 C.3     1  UNL1        0.1764
     11 O          17.5199   71.6043   -4.8966 O.3     1  UNL1       -0.3308
     12 O          15.8710   69.2952   -2.9930 O.3     1  UNL1       -0.3794
     13 H          16.7307   67.4260   -4.7626 H       1  UNL1        0.2106
     14 H          15.8517   68.3295   -3.0362 H       1  UNL1        0.2105
     15 N          17.6312   70.5549   -7.0417 N.ar    1  UNL1       -0.2551
     16 C          16.8760   70.4994   -8.1529 C.ar    1  UNL1        0.3323
     17 N          17.4415   70.5066   -9.3744 N.ar    1  UNL1       -0.2743
     18 C          18.7812   70.5599   -9.5032 C.ar    1  UNL1        0.2626
     19 C          19.5896   70.6130   -8.3414 C.ar    1  UNL1        0.0795
     20 C          18.9964   70.6088   -7.1287 C.ar    1  UNL1        0.0869
     21 O          15.6661   70.4514   -8.0526 O.2     1  UNL1       -0.2464
     22 O          19.2941   70.5617  -10.6084 O.2     1  UNL1       -0.2670
     23 H          16.8809   70.4703  -10.1658 H       1  UNL1        0.1734
     24 O          21.6158   70.4811   -2.4528 O.3     1  UNL1       -0.2703
     25 P          22.8825   71.4700   -2.3655 P.3     1  UNL1        0.2208
     26 O          23.1194   71.8442   -0.9537 O.2     1  UNL1       -0.5170
     27 O          24.1859   70.7249   -2.9486 O.3     1  UNL1       -0.4371
     28 O          22.5910   72.7950   -3.2312 O.3     1  UNL1       -0.2858
     29 C          23.7993   73.1126   -3.9233 C.3     1  UNL1        0.2704
     30 C          24.2239   74.5407   -3.5774 C.3     1  UNL1        0.1967
     31 C          23.1025   75.5048   -3.9765 C.3     1  UNL1        0.1715
     32 C          22.7532   75.2670   -5.4500 C.3     1  UNL1        0.1694
     33 C          22.4379   73.7830   -5.6535 C.3     1  UNL1        0.1761
     34 O          24.4662   74.6410   -2.1729 O.3     1  UNL1       -0.3775
     35 O          23.5415   76.8529   -3.7962 O.3     1  UNL1       -0.3794
     36 O          23.8607   75.6420   -6.2702 O.3     1  UNL1       -0.3794
     37 O          23.5843   72.9983   -5.3281 O.3     1  UNL1       -0.3258
     38 H          25.1720   74.0135   -1.9660 H       1  UNL1        0.2106
     39 H          23.7610   76.9530   -2.8613 H       1  UNL1        0.2105
     40 H          24.0264   76.5794   -6.1053 H       1  UNL1        0.2105
     41 C          22.0542   73.5407   -7.1151 C.3     1  UNL1        0.1693
     42 O          22.4638   72.2281   -7.5028 O.3     1  UNL1       -0.3794
     43 H          22.2036   72.1155   -8.4274 H       1  UNL1        0.2105
@<TRIPOS>BOND
     1    15    16   ar
     2    15    20   ar
     3    15     6    1
     4    16    17   ar
     5    16    21    2
     6    17    18   ar
     7    17    23    1
     8    18    19   ar
     9    18    22    2
    10    19    20   ar
    11     6     7    1
    12     6    11    1
    13     7     8    1
    14     7     9    1
    15     8    13    1
    16     9    10    1
    17     9    12    1
    18    10    11    1
    19    10     5    1
    20    12    14    1
    21     5     4    1
    22     4     1    1
    23     1     2    2
    24     1     3    1
    25     1    24    1
    26    24    25    1
    27    25    26    2
    28    25    27    1
    29    25    28    1
    30    28    29    1
    31    29    30    1
    32    29    37    1
    33    30    31    1
    34    30    34    1
    35    31    32    1
    36    31    35    1
    37    32    33    1
    38    32    36    1
    39    33    41    1
    40    33    37    1
    41    41    42    1
    42    34    38    1
    43    35    39    1
    44    36    40    1
    45    42    43    1
@<TRIPOS>MOLECULE
GDU
 43 45 0 0 0
SMALL
GASTEIGER

@<TRIPOS>ATOM
      1 P          23.5570   72.2130   -3.2407 P.3     1  UNL1        0.2189
      2 O          24.1186   70.8562   -3.0582 O.2     1  UNL1       -0.5170
      3 O          24.5705   73.0988   -4.1245 O.3     1  UNL1       -0.4371
      4 O          22.1386   72.1107   -3.9920 O.3     1  UNL1       -0.3112
      5 C          22.3783   72.4021   -5.3698 C.3     1  UNL1        0.1811
      6 C          19.3306   70.6356   -6.0897 C.3     1  UNL1        0.2383
      7 C          19.1069   72.0527   -6.6767 C.3     1  UNL1        0.1895
      8 O          18.2456   72.0024   -7.8164 O.3     1  UNL1       -0.3779
      9 C          20.5444   72.4648   -7.0876 C.3     1  UNL1        0.1713
     10 C          21.4516   71.5525   -6.2413 C.3     1  UNL1        0.1764
     11 O          20.5978   70.7495   -5.4080 O.3     1  UNL1       -0.3308
     12 O          20.7514   72.2326   -8.4823 O.3     1  UNL1       -0.3794
     13 H          18.1473   72.9116   -8.1320 H       1  UNL1        0.2106
     14 H          20.1160   72.7866   -8.9557 H       1  UNL1        0.2105
     15 N          18.2660   70.2921   -5.1454 N.ar    1  UNL1       -0.2551
     16 C          17.1458   69.6965   -5.5912 C.ar    1  UNL1        0.3323
     17 N          16.1535   69.3671   -4.7435 N.ar    1  UNL1       -0.2743
     18 C          16.2636   69.6395   -3.4290 C.ar    1  UNL1        0.2626
     19 C          17.4354   70.2718   -2.9460 C.ar    1  UNL1        0.0795
     20 C          18.4171   70.5875   -3.8173 C.ar    1  UNL1        0.0869
     21 O          17.0323   69.4440   -6.7742 O.2     1  UNL1       -0.2464
     22 O          15.3639   69.3460   -2.6617 O.2     1  UNL1       -0.2670
     23 H          15.3539   68.9337   -5.0820 H       1  UNL1        0.1734
     24 O          23.3548   72.9069   -1.8019 O.3     1  UNL1       -0.2703
     25 P          22.9460   71.7384   -0.7736 P.3     1  UNL1        0.2208
     26 O          21.9083   70.8814   -1.3883 O.2     1  UNL1       -0.5170
     27 O          24.2433   70.8475   -0.4308 O.3     1  UNL1       -0.4371
     28 O          22.3715   72.3907    0.5808 O.3     1  UNL1       -0.2858
     29 C          23.4865   72.9460    1.2795 C.3     1  UNL1        0.2704
     30 C          23.5396   72.3683    2.6947 C.3     1  UNL1        0.1967
     31 C          22.2299   72.6980    3.4173 C.3     1  UNL1        0.1715
     32 C          21.9942   74.2106    3.3387 C.3     1  UNL1        0.1694
     33 C          22.0564   74.6485    1.8733 C.3     1  UNL1        0.1761
     34 O          23.7070   70.9510    2.6271 O.3     1  UNL1       -0.3775
     35 O          22.3215   72.2944    4.7852 O.3     1  UNL1       -0.3794
     36 O          23.0016   74.8907    4.0888 O.3     1  UNL1       -0.3794
     37 O          23.3489   74.3637    1.3402 O.3     1  UNL1       -0.3258
     38 H          24.5379   70.7902    2.1594 H       1  UNL1        0.2106
     39 H          22.4812   71.3422    4.7860 H       1  UNL1        0.2105
     40 H          22.9287   74.5805    5.0008 H       1  UNL1        0.2105
     41 C          21.7882   76.1523    1.7804 C.3     1  UNL1        0.1693
     42 O          21.0562   76.5768    2.9315 O.3     1  UNL1       -0.3794
     43 H          20.9088   77.5277    2.8345 H       1  UNL1        0.2105
@<TRIPOS>BOND
     1    15    16   ar
     2    15    20   ar
     3    15     6    1
     4    16    17   ar
     5    16    21    2
     6    17    18   ar
     7    17    23    1
     8    18    19   ar
     9    18    22    2
    10    19    20   ar
    11     6     7    1
    12     6    11    1
    13     7     8    1
    14     7     9    1
    15     8    13    1
    16     9    10    1
    17     9    12    1
    18    10    11    1
    19    10     5    1
    20    12    14    1
    21     5     4    1
    22     4     1    1
    23     1     2    2
    24     1     3    1
    25     1    24    1
    26    24    25    1
    27    25    26    2
    28    25    27    1
    29    25    28    1
    30    28    29    1
    31    29    30    1
    32    29    37    1
    33    30    31    1
    34    30    34    1
    35    31    32    1
    36    31    35    1
    37    32    33    1
    38    32    36    1
    39    33    41    1
    40    33    37    1
    41    41    42    1
    42    34    38    1
    43    35    39    1
    44    36    40    1
    45    42    43    1
@<TRIPOS>MOLECULE
GDU
 43 45 0 0 0
SMALL
GASTEIGER

@<TRIPOS>ATOM
      1 P          15.5856   69.8647   -1.9237 P.3     1  UNL1        0.2189
      2 O          16.1036   71.0078   -1.1399 O.2     1  UNL1       -0.5170
      3 O          16.4890   68.5632   -1.6357 O.3     1  UNL1       -0.4371
      4 O          14.0637   69.5666   -1.4971 O.3     1  UNL1       -0.3112
      5 C          14.0532   69.4215   -0.0761 C.3     1  UNL1        0.1811
      6 C          13.1353   66.7982    2.2050 C.3     1  UNL1        0.2383
      7 C          11.7841   67.3890    1.7273 C.3     1  UNL1        0.1895
      8 O          10.7655   66.3862    1.7136 O.3     1  UNL1       -0.3779
      9 C          12.1233   67.8525    0.2867 C.3     1  UNL1        0.1713
     10 C          13.6572   67.9897    0.2892 C.3     1  UNL1        0.1764
     11 O          14.1152   67.6798    1.6167 O.3     1  UNL1       -0.3308
     12 O          11.7035   66.8730   -0.6652 O.3     1  UNL1       -0.3794
     13 H           9.9545   66.8167    1.4091 H       1  UNL1        0.2106
     14 H          10.7442   66.7901   -0.5772 H       1  UNL1        0.2105
     15 N          13.2260   66.8277    3.6657 N.ar    1  UNL1       -0.2551
     16 C          12.9288   65.7244    4.3747 C.ar    1  UNL1        0.3323
     17 N          13.0075   65.7238    5.7185 N.ar    1  UNL1       -0.2743
     18 C          13.3779   66.8381    6.3784 C.ar    1  UNL1        0.2626
     19 C          13.6884   68.0094    5.6450 C.ar    1  UNL1        0.0795
     20 C          13.6053   67.9812    4.2978 C.ar    1  UNL1        0.0869
     21 O          12.5936   64.7116    3.7933 O.2     1  UNL1       -0.2464
     22 O          13.4449   66.8399    7.5949 O.2     1  UNL1       -0.2670
     23 H          12.7935   64.9173    6.2139 H       1  UNL1        0.1734
     24 O          15.6445   70.2205   -3.4929 O.3     1  UNL1       -0.2703
     25 P          17.1314   69.8660   -3.9963 P.3     1  UNL1        0.2208
     26 O          18.0804   70.0091   -2.8702 O.2     1  UNL1       -0.5170
     27 O          17.1670   68.3495   -4.5379 O.3     1  UNL1       -0.4371
     28 O          17.5506   70.8684   -5.1834 O.3     1  UNL1       -0.2858
     29 C          18.9393   70.6525   -5.4379 C.3     1  UNL1        0.2704
     30 C          19.6847   71.9858   -5.3593 C.3     1  UNL1        0.1967
     31 C          19.0897   72.9511   -6.3892 C.3     1  UNL1        0.1715
     32 C          19.1084   72.2735   -7.7640 C.3     1  UNL1        0.1694
     33 C          18.4044   70.9182   -7.6605 C.3     1  UNL1        0.1761
     34 O          19.5442   72.5360   -4.0483 O.3     1  UNL1       -0.3775
     35 O          19.8687   74.1486   -6.4308 O.3     1  UNL1       -0.3794
     36 O          20.4600   72.0843   -8.1851 O.3     1  UNL1       -0.3794
     37 O          19.1000   70.0838   -6.7354 O.3     1  UNL1       -0.3258
     38 H          19.9245   71.8935   -3.4339 H       1  UNL1        0.2106
     39 H          19.8386   74.5330   -5.5456 H       1  UNL1        0.2105
     40 H          20.8643   72.9606   -8.2305 H       1  UNL1        0.2105
     41 C          18.3873   70.2480   -9.0362 C.3     1  UNL1        0.1693
     42 O          18.3860   71.2509  -10.0537 O.3     1  UNL1       -0.3794
     43 H          18.3758   70.7881  -10.9028 H       1  UNL1        0.2105
@<TRIPOS>BOND
     1    15    16   ar
     2    15    20   ar
     3    15     6    1
     4    16    17   ar
     5    16    21    2
     6    17    18   ar
     7    17    23    1
     8    18    19   ar
     9    18    22    2
    10    19    20   ar
    11     6     7    1
    12     6    11    1
    13     7     8    1
    14     7     9    1
    15     8    13    1
    16     9    10    1
    17     9    12    1
    18    10    11    1
    19    10     5    1
    20    12    14    1
    21     5     4    1
    22     4     1    1
    23     1     2    2
    24     1     3    1
    25     1    24    1
    26    24    25    1
    27    25    26    2
    28    25    27    1
    29    25    28    1
    30    28    29    1
    31    29    30    1
    32    29    37    1
    33    30    31    1
    34    30    34    1
    35    31    32    1
    36    31    35    1
    37    32    33    1
    38    32    36    1
    39    33    41    1
    40    33    37    1
    41    41    42    1
    42    34    38    1
    43    35    39    1
    44    36    40    1
    45    42    43    1
@<TRIPOS>MOLECULE
GDU
 43 45 0 0 0
SMALL
GASTEIGER

@<TRIPOS>ATOM
      1 P          21.1904   71.7066   -1.5991 P.3     1  UNL1        0.2189
      2 O          21.2709   73.0516   -0.9874 O.2     1  UNL1       -0.5170
      3 O          20.8091   70.6250   -0.4687 O.3     1  UNL1       -0.4371
      4 O          20.0627   71.7047   -2.7458 O.3     1  UNL1       -0.3112
      5 C          19.2240   70.5749   -2.4995 C.3     1  UNL1        0.1811
      6 C          17.3255   70.5286   -5.5525 C.3     1  UNL1        0.2383
      7 C          17.2080   69.0853   -4.9993 C.3     1  UNL1        0.1895
      8 O          15.9600   68.4964   -5.3719 O.3     1  UNL1       -0.3779
      9 C          17.2743   69.3181   -3.4674 C.3     1  UNL1        0.1713
     10 C          17.9434   70.6980   -3.3272 C.3     1  UNL1        0.1764
     11 O          18.2605   71.1595   -4.6518 O.3     1  UNL1       -0.3308
     12 O          15.9600   69.3327   -2.9069 O.3     1  UNL1       -0.3794
     13 H          15.9503   67.6039   -4.9988 H       1  UNL1        0.2106
     14 H          15.5728   68.4635   -3.0783 H       1  UNL1        0.2105
     15 N          17.8517   70.5186   -6.9184 N.ar    1  UNL1       -0.2551
     16 C          17.0054   70.4167   -7.9584 C.ar    1  UNL1        0.3323
     17 N          17.4631   70.4087   -9.2242 N.ar    1  UNL1       -0.2743
     18 C          18.7847   70.4932   -9.4700 C.ar    1  UNL1        0.2626
     19 C          19.6884   70.5952   -8.3841 C.ar    1  UNL1        0.0795
     20 C          19.2023   70.6052   -7.1247 C.ar    1  UNL1        0.0869
     21 O          15.8105   70.3402   -7.7524 O.2     1  UNL1       -0.2464
     22 O          19.2003   70.4812  -10.6152 O.2     1  UNL1       -0.2670
     23 H          16.8376   70.3388   -9.9629 H       1  UNL1        0.1734
     24 O          22.6152   71.3258   -2.2451 O.3     1  UNL1       -0.2703
     25 P          22.7430   72.1580   -3.6167 P.3     1  UNL1        0.2208
     26 O          24.1549   72.1659   -4.0589 O.2     1  UNL1       -0.5170
     27 O          21.8301   71.4678   -4.7499 O.3     1  UNL1       -0.4371
     28 O          22.2464   73.6699   -3.3766 O.3     1  UNL1       -0.2858
     29 C          21.8425   74.1808   -4.6476 C.3     1  UNL1        0.2704
     30 C          22.6539   75.4358   -4.9731 C.3     1  UNL1        0.1967
     31 C          22.4238   76.4773   -3.8737 C.3     1  UNL1        0.1715
     32 C          20.9152   76.6986   -3.7161 C.3     1  UNL1        0.1694
     33 C          20.2355   75.3469   -3.4838 C.3     1  UNL1        0.1761
     34 O          24.0422   75.1048   -5.0379 O.3     1  UNL1       -0.3775
     35 O          23.0565   77.7064   -4.2366 O.3     1  UNL1       -0.3794
     36 O          20.3947   77.3032   -4.9008 O.3     1  UNL1       -0.3794
     37 O          20.4532   74.4987   -4.6104 O.3     1  UNL1       -0.3258
     38 H          24.1389   74.4430   -5.7362 H       1  UNL1        0.2106
     39 H          23.9981   77.5177   -4.3362 H       1  UNL1        0.2105
     40 H          20.8541   78.1460   -5.0099 H       1  UNL1        0.2105
     41 C          18.7324   75.5603   -3.2910 C.3     1  UNL1        0.1693
     42 O          18.0901   75.5982   -4.5665 O.3     1  UNL1       -0.3794
     43 H          17.1468   75.7330   -4.4010 H       1  UNL1        0.2105
@<TRIPOS>BOND
     1    15    16   ar
     2    15    20   ar
     3    15     6    1
     4    16    17   ar
     5    16    21    2
     6    17    18   ar
     7    17    23    1
     8    18    19   ar
     9    18    22    2
    10    19    20   ar
    11     6     7    1
    12     6    11    1
    13     7     8    1
    14     7     9    1
    15     8    13    1
    16     9    10    1
    17     9    12    1
    18    10    11    1
    19    10     5    1
    20    12    14    1
    21     5     4    1
    22     4     1    1
    23     1     2    2
    24     1     3    1
    25     1    24    1
    26    24    25    1
    27    25    26    2
    28    25    27    1
    29    25    28    1
    30    28    29    1
    31    29    30    1
    32    29    37    1
    33    30    31    1
    34    30    34    1
    35    31    32    1
    36    31    35    1
    37    32    33    1
    38    32    36    1
    39    33    41    1
    40    33    37    1
    41    41    42    1
    42    34    38    1
    43    35    39    1
    44    36    40    1
    45    42    43    1
@<TRIPOS>MOLECULE
GDU
 43 45 0 0 0
SMALL
GASTEIGER

@<TRIPOS>ATOM
      1 P          22.0612   71.3777   -0.9648 P.3     1  UNL1        0.2189
      2 O          22.3989   70.5860    0.2389 O.2     1  UNL1       -0.5170
      3 O          23.1665   71.1163   -2.1063 O.3     1  UNL1       -0.4371
      4 O          20.6133   70.9368   -1.5088 O.3     1  UNL1       -0.3112
      5 C          20.3363   71.7475   -2.6518 C.3     1  UNL1        0.1811
      6 C          17.9499   70.7598   -5.1532 C.3     1  UNL1        0.2383
      7 C          18.3134   69.4429   -4.4207 C.3     1  UNL1        0.1895
      8 O          17.2075   68.5373   -4.4209 O.3     1  UNL1       -0.3779
      9 C          18.6182   69.9434   -2.9848 C.3     1  UNL1        0.1713
     10 C          18.9296   71.4403   -3.1684 C.3     1  UNL1        0.1764
     11 O          18.8525   71.7268   -4.5755 O.3     1  UNL1       -0.3308
     12 O          17.4798   69.7622   -2.1404 O.3     1  UNL1       -0.3794
     13 H          17.4980   67.7423   -3.9526 H       1  UNL1        0.2106
     14 H          17.2998   68.8127   -2.1128 H       1  UNL1        0.2105
     15 N          18.1825   70.6329   -6.5929 N.ar    1  UNL1       -0.2551
     16 C          17.1357   70.5433   -7.4321 C.ar    1  UNL1        0.3323
     17 N          17.3220   70.4294   -8.7604 N.ar    1  UNL1       -0.2743
     18 C          18.5676   70.3932   -9.2716 C.ar    1  UNL1        0.2626
     19 C          19.6799   70.4808   -8.3991 C.ar    1  UNL1        0.0795
     20 C          19.4646   70.5987   -7.0716 C.ar    1  UNL1        0.0869
     21 O          16.0062   70.5749   -6.9857 O.2     1  UNL1       -0.2464
     22 O          18.7373   70.2853  -10.4733 O.2     1  UNL1       -0.2670
     23 H          16.5548   70.3702   -9.3518 H       1  UNL1        0.1734
     24 O          22.0407   72.9429   -0.5880 O.3     1  UNL1       -0.2703
     25 P          21.4021   73.0601    0.8846 P.3     1  UNL1        0.2208
     26 O          20.5986   74.2991    0.9764 O.2     1  UNL1       -0.5170
     27 O          20.4565   71.7861    1.1621 O.3     1  UNL1       -0.4371
     28 O          22.5804   73.1010    1.9800 O.3     1  UNL1       -0.2858
     29 C          22.7528   74.4688    2.3530 C.3     1  UNL1        0.2704
     30 C          24.1873   74.9028    2.0477 C.3     1  UNL1        0.1967
     31 C          25.1558   74.0044    2.8232 C.3     1  UNL1        0.1715
     32 C          24.7680   74.0308    4.3059 C.3     1  UNL1        0.1694
     33 C          23.2888   73.6606    4.4402 C.3     1  UNL1        0.1761
     34 O          24.4365   74.7802    0.6462 O.3     1  UNL1       -0.3775
     35 O          26.4911   74.4887    2.6651 O.3     1  UNL1       -0.3794
     36 O          24.9879   75.3394    4.8342 O.3     1  UNL1       -0.3794
     37 O          22.4885   74.6166    3.7462 O.3     1  UNL1       -0.3258
     38 H          23.8012   75.3555    0.1986 H       1  UNL1        0.2106
     39 H          26.6870   74.4658    1.7199 H       1  UNL1        0.2105
     40 H          25.9281   75.5316    4.7235 H       1  UNL1        0.2105
     41 C          22.8996   73.6505    5.9202 C.3     1  UNL1        0.1693
     42 O          21.5055   73.3637    6.0433 O.3     1  UNL1       -0.3794
     43 H          21.3017   73.3659    6.9887 H       1  UNL1        0.2105
@<TRIPOS>BOND
     1    15    16   ar
     2    15    20   ar
     3    15     6    1
     4    16    17   ar
     5    16    21    2
     6    17    18   ar
     7    17    23    1
     8    18    19   ar
     9    18    22    2
    10    19    20   ar
    11     6     7    1
    12     6    11    1
    13     7     8    1
    14     7     9    1
    15     8    13    1
    16     9    10    1
    17     9    12    1
    18    10    11    1
    19    10     5    1
    20    12    14    1
    21     5     4    1
    22     4     1    1
    23     1     2    2
    24     1     3    1
    25     1    24    1
    26    24    25    1
    27    25    26    2
    28    25    27    1
    29    25    28    1
    30    28    29    1
    31    29    30    1
    32    29    37    1
    33    30    31    1
    34    30    34    1
    35    31    32    1
    36    31    35    1
    37    32    33    1
    38    32    36    1
    39    33    41    1
    40    33    37    1
    41    41    42    1
    42    34    38    1
    43    35    39    1
    44    36    40    1
    45    42    43    1
@<TRIPOS>MOLECULE
GDU
 43 45 0 0 0
SMALL
GASTEIGER

@<TRIPOS>ATOM
      1 P          23.5808   72.2196   -3.2726 P.3     1  UNL1        0.2189
      2 O          24.1353   70.8794   -2.9790 O.2     1  UNL1       -0.5170
      3 O          24.5935   73.0201   -4.2352 O.3     1  UNL1       -0.4371
      4 O          22.1566   72.0633   -4.0033 O.3     1  UNL1       -0.3112
      5 C          22.3585   72.3935   -5.3783 C.3     1  UNL1        0.1811
      6 C          19.2926   70.6513   -6.0801 C.3     1  UNL1        0.2383
      7 C          19.0678   72.0774   -6.6446 C.3     1  UNL1        0.1895
      8 O          18.1907   72.0467   -7.7729 O.3     1  UNL1       -0.3779
      9 C          20.5016   72.4883   -7.0696 C.3     1  UNL1        0.1713
     10 C          21.4158   71.5602   -6.2484 C.3     1  UNL1        0.1764
     11 O          20.5696   70.7499   -5.4145 O.3     1  UNL1       -0.3308
     12 O          20.6882   72.2743   -8.4701 O.3     1  UNL1       -0.3794
     13 H          18.0926   72.9606   -8.0748 H       1  UNL1        0.2106
     14 H          20.0492   72.8377   -8.9271 H       1  UNL1        0.2105
     15 N          18.2395   70.2999   -5.1261 N.ar    1  UNL1       -0.2551
     16 C          17.1237   69.6875   -5.5601 C.ar    1  UNL1        0.3323
     17 N          16.1419   69.3505   -4.7032 N.ar    1  UNL1       -0.2743
     18 C          16.2581   69.6321   -3.3912 C.ar    1  UNL1        0.2626
     19 C          17.4253   70.2820   -2.9205 C.ar    1  UNL1        0.0795
     20 C          18.3965   70.6050   -3.8008 C.ar    1  UNL1        0.0869
     21 O          17.0048   69.4267   -6.7408 O.2     1  UNL1       -0.2464
     22 O          15.3679   69.3317   -2.6155 O.2     1  UNL1       -0.2670
     23 H          15.3453   68.9052   -5.0333 H       1  UNL1        0.1734
     24 O          23.3931   73.0347   -1.8968 O.3     1  UNL1       -0.2703
     25 P          22.9170   71.9719   -0.7860 P.3     1  UNL1        0.2208
     26 O          21.7951   71.1691   -1.3206 O.2     1  UNL1       -0.5170
     27 O          24.1446   70.9975   -0.4150 O.3     1  UNL1       -0.4371
     28 O          22.4363   72.7544    0.5357 O.3     1  UNL1       -0.2858
     29 C          21.2992   72.0541    1.0419 C.3     1  UNL1        0.2704
     30 C          20.0871   72.9870    1.0461 C.3     1  UNL1        0.1967
     31 C          20.4011   74.2086    1.9153 C.3     1  UNL1        0.1715
     32 C          20.8556   73.7234    3.2965 C.3     1  UNL1        0.1694
     33 C          22.0116   72.7355    3.1215 C.3     1  UNL1        0.1761
     34 O          19.8027   73.4081   -0.2892 O.3     1  UNL1       -0.3775
     35 O          19.2299   75.0165    2.0490 O.3     1  UNL1       -0.3794
     36 O          19.7664   73.0794    3.9589 O.3     1  UNL1       -0.3794
     37 O          21.5704   71.6069    2.3682 O.3     1  UNL1       -0.3258
     38 H          19.6185   72.6085   -0.8007 H       1  UNL1        0.2106
     39 H          18.9741   75.2881    1.1584 H       1  UNL1        0.2105
     40 H          19.0619   73.7353    4.0419 H       1  UNL1        0.2105
     41 C          22.4958   72.2709    4.4969 C.3     1  UNL1        0.1693
     42 O          22.0164   73.1699    5.4984 O.3     1  UNL1       -0.3794
     43 H          22.3420   72.8419    6.3479 H       1  UNL1        0.2105
@<TRIPOS>BOND
     1    15    16   ar
     2    15    20   ar
     3    15     6    1
     4    16    17   ar
     5    16    21    2
     6    17    18   ar
     7    17    23    1
     8    18    19   ar
     9    18    22    2
    10    19    20   ar
    11     6     7    1
    12     6    11    1
    13     7     8    1
    14     7     9    1
    15     8    13    1
    16     9    10    1
    17     9    12    1
    18    10    11    1
    19    10     5    1
    20    12    14    1
    21     5     4    1
    22     4     1    1
    23     1     2    2
    24     1     3    1
    25     1    24    1
    26    24    25    1
    27    25    26    2
    28    25    27    1
    29    25    28    1
    30    28    29    1
    31    29    30    1
    32    29    37    1
    33    30    31    1
    34    30    34    1
    35    31    32    1
    36    31    35    1
    37    32    33    1
    38    32    36    1
    39    33    41    1
    40    33    37    1
    41    41    42    1
    42    34    38    1
    43    35    39    1
    44    36    40    1
    45    42    43    1
@<TRIPOS>MOLECULE
GDU
 43 45 0 0 0
SMALL
GASTEIGER

@<TRIPOS>ATOM
      1 P          23.3398   71.9574   -3.2727 P.3     1  UNL1        0.2189
      2 O          23.1443   72.7445   -2.0351 O.2     1  UNL1       -0.5170
      3 O          24.2173   70.6481   -2.9429 O.3     1  UNL1       -0.4371
      4 O          21.9094   71.5114   -3.8573 O.3     1  UNL1       -0.3112
      5 C          21.0934   71.1673   -2.7365 C.3     1  UNL1        0.1811
      6 C          18.3837   70.7642   -5.0650 C.3     1  UNL1        0.2383
      7 C          18.5048   69.3857   -4.3666 C.3     1  UNL1        0.1895
      8 O          17.2325   68.7384   -4.2918 O.3     1  UNL1       -0.3779
      9 C          19.0085   69.7804   -2.9539 C.3     1  UNL1        0.1713
     10 C          19.6213   71.1792   -3.1523 C.3     1  UNL1        0.1764
     11 O          19.5109   71.5036   -4.5490 O.3     1  UNL1       -0.3308
     12 O          17.9187   69.8306   -2.0309 O.3     1  UNL1       -0.3794
     13 H          17.3767   67.8904   -3.8492 H       1  UNL1        0.2106
     14 H          17.5409   68.9414   -1.9950 H       1  UNL1        0.2105
     15 N          18.4836   70.6192   -6.5182 N.ar    1  UNL1       -0.2551
     16 C          17.3698   70.4305   -7.2477 C.ar    1  UNL1        0.3323
     17 N          17.4338   70.2977   -8.5857 N.ar    1  UNL1       -0.2743
     18 C          18.6225   70.3422   -9.2174 C.ar    1  UNL1        0.2626
     19 C          19.8047   70.5346   -8.4612 C.ar    1  UNL1        0.0795
     20 C          19.7116   70.6692   -7.1212 C.ar    1  UNL1        0.0869
     21 O          16.2903   70.3886   -6.6920 O.2     1  UNL1       -0.2464
     22 O          18.6819   70.2174  -10.4279 O.2     1  UNL1       -0.2670
     23 H          16.6194   70.1665   -9.0969 H       1  UNL1        0.1734
     24 O          24.1100   72.8569   -4.3636 O.3     1  UNL1       -0.2703
     25 P          23.5489   74.3576   -4.2110 P.3     1  UNL1        0.2208
     26 O          22.1044   74.3140   -3.8939 O.2     1  UNL1       -0.5170
     27 O          24.3364   75.1064   -3.0222 O.3     1  UNL1       -0.4371
     28 O          23.7729   75.1581   -5.5890 O.3     1  UNL1       -0.2858
     29 C          22.5326   75.1222   -6.2962 C.3     1  UNL1        0.2704
     30 C          22.7105   74.3371   -7.5967 C.3     1  UNL1        0.1967
     31 C          23.7955   75.0115   -8.4418 C.3     1  UNL1        0.1715
     32 C          23.4317   76.4902   -8.6171 C.3     1  UNL1        0.1694
     33 C          23.2009   77.1129   -7.2380 C.3     1  UNL1        0.1761
     34 O          23.1002   72.9958   -7.2965 O.3     1  UNL1       -0.3775
     35 O          23.8708   74.3782   -9.7207 O.3     1  UNL1       -0.3794
     36 O          22.2430   76.6000   -9.4013 O.3     1  UNL1       -0.3794
     37 O          22.1151   76.4538   -6.5879 O.3     1  UNL1       -0.3258
     38 H          22.3933   72.6135   -6.7588 H       1  UNL1        0.2106
     39 H          24.0892   73.4512   -9.5616 H       1  UNL1        0.2105
     40 H          22.4326   76.1911  -10.2558 H       1  UNL1        0.2105
     41 C          22.8704   78.5984   -7.3998 C.3     1  UNL1        0.1693
     42 O          22.4455   78.8476   -8.7409 O.3     1  UNL1       -0.3794
     43 H          22.2467   79.7921   -8.8006 H       1  UNL1        0.2105
@<TRIPOS>BOND
     1    15    16   ar
     2    15    20   ar
     3    15     6    1
     4    16    17   ar
     5    16    21    2
     6    17    18   ar
     7    17    23    1
     8    18    19   ar
     9    18    22    2
    10    19    20   ar
    11     6     7    1
    12     6    11    1
    13     7     8    1
    14     7     9    1
    15     8    13    1
    16     9    10    1
    17     9    12    1
    18    10    11    1
    19    10     5    1
    20    12    14    1
    21     5     4    1
    22     4     1    1
    23     1     2    2
    24     1     3    1
    25     1    24    1
    26    24    25    1
    27    25    26    2
    28    25    27    1
    29    25    28    1
    30    28    29    1
    31    29    30    1
    32    29    37    1
    33    30    31    1
    34    30    34    1
    35    31    32    1
    36    31    35    1
    37    32    33    1
    38    32    36    1
    39    33    41    1
    40    33    37    1
    41    41    42    1
    42    34    38    1
    43    35    39    1
    44    36    40    1
    45    42    43    1
@<TRIPOS>MOLECULE
GDU
 43 45 0 0 0
SMALL
GASTEIGER

@<TRIPOS>ATOM
      1 P          22.3884   71.3544   -3.1317 P.3     1  UNL1        0.2189
      2 O          23.6936   71.6257   -3.7738 O.2     1  UNL1       -0.5170
      3 O          21.8126   69.9466   -3.6605 O.3     1  UNL1       -0.4371
      4 O          22.5777   71.2913   -1.5358 O.3     1  UNL1       -0.3112
      5 C          21.2821   71.0773   -0.9735 C.3     1  UNL1        0.1811
      6 C          22.9151   71.9178    2.1175 C.3     1  UNL1        0.2383
      7 C          22.3737   73.2687    1.5836 C.3     1  UNL1        0.1895
      8 O          22.0451   74.1481    2.6614 O.3     1  UNL1       -0.3779
      9 C          21.0975   72.8283    0.8202 C.3     1  UNL1        0.1713
     10 C          21.3298   71.3331    0.5339 C.3     1  UNL1        0.1764
     11 O          22.6301   70.9935    1.0460 O.3     1  UNL1       -0.3308
     12 O          19.9387   73.0143    1.6354 O.3     1  UNL1       -0.3794
     13 H          21.7163   74.9663    2.2634 H       1  UNL1        0.2106
     14 H          19.8811   73.9598    1.8288 H       1  UNL1        0.2105
     15 N          24.3564   71.9971    2.3605 N.ar    1  UNL1       -0.2551
     16 C          25.1119   70.8894    2.2579 C.ar    1  UNL1        0.3323
     17 N          26.4399   70.9358    2.4728 N.ar    1  UNL1       -0.2743
     18 C          27.0347   72.0975    2.8056 C.ar    1  UNL1        0.2626
     19 C          26.2505   73.2712    2.9230 C.ar    1  UNL1        0.0795
     20 C          24.9215   73.1975    2.6979 C.ar    1  UNL1        0.0869
     21 O          24.5896   69.8343    1.9579 O.2     1  UNL1       -0.2464
     22 O          28.2359   72.1396    3.0050 O.2     1  UNL1       -0.2670
     23 H          26.9705   70.1275    2.3901 H       1  UNL1        0.1734
     24 O          21.3533   72.5300   -3.5046 O.3     1  UNL1       -0.2703
     25 P          21.1717   72.5022   -5.1034 P.3     1  UNL1        0.2208
     26 O          20.7662   73.8440   -5.5770 O.2     1  UNL1       -0.5170
     27 O          22.5664   72.0884   -5.7946 O.3     1  UNL1       -0.4371
     28 O          20.0396   71.4282   -5.4973 O.3     1  UNL1       -0.2858
     29 C          18.9794   72.1532   -6.1219 C.3     1  UNL1        0.2704
     30 C          17.6378   71.6729   -5.5662 C.3     1  UNL1        0.1967
     31 C          17.4966   70.1711   -5.8328 C.3     1  UNL1        0.1715
     32 C          17.7115   69.9166   -7.3290 C.3     1  UNL1        0.1694
     33 C          19.0495   70.5289   -7.7508 C.3     1  UNL1        0.1761
     34 O          17.5872   71.9176   -4.1595 O.3     1  UNL1       -0.3775
     35 O          16.1892   69.7367   -5.4524 O.3     1  UNL1       -0.3794
     36 O          16.6503   70.5167   -8.0731 O.3     1  UNL1       -0.3794
     37 O          19.0246   71.9384   -7.5306 O.3     1  UNL1       -0.3258
     38 H          17.6869   72.8717   -4.0386 H       1  UNL1        0.2106
     39 H          16.0943   69.9265   -4.5105 H       1  UNL1        0.2105
     40 H          15.8296   70.1060   -7.7710 H       1  UNL1        0.2105
     41 C          19.2901   70.2506   -9.2363 C.3     1  UNL1        0.1693
     42 O          18.5346   71.1745  -10.0216 O.3     1  UNL1       -0.3794
     43 H          18.7142   70.9662  -10.9487 H       1  UNL1        0.2105
@<TRIPOS>BOND
     1    15    16   ar
     2    15    20   ar
     3    15     6    1
     4    16    17   ar
     5    16    21    2
     6    17    18   ar
     7    17    23    1
     8    18    19   ar
     9    18    22    2
    10    19    20   ar
    11     6     7    1
    12     6    11    1
    13     7     8    1
    14     7     9    1
    15     8    13    1
    16     9    10    1
    17     9    12    1
    18    10    11    1
    19    10     5    1
    20    12    14    1
    21     5     4    1
    22     4     1    1
    23     1     2    2
    24     1     3    1
    25     1    24    1
    26    24    25    1
    27    25    26    2
    28    25    27    1
    29    25    28    1
    30    28    29    1
    31    29    30    1
    32    29    37    1
    33    30    31    1
    34    30    34    1
    35    31    32    1
    36    31    35    1
    37    32    33    1
    38    32    36    1
    39    33    41    1
    40    33    37    1
    41    41    42    1
    42    34    38    1
    43    35    39    1
    44    36    40    1
    45    42    43    1
@<TRIPOS>MOLECULE
GDU
 43 45 0 0 0
SMALL
GASTEIGER

@<TRIPOS>ATOM
      1 P          23.5619   72.1612   -3.4006 P.3     1  UNL1        0.2189
      2 O          24.3206   72.8851   -4.4446 O.2     1  UNL1       -0.5170
      3 O          24.3380   70.8033   -3.0177 O.3     1  UNL1       -0.4371
      4 O          23.4272   73.0891   -2.0939 O.3     1  UNL1       -0.3112
      5 C          22.3536   72.5562   -1.3168 C.3     1  UNL1        0.1811
      6 C          24.2915   71.7617    1.6056 C.3     1  UNL1        0.2383
      7 C          22.8677   72.0463    2.1484 C.3     1  UNL1        0.1895
      8 O          22.6052   71.2730    3.3216 O.3     1  UNL1       -0.3779
      9 C          21.9722   71.5843    0.9696 C.3     1  UNL1        0.1713
     10 C          22.9130   71.6142   -0.2492 C.3     1  UNL1        0.1764
     11 O          24.1906   72.0939    0.2045 O.3     1  UNL1       -0.3308
     12 O          21.4846   70.2612    1.2013 O.3     1  UNL1       -0.3794
     13 H          21.7083   71.4958    3.6076 H       1  UNL1        0.2106
     14 H          20.9526   70.2960    2.0079 H       1  UNL1        0.2105
     15 N          25.2788   72.6154    2.2683 N.ar    1  UNL1       -0.2551
     16 C          26.4338   72.0836    2.7059 C.ar    1  UNL1        0.3323
     17 N          27.3597   72.8473    3.3152 N.ar    1  UNL1       -0.2743
     18 C          27.1382   74.1621    3.5060 C.ar    1  UNL1        0.2626
     19 C          25.9237   74.7349    3.0554 C.ar    1  UNL1        0.0795
     20 C          25.0140   73.9471    2.4436 C.ar    1  UNL1        0.0869
     21 O          26.6479   70.8992    2.5405 O.2     1  UNL1       -0.2464
     22 O          27.9737   74.8532    4.0617 O.2     1  UNL1       -0.2670
     23 H          28.1895   72.4476    3.6209 H       1  UNL1        0.1734
     24 O          22.0949   71.8004   -3.9577 O.3     1  UNL1       -0.2703
     25 P          21.8461   72.7258   -5.2507 P.3     1  UNL1        0.2208
     26 O          21.9787   74.1496   -4.8709 O.2     1  UNL1       -0.5170
     27 O          22.9348   72.3693   -6.3829 O.3     1  UNL1       -0.4371
     28 O          20.3674   72.4584   -5.8268 O.3     1  UNL1       -0.2858
     29 C          20.3492   71.1171   -6.3170 C.3     1  UNL1        0.2704
     30 C          19.8293   71.1078   -7.7554 C.3     1  UNL1        0.1967
     31 C          18.4219   71.7120   -7.7808 C.3     1  UNL1        0.1715
     32 C          17.5491   70.9639   -6.7668 C.3     1  UNL1        0.1694
     33 C          18.2416   70.9860   -5.4019 C.3     1  UNL1        0.1761
     34 O          20.6990   71.8815   -8.5837 O.3     1  UNL1       -0.3775
     35 O          17.8648   71.5764   -9.0899 O.3     1  UNL1       -0.3794
     36 O          17.3699   69.6132   -7.1953 O.3     1  UNL1       -0.3794
     37 O          19.5017   70.3224   -5.4907 O.3     1  UNL1       -0.3258
     38 H          21.5725   71.4702   -8.5319 H       1  UNL1        0.2106
     39 H          18.4505   72.0502   -9.6938 H       1  UNL1        0.2105
     40 H          16.9372   69.6485   -8.0583 H       1  UNL1        0.2105
     41 C          17.3619   70.2710   -4.3739 C.3     1  UNL1        0.1693
     42 O          18.1874   69.5208   -3.4814 O.3     1  UNL1       -0.3794
     43 H          17.5961   69.0873   -2.8508 H       1  UNL1        0.2105
@<TRIPOS>BOND
     1    15    16   ar
     2    15    20   ar
     3    15     6    1
     4    16    17   ar
     5    16    21    2
     6    17    18   ar
     7    17    23    1
     8    18    19   ar
     9    18    22    2
    10    19    20   ar
    11     6     7    1
    12     6    11    1
    13     7     8    1
    14     7     9    1
    15     8    13    1
    16     9    10    1
    17     9    12    1
    18    10    11    1
    19    10     5    1
    20    12    14    1
    21     5     4    1
    22     4     1    1
    23     1     2    2
    24     1     3    1
    25     1    24    1
    26    24    25    1
    27    25    26    2
    28    25    27    1
    29    25    28    1
    30    28    29    1
    31    29    30    1
    32    29    37    1
    33    30    31    1
    34    30    34    1
    35    31    32    1
    36    31    35    1
    37    32    33    1
    38    32    36    1
    39    33    41    1
    40    33    37    1
    41    41    42    1
    42    34    38    1
    43    35    39    1
    44    36    40    1
    45    42    43    1
@<TRIPOS>MOLECULE
GDU
 43 45 0 0 0
SMALL
GASTEIGER

@<TRIPOS>ATOM
      1 P          20.0085   71.5973   -1.6145 P.3     1  UNL1        0.2189
      2 O          20.5524   70.5356   -0.7390 O.2     1  UNL1       -0.5170
      3 O          21.2147   72.3036   -2.4141 O.3     1  UNL1       -0.4371
      4 O          18.9750   70.9511   -2.6639 O.3     1  UNL1       -0.3112
      5 C          17.7969   71.7584   -2.6349 C.3     1  UNL1        0.1811
      6 C          16.7193   70.4831   -5.8192 C.3     1  UNL1        0.2383
      7 C          17.1020   69.2214   -5.0040 C.3     1  UNL1        0.1895
      8 O          16.3061   68.1005   -5.3956 O.3     1  UNL1       -0.3779
      9 C          16.7674   69.6576   -3.5539 C.3     1  UNL1        0.1713
     10 C          16.7671   71.1963   -3.6166 C.3     1  UNL1        0.1764
     11 O          17.1167   71.5727   -4.9599 O.3     1  UNL1       -0.3308
     12 O          15.4824   69.1658   -3.1681 O.3     1  UNL1       -0.3794
     13 H          16.5928   67.3520   -4.8539 H       1  UNL1        0.2106
     14 H          15.5292   68.2008   -3.2052 H       1  UNL1        0.2105
     15 N          17.4574   70.5271   -7.0826 N.ar    1  UNL1       -0.2551
     16 C          16.7852   70.5650   -8.2466 C.ar    1  UNL1        0.3323
     17 N          17.4398   70.6094   -9.4220 N.ar    1  UNL1       -0.2743
     18 C          18.7864   70.6065   -9.4509 C.ar    1  UNL1        0.2626
     19 C          19.5077   70.5610   -8.2328 C.ar    1  UNL1        0.0795
     20 C          18.8263   70.5213   -7.0680 C.ar    1  UNL1        0.0869
     21 O          15.5703   70.5687   -8.2364 O.2     1  UNL1       -0.2464
     22 O          19.3797   70.6419  -10.5145 O.2     1  UNL1       -0.2670
     23 H          16.9385   70.6408  -10.2524 H       1  UNL1        0.1734
     24 O          19.2470   72.6949   -0.7159 O.3     1  UNL1       -0.2703
     25 P          20.3830   73.5570    0.0300 P.3     1  UNL1        0.2208
     26 O          21.1355   74.3491   -0.9678 O.2     1  UNL1       -0.5170
     27 O          19.6914   74.5507    1.0923 O.3     1  UNL1       -0.4371
     28 O          21.3904   72.5665    0.8007 O.3     1  UNL1       -0.2858
     29 C          22.6862   73.1642    0.7416 C.3     1  UNL1        0.2704
     30 C          23.7337   72.0831    0.4705 C.3     1  UNL1        0.1967
     31 C          23.6711   71.0369    1.5877 C.3     1  UNL1        0.1715
     32 C          23.8058   71.7520    2.9368 C.3     1  UNL1        0.1694
     33 C          22.7507   72.8577    3.0216 C.3     1  UNL1        0.1761
     34 O          23.4641   71.4599   -0.7865 O.3     1  UNL1       -0.3775
     35 O          24.7391   70.1007    1.4290 O.3     1  UNL1       -0.3794
     36 O          25.1111   72.3210    3.0478 O.3     1  UNL1       -0.3794
     37 O          22.9667   73.8100    1.9812 O.3     1  UNL1       -0.3258
     38 H          23.5068   72.1550   -1.4573 H       1  UNL1        0.2106
     39 H          24.6212   69.6852    0.5655 H       1  UNL1        0.2105
     40 H          25.7409   71.5912    2.9834 H       1  UNL1        0.2105
     41 C          22.8541   73.5559    4.3794 C.3     1  UNL1        0.1693
     42 O          22.1298   72.8059    5.3562 O.3     1  UNL1       -0.3794
     43 H          22.2205   73.2779    6.1953 H       1  UNL1        0.2105
@<TRIPOS>BOND
     1    15    16   ar
     2    15    20   ar
     3    15     6    1
     4    16    17   ar
     5    16    21    2
     6    17    18   ar
     7    17    23    1
     8    18    19   ar
     9    18    22    2
    10    19    20   ar
    11     6     7    1
    12     6    11    1
    13     7     8    1
    14     7     9    1
    15     8    13    1
    16     9    10    1
    17     9    12    1
    18    10    11    1
    19    10     5    1
    20    12    14    1
    21     5     4    1
    22     4     1    1
    23     1     2    2
    24     1     3    1
    25     1    24    1
    26    24    25    1
    27    25    26    2
    28    25    27    1
    29    25    28    1
    30    28    29    1
    31    29    30    1
    32    29    37    1
    33    30    31    1
    34    30    34    1
    35    31    32    1
    36    31    35    1
    37    32    33    1
    38    32    36    1
    39    33    41    1
    40    33    37    1
    41    41    42    1
    42    34    38    1
    43    35    39    1
    44    36    40    1
    45    42    43    1
@<TRIPOS>MOLECULE
GDU
 43 45 0 0 0
SMALL
GASTEIGER

@<TRIPOS>ATOM
      1 P          15.5200   70.0486   -1.9042 P.3     1  UNL1        0.2189
      2 O          15.9675   71.1045   -0.9692 O.2     1  UNL1       -0.5170
      3 O          16.5274   68.7951   -1.8200 O.3     1  UNL1       -0.4371
      4 O          14.0363   69.5722   -1.5061 O.3     1  UNL1       -0.3112
      5 C          14.0156   69.4272   -0.0851 C.3     1  UNL1        0.1811
      6 C          13.1192   66.7924    2.1911 C.3     1  UNL1        0.2383
      7 C          11.7632   67.3758    1.7179 C.3     1  UNL1        0.1895
      8 O          10.7510   66.3667    1.7038 O.3     1  UNL1       -0.3779
      9 C          12.0964   67.8452    0.2778 C.3     1  UNL1        0.1713
     10 C          13.6294   67.9921    0.2773 C.3     1  UNL1        0.1764
     11 O          14.0922   67.6816    1.6030 O.3     1  UNL1       -0.3308
     12 O          11.6806   66.8656   -0.6757 O.3     1  UNL1       -0.3794
     13 H           9.9366   66.7928    1.4021 H       1  UNL1        0.2106
     14 H          10.7222   66.7764   -0.5860 H       1  UNL1        0.2105
     15 N          13.2129   66.8186    3.6517 N.ar    1  UNL1       -0.2551
     16 C          12.8901   65.7224    4.3605 C.ar    1  UNL1        0.3323
     17 N          12.9709   65.7190    5.7041 N.ar    1  UNL1       -0.2743
     18 C          13.3693   66.8234    6.3641 C.ar    1  UNL1        0.2626
     19 C          13.7070   67.9874    5.6310 C.ar    1  UNL1        0.0795
     20 C          13.6211   67.9622    4.2840 C.ar    1  UNL1        0.0869
     21 O          12.5295   64.7184    3.7790 O.2     1  UNL1       -0.2464
     22 O          13.4382   66.8229    7.5806 O.2     1  UNL1       -0.2670
     23 H          12.7381   64.9175    6.1993 H       1  UNL1        0.1734
     24 O          15.5135   70.6301   -3.4056 O.3     1  UNL1       -0.2703
     25 P          16.9837   71.2233   -3.6826 P.3     1  UNL1        0.2208
     26 O          16.9264   72.7017   -3.6859 O.2     1  UNL1       -0.5170
     27 O          17.9886   70.7284   -2.5253 O.3     1  UNL1       -0.4371
     28 O          17.5135   70.7026   -5.1103 O.3     1  UNL1       -0.2858
     29 C          17.6919   71.8565   -5.9327 C.3     1  UNL1        0.2704
     30 C          16.5563   71.9342   -6.9543 C.3     1  UNL1        0.1967
     31 C          16.5612   70.6591   -7.8031 C.3     1  UNL1        0.1715
     32 C          17.9616   70.4715   -8.3975 C.3     1  UNL1        0.1694
     33 C          18.9912   70.5027   -7.2652 C.3     1  UNL1        0.1761
     34 O          15.3064   72.0523   -6.2725 O.3     1  UNL1       -0.3775
     35 O          15.6023   70.7796   -8.8560 O.3     1  UNL1       -0.3794
     36 O          18.2320   71.5235   -9.3249 O.3     1  UNL1       -0.3794
     37 O          18.9448   71.7680   -6.6073 O.3     1  UNL1       -0.3258
     38 H          15.3509   72.8625   -5.7466 H       1  UNL1        0.2106
     39 H          14.7417   70.9076   -8.4374 H       1  UNL1        0.2105
     40 H          17.5579   71.4687  -10.0147 H       1  UNL1        0.2105
     41 C          20.3904   70.2819   -7.8443 C.3     1  UNL1        0.1693
     42 O          20.3089   69.3908   -8.9580 O.3     1  UNL1       -0.3794
     43 H          21.2091   69.2789   -9.2934 H       1  UNL1        0.2105
@<TRIPOS>BOND
     1    15    16   ar
     2    15    20   ar
     3    15     6    1
     4    16    17   ar
     5    16    21    2
     6    17    18   ar
     7    17    23    1
     8    18    19   ar
     9    18    22    2
    10    19    20   ar
    11     6     7    1
    12     6    11    1
    13     7     8    1
    14     7     9    1
    15     8    13    1
    16     9    10    1
    17     9    12    1
    18    10    11    1
    19    10     5    1
    20    12    14    1
    21     5     4    1
    22     4     1    1
    23     1     2    2
    24     1     3    1
    25     1    24    1
    26    24    25    1
    27    25    26    2
    28    25    27    1
    29    25    28    1
    30    28    29    1
    31    29    30    1
    32    29    37    1
    33    30    31    1
    34    30    34    1
    35    31    32    1
    36    31    35    1
    37    32    33    1
    38    32    36    1
    39    33    41    1
    40    33    37    1
    41    41    42    1
    42    34    38    1
    43    35    39    1
    44    36    40    1
    45    42    43    1
@<TRIPOS>MOLECULE
GDU
 43 45 0 0 0
SMALL
GASTEIGER

@<TRIPOS>ATOM
      1 P          20.9910   73.0486   -4.2487 P.3     1  UNL1        0.2189
      2 O          20.0171   74.0618   -4.7117 O.2     1  UNL1       -0.5170
      3 O          22.2959   73.7874   -3.6619 O.3     1  UNL1       -0.4371
      4 O          20.3216   72.1469   -3.0973 O.3     1  UNL1       -0.3112
      5 C          19.2094   72.8846   -2.5882 C.3     1  UNL1        0.1811
      6 C          20.7925   72.5717    0.6248 C.3     1  UNL1        0.2383
      7 C          20.7764   74.0965    0.3458 C.3     1  UNL1        0.1895
      8 O          20.6812   74.8369    1.5648 O.3     1  UNL1       -0.3779
      9 C          19.4875   74.2581   -0.5016 C.3     1  UNL1        0.1713
     10 C          19.2267   72.8464   -1.0590 C.3     1  UNL1        0.1764
     11 O          20.2958   71.9992   -0.6037 O.3     1  UNL1       -0.3308
     12 O          18.4001   74.6876    0.3200 O.3     1  UNL1       -0.3794
     13 H          20.6762   75.7734    1.3225 H       1  UNL1        0.2106
     14 H          18.6480   75.5476    0.6857 H       1  UNL1        0.2105
     15 N          22.1547   72.1091    0.8956 N.ar    1  UNL1       -0.2551
     16 C          22.3867   70.7999    1.0967 C.ar    1  UNL1        0.3323
     17 N          23.6303   70.3480    1.3441 N.ar    1  UNL1       -0.2743
     18 C          24.6663   71.2066    1.4042 C.ar    1  UNL1        0.2626
     19 C          24.4360   72.5892    1.2001 C.ar    1  UNL1        0.0795
     20 C          23.1796   73.0150    0.9495 C.ar    1  UNL1        0.0869
     21 O          21.4622   70.0133    1.0451 O.2     1  UNL1       -0.2464
     22 O          25.7916   70.7992    1.6328 O.2     1  UNL1       -0.2670
     23 H          23.7801   69.3993    1.4826 H       1  UNL1        0.1734
     24 O          21.4178   72.1110   -5.4861 O.3     1  UNL1       -0.2703
     25 P          20.6744   72.6920   -6.7899 P.3     1  UNL1        0.2208
     26 O          20.8465   74.1606   -6.8422 O.2     1  UNL1       -0.5170
     27 O          21.3136   72.0298   -8.1116 O.3     1  UNL1       -0.4371
     28 O          19.1064   72.3367   -6.7178 O.3     1  UNL1       -0.2858
     29 C          18.9913   70.9261   -6.9097 C.3     1  UNL1        0.2704
     30 C          18.0892   70.6479   -8.1130 C.3     1  UNL1        0.1967
     31 C          16.7139   71.2733   -7.8603 C.3     1  UNL1        0.1715
     32 C          16.1833   70.7635   -6.5156 C.3     1  UNL1        0.1694
     33 C          17.2300   71.0350   -5.4323 C.3     1  UNL1        0.1761
     34 O          18.6680   71.2194   -9.2875 O.3     1  UNL1       -0.3775
     35 O          15.8161   70.8979   -8.9070 O.3     1  UNL1       -0.3794
     36 O          15.9313   69.3603   -6.6024 O.3     1  UNL1       -0.3794
     37 O          18.4337   70.3330   -5.7393 O.3     1  UNL1       -0.3258
     38 H          19.5329   70.8028   -9.4034 H       1  UNL1        0.2106
     39 H          16.1944   71.2274   -9.7319 H       1  UNL1        0.2105
     40 H          15.2730   69.2367   -7.2985 H       1  UNL1        0.2105
     41 C          16.6958   70.5606   -4.0790 C.3     1  UNL1        0.1693
     42 O          16.0693   71.6537   -3.4054 O.3     1  UNL1       -0.3794
     43 H          15.7464   71.3133   -2.5597 H       1  UNL1        0.2105
@<TRIPOS>BOND
     1    15    16   ar
     2    15    20   ar
     3    15     6    1
     4    16    17   ar
     5    16    21    2
     6    17    18   ar
     7    17    23    1
     8    18    19   ar
     9    18    22    2
    10    19    20   ar
    11     6     7    1
    12     6    11    1
    13     7     8    1
    14     7     9    1
    15     8    13    1
    16     9    10    1
    17     9    12    1
    18    10    11    1
    19    10     5    1
    20    12    14    1
    21     5     4    1
    22     4     1    1
    23     1     2    2
    24     1     3    1
    25     1    24    1
    26    24    25    1
    27    25    26    2
    28    25    27    1
    29    25    28    1
    30    28    29    1
    31    29    30    1
    32    29    37    1
    33    30    31    1
    34    30    34    1
    35    31    32    1
    36    31    35    1
    37    32    33    1
    38    32    36    1
    39    33    41    1
    40    33    37    1
    41    41    42    1
    42    34    38    1
    43    35    39    1
    44    36    40    1
    45    42    43    1
