@<TRIPOS>MOLECULE
*****
 43 45 0 0 0
SMALL
GASTEIGER

@<TRIPOS>ATOM
      1 P          22.8453   71.8284   -2.5588 P.3     1  UNL1        0.2189
      2 O          23.0020   73.3424   -2.0106 O.co2   1  UNL1       -0.4371
      3 O          24.0383   71.2946   -3.2959 O.2     1  UNL1       -0.5170
      4 O          21.4596   71.8589   -3.3935 O.3     1  UNL1       -0.3112
      5 C          20.7075   70.6626   -3.4992 C.3     1  UNL1        0.1811
      6 O          18.7119   71.5909   -4.4635 O.3     1  UNL1       -0.3308
      7 O          17.2190   70.1418   -2.3043 O.3     1  UNL1       -0.3794
      8 O          16.8581   68.5207   -4.4673 O.3     1  UNL1       -0.3779
      9 C          18.3854   69.7396   -3.0206 C.3     1  UNL1        0.1713
     10 C          18.0196   69.3246   -4.4304 C.3     1  UNL1        0.1895
     11 C          19.2368   70.9793   -3.2648 C.3     1  UNL1        0.1764
     12 C          17.8232   70.6674   -5.1133 C.3     1  UNL1        0.2383
     13 H          16.6596   69.3666   -2.1363 H       1  UNL1        0.2105
     14 H          17.0336   67.6779   -4.0205 H       1  UNL1        0.2106
     15 O          16.0179   69.8675   -7.1329 O.2     1  UNL1       -0.2464
     16 O          19.1493   70.5297  -10.4492 O.2     1  UNL1       -0.2670
     17 N          18.1402   70.6217   -6.5129 N.ar    1  UNL1       -0.2551
     18 N          17.5785   70.1980   -8.7826 N.ar    1  UNL1       -0.2743
     19 C          17.1619   70.2044   -7.4452 C.ar    1  UNL1        0.3323
     20 C          19.4089   70.9884   -6.9484 C.ar    1  UNL1        0.0869
     21 C          19.7908   70.9756   -8.2272 C.ar    1  UNL1        0.0795
     22 C          18.8285   70.5523   -9.2649 C.ar    1  UNL1        0.2626
     23 H          16.9139   69.9105   -9.4499 H       1  UNL1        0.1734
     24 O          22.4501   70.9993   -1.2287 O.3     1  UNL1       -0.2703
     25 P          21.6781   71.4554    0.1163 P.3     1  UNL1        0.2208
     26 O          21.3789   70.0533    0.8661 O.co2   1  UNL1       -0.4371
     27 O          20.4605   72.2987   -0.1290 O.2     1  UNL1       -0.5170
     28 O          22.8130   72.1656    1.0178 O.3     1  UNL1       -0.2858
     29 O          24.5255   71.7626    2.6057 O.3     1  UNL1       -0.3258
     30 O          22.0226   74.0993    4.9135 O.3     1  UNL1       -0.3794
     31 O          24.5016   75.1913    3.9592 O.3     1  UNL1       -0.3794
     32 O          20.9028   72.1654    3.0735 O.3     1  UNL1       -0.3775
     33 C          22.6671   73.6771    3.7085 C.3     1  UNL1        0.1715
     34 C          24.1792   73.8045    3.9034 C.3     1  UNL1        0.1694
     35 C          22.2825   72.2276    3.4183 C.3     1  UNL1        0.1967
     36 C          24.9443   73.1236    2.7606 C.3     1  UNL1        0.1761
     37 C          23.1363   71.6301    2.2984 C.3     1  UNL1        0.2704
     38 H          22.2622   75.0191    5.1032 H       1  UNL1        0.2105
     39 H          24.0115   75.6095    4.6846 H       1  UNL1        0.2105
     40 H          20.3730   72.5463    3.7905 H       1  UNL1        0.2106
     41 O          26.9187   71.7792    2.8191 O.3     1  UNL1       -0.3794
     42 C          26.4501   73.1008    3.0143 C.3     1  UNL1        0.1693
     43 H          27.8758   71.7496    2.9769 H       1  UNL1        0.2105
@<TRIPOS>UNITY_ATOM_ATTR
2 1
charge -1
26 1
charge -1
@<TRIPOS>BOND
     1    25    28    1
     2    25    24    1
     3    25    26    1
     4    25    27    2
     5     1     4    1
     6     1    24    1
     7     1     2    1
     8     1     3    2
     9     6    11    1
    10     6    12    1
    11    29    36    1
    12    29    37    1
    13     7     9    1
    14     7    13    1
    15     8    10    1
    16     8    14    1
    17    28    37    1
    18     4     5    1
    19    30    33    1
    20    30    38    1
    21    31    34    1
    22    31    39    1
    23    32    35    1
    24    32    40    1
    25    41    42    1
    26    41    43    1
    27    15    19    2
    28    16    22    2
    29    17    12    1
    30    17    19   ar
    31    17    20   ar
    32    18    19   ar
    33    18    22   ar
    34    18    23    1
    35     9    10    1
    36     9    11    1
    37    10    12    1
    38    11     5    1
    39    33    34    1
    40    33    35    1
    41    34    36    1
    42    35    37    1
    43    36    42    1
    44    20    21   ar
    45    21    22   ar
@<TRIPOS>MOLECULE
*****
 43 45 0 0 0
SMALL
GASTEIGER

@<TRIPOS>ATOM
      1 P          21.0910   71.9299   -1.9171 P.3     1  UNL1        0.2189
      2 O          20.0820   72.5360   -0.8072 O.co2   1  UNL1       -0.4371
      3 O          21.3679   72.8334   -3.0826 O.2     1  UNL1       -0.5170
      4 O          20.4486   70.4902   -2.2811 O.3     1  UNL1       -0.3112
      5 C          19.8666   70.3137   -3.5610 C.3     1  UNL1        0.1811
      6 O          18.1697   71.5162   -4.7644 O.3     1  UNL1       -0.3308
      7 O          16.2034   70.2399   -2.8946 O.3     1  UNL1       -0.3794
      8 O          15.9559   68.7203   -5.1454 O.3     1  UNL1       -0.3779
      9 C          17.4001   69.6992   -3.4521 C.3     1  UNL1        0.1713
     10 C          17.1935   69.3617   -4.9140 C.3     1  UNL1        0.1895
     11 C          18.4307   70.8188   -3.5267 C.3     1  UNL1        0.1764
     12 C          17.2737   70.7308   -5.5677 C.3     1  UNL1        0.2383
     13 H          15.5303   69.5432   -2.8367 H       1  UNL1        0.2105
     14 H          15.9542   67.8537   -4.7096 H       1  UNL1        0.2106
     15 O          15.6804   70.3092   -7.8615 O.2     1  UNL1       -0.2464
     16 O          19.3357   70.5087  -10.6616 O.2     1  UNL1       -0.2670
     17 N          17.7829   70.6684   -6.9087 N.ar    1  UNL1       -0.2551
     18 N          17.5018   70.4091   -9.2539 N.ar    1  UNL1       -0.2743
     19 C          16.8981   70.4515   -7.9907 C.ar    1  UNL1        0.3323
     20 C          19.1454   70.8219   -7.1404 C.ar    1  UNL1        0.0869
     21 C          19.7055   70.7774   -8.3511 C.ar    1  UNL1        0.0795
     22 C          18.8510   70.5547   -9.5352 C.ar    1  UNL1        0.2626
     23 H          16.9050   70.2587  -10.0227 H       1  UNL1        0.1734
     24 O          22.3949   71.5362   -1.0465 O.3     1  UNL1       -0.2703
     25 P          22.5462   71.1116    0.5059 P.3     1  UNL1        0.2208
     26 O          24.0591   70.5444    0.5897 O.co2   1  UNL1       -0.4371
     27 O          21.4972   70.1510    0.9862 O.2     1  UNL1       -0.5170
     28 O          22.5903   72.5106    1.3096 O.3     1  UNL1       -0.2858
     29 O          24.0137   73.3004    3.0320 O.3     1  UNL1       -0.3258
     30 O          20.4306   74.8544    4.3726 O.3     1  UNL1       -0.3794
     31 O          22.4106   76.6121    3.2598 O.3     1  UNL1       -0.3794
     32 O          20.5017   72.2259    3.1621 O.3     1  UNL1       -0.3775
     33 C          21.3909   74.4525    3.3920 C.3     1  UNL1        0.1715
     34 C          22.6721   75.2578    3.6173 C.3     1  UNL1        0.1694
     35 C          21.6623   72.9569    3.5428 C.3     1  UNL1        0.1967
     36 C          23.8318   74.6990    2.7818 C.3     1  UNL1        0.1761
     37 C          22.8653   72.5141    2.7080 C.3     1  UNL1        0.2704
     38 H          20.2534   75.8031    4.2819 H       1  UNL1        0.2105
     39 H          21.6761   76.9527    3.7943 H       1  UNL1        0.2105
     40 H          19.7473   72.5151    3.6979 H       1  UNL1        0.2106
     41 O          25.8811   75.5600    1.9055 O.3     1  UNL1       -0.3794
     42 C          25.1556   75.3865    3.1088 C.3     1  UNL1        0.1693
     43 H          26.7260   75.9968    2.0982 H       1  UNL1        0.2105
@<TRIPOS>UNITY_ATOM_ATTR
2 1
charge -1
26 1
charge -1
@<TRIPOS>BOND
     1    25    28    1
     2    25    24    1
     3    25    26    1
     4    25    27    2
     5     1     4    1
     6     1    24    1
     7     1     2    1
     8     1     3    2
     9     6    11    1
    10     6    12    1
    11    29    36    1
    12    29    37    1
    13     7     9    1
    14     7    13    1
    15     8    10    1
    16     8    14    1
    17    28    37    1
    18     4     5    1
    19    30    33    1
    20    30    38    1
    21    31    34    1
    22    31    39    1
    23    32    35    1
    24    32    40    1
    25    41    42    1
    26    41    43    1
    27    15    19    2
    28    16    22    2
    29    17    12    1
    30    17    19   ar
    31    17    20   ar
    32    18    19   ar
    33    18    22   ar
    34    18    23    1
    35     9    10    1
    36     9    11    1
    37    10    12    1
    38    11     5    1
    39    33    34    1
    40    33    35    1
    41    34    36    1
    42    35    37    1
    43    36    42    1
    44    20    21   ar
    45    21    22   ar
@<TRIPOS>MOLECULE
*****
 43 45 0 0 0
SMALL
GASTEIGER

@<TRIPOS>ATOM
      1 P          21.7044   72.6404   -4.9773 P.3     1  UNL1        0.2189
      2 O          20.8954   74.0286   -5.1669 O.co2   1  UNL1       -0.4371
      3 O          22.8631   72.4495   -5.9114 O.2     1  UNL1       -0.5170
      4 O          20.5521   71.5067   -5.0464 O.3     1  UNL1       -0.3112
      5 C          20.0438   70.9844   -3.8313 C.3     1  UNL1        0.1811
      6 O          18.1195   71.7344   -5.0595 O.3     1  UNL1       -0.3308
      7 O          16.4769   70.3726   -2.9528 O.3     1  UNL1       -0.3794
      8 O          16.4133   68.5802   -5.0071 O.3     1  UNL1       -0.3779
      9 C          17.7277   69.9798   -3.5156 C.3     1  UNL1        0.1713
     10 C          17.5282   69.4438   -4.9179 C.3     1  UNL1        0.1895
     11 C          18.5442   71.2407   -3.7702 C.3     1  UNL1        0.1764
     12 C          17.3444   70.7207   -5.7202 C.3     1  UNL1        0.2383
     13 H          15.9379   69.5839   -2.7812 H       1  UNL1        0.2105
     14 H          16.5787   67.7828   -4.4803 H       1  UNL1        0.2106
     15 O          15.7163   71.0656   -8.0024 O.2     1  UNL1       -0.2464
     16 O          19.2226   70.1879  -10.8619 O.2     1  UNL1       -0.2670
     17 N          17.8059   70.5887   -7.0733 N.ar    1  UNL1       -0.2551
     18 N          17.4636   70.6285   -9.4243 N.ar    1  UNL1       -0.2743
     19 C          16.9070   70.7812   -8.1481 C.ar    1  UNL1        0.3323
     20 C          19.1366   70.2718   -7.3237 C.ar    1  UNL1        0.0869
     21 C          19.6514   70.1285   -8.5467 C.ar    1  UNL1        0.0795
     22 C          18.7793   70.3130   -9.7245 C.ar    1  UNL1        0.2626
     23 H          16.8560   70.7576  -10.1885 H       1  UNL1        0.1734
     24 O          22.1000   72.6613   -3.4101 O.3     1  UNL1       -0.2703
     25 P          23.4885   72.3096   -2.6610 P.3     1  UNL1        0.2208
     26 O          24.3965   73.6220   -2.9271 O.co2   1  UNL1       -0.4371
     27 O          24.1178   71.0208   -3.1048 O.2     1  UNL1       -0.5170
     28 O          23.1316   72.3730   -1.0883 O.3     1  UNL1       -0.2858
     29 O          23.9232   70.7655    0.4629 O.3     1  UNL1       -0.3258
     30 O          20.5455   72.0209    2.4794 O.3     1  UNL1       -0.3794
     31 O          23.1393   72.7977    3.4369 O.3     1  UNL1       -0.3794
     32 O          20.4860   71.7378   -0.4008 O.3     1  UNL1       -0.3775
     33 C          21.6923   72.1718    1.6383 C.3     1  UNL1        0.1715
     34 C          22.9340   71.7928    2.4478 C.3     1  UNL1        0.1694
     35 C          21.5435   71.2585    0.4229 C.3     1  UNL1        0.1967
     36 C          24.1687   71.6721    1.5444 C.3     1  UNL1        0.1761
     37 C          22.8426   71.1704   -0.3799 C.3     1  UNL1        0.2704
     38 H          20.6335   72.5985    3.2528 H       1  UNL1        0.2105
     39 H          22.3523   72.8641    4.0003 H       1  UNL1        0.2105
     40 H          19.6692   71.7887    0.1188 H       1  UNL1        0.2106
     41 O          25.0962   69.8302    2.7511 O.3     1  UNL1       -0.3794
     42 C          25.3832   71.1423    2.3036 C.3     1  UNL1        0.1693
     43 H          25.8605   69.4801    3.2358 H       1  UNL1        0.2105
@<TRIPOS>UNITY_ATOM_ATTR
2 1
charge -1
26 1
charge -1
@<TRIPOS>BOND
     1    25    28    1
     2    25    24    1
     3    25    26    1
     4    25    27    2
     5     1     4    1
     6     1    24    1
     7     1     2    1
     8     1     3    2
     9     6    11    1
    10     6    12    1
    11    29    36    1
    12    29    37    1
    13     7     9    1
    14     7    13    1
    15     8    10    1
    16     8    14    1
    17    28    37    1
    18     4     5    1
    19    30    33    1
    20    30    38    1
    21    31    34    1
    22    31    39    1
    23    32    35    1
    24    32    40    1
    25    41    42    1
    26    41    43    1
    27    15    19    2
    28    16    22    2
    29    17    12    1
    30    17    19   ar
    31    17    20   ar
    32    18    19   ar
    33    18    22   ar
    34    18    23    1
    35     9    10    1
    36     9    11    1
    37    10    12    1
    38    11     5    1
    39    33    34    1
    40    33    35    1
    41    34    36    1
    42    35    37    1
    43    36    42    1
    44    20    21   ar
    45    21    22   ar
@<TRIPOS>MOLECULE
*****
 43 45 0 0 0
SMALL
GASTEIGER

@<TRIPOS>ATOM
      1 P          23.2049   71.9470   -3.0628 P.3     1  UNL1        0.2189
      2 O          23.7105   73.3627   -3.6608 O.co2   1  UNL1       -0.4371
      3 O          24.2472   70.8685   -3.0200 O.2     1  UNL1       -0.5170
      4 O          21.8805   71.6102   -3.9291 O.3     1  UNL1       -0.3112
      5 C          21.4936   72.5123   -4.9510 C.3     1  UNL1        0.1811
      6 O          20.5403   70.5412   -5.9408 O.3     1  UNL1       -0.3308
      7 O          20.7831   71.9692   -8.5661 O.3     1  UNL1       -0.3794
      8 O          18.1426   72.2824   -7.9612 O.3     1  UNL1       -0.3779
      9 C          20.4663   72.4958   -7.2786 C.3     1  UNL1        0.1713
     10 C          19.0511   72.1211   -6.8910 C.3     1  UNL1        0.1895
     11 C          21.2904   71.7373   -6.2457 C.3     1  UNL1        0.1764
     12 C          19.2124   70.6689   -6.4748 C.3     1  UNL1        0.2383
     13 H          20.2691   72.4384   -9.2426 H       1  UNL1        0.2105
     14 H          18.0745   73.2228   -8.1888 H       1  UNL1        0.2106
     15 O          16.5878   69.7749   -7.0137 O.2     1  UNL1       -0.2464
     16 O          15.6671   69.2016   -2.5343 O.2     1  UNL1       -0.2670
     17 N          18.2655   70.2791   -5.4684 N.ar    1  UNL1       -0.2551
     18 N          16.1316   69.4900   -4.7829 N.ar    1  UNL1       -0.2743
     19 C          16.9728   69.8461   -5.8448 C.ar    1  UNL1        0.3323
     20 C          18.6223   70.3282   -4.1252 C.ar    1  UNL1        0.0869
     21 C          17.8080   69.9864   -3.1245 C.ar    1  UNL1        0.0795
     22 C          16.4396   69.5228   -3.4321 C.ar    1  UNL1        0.2626
     23 H          15.2259   69.1855   -5.0211 H       1  UNL1        0.1734
     24 O          22.6010   72.3566   -1.6203 O.3     1  UNL1       -0.2703
     25 P          22.0585   71.4466   -0.3995 P.3     1  UNL1        0.2208
     26 O          23.3805   70.6500    0.0856 O.co2   1  UNL1       -0.4371
     27 O          20.8996   70.5624   -0.7587 O.2     1  UNL1       -0.5170
     28 O          21.7559   72.4959    0.7890 O.3     1  UNL1       -0.2858
     29 O          22.7009   74.5614    1.4653 O.3     1  UNL1       -0.3258
     30 O          22.3072   72.7727    5.1662 O.3     1  UNL1       -0.3794
     31 O          20.5499   74.9240    4.4370 O.3     1  UNL1       -0.3794
     32 O          23.1048   71.1921    2.8760 O.3     1  UNL1       -0.3775
     33 C          21.9349   73.0746    3.8187 C.3     1  UNL1        0.1715
     34 C          21.7255   74.5860    3.7062 C.3     1  UNL1        0.1694
     35 C          23.0474   72.6144    2.8784 C.3     1  UNL1        0.1967
     36 C          21.5863   75.0183    2.2403 C.3     1  UNL1        0.1761
     37 C          22.8383   73.1391    1.4568 C.3     1  UNL1        0.2704
     38 H          21.6048   73.0619    5.7683 H       1  UNL1        0.2105
     39 H          20.6506   74.6452    5.3607 H       1  UNL1        0.2105
     40 H          23.2377   70.8724    3.7815 H       1  UNL1        0.2106
     41 O          20.2128   76.9697    2.3601 O.3     1  UNL1       -0.3794
     42 C          21.5345   76.5376    2.0946 C.3     1  UNL1        0.1693
     43 H          20.1648   77.9349    2.2714 H       1  UNL1        0.2105
@<TRIPOS>UNITY_ATOM_ATTR
2 1
charge -1
26 1
charge -1
@<TRIPOS>BOND
     1    25    28    1
     2    25    24    1
     3    25    26    1
     4    25    27    2
     5     1     4    1
     6     1    24    1
     7     1     2    1
     8     1     3    2
     9     6    11    1
    10     6    12    1
    11    29    36    1
    12    29    37    1
    13     7     9    1
    14     7    13    1
    15     8    10    1
    16     8    14    1
    17    28    37    1
    18     4     5    1
    19    30    33    1
    20    30    38    1
    21    31    34    1
    22    31    39    1
    23    32    35    1
    24    32    40    1
    25    41    42    1
    26    41    43    1
    27    15    19    2
    28    16    22    2
    29    17    12    1
    30    17    19   ar
    31    17    20   ar
    32    18    19   ar
    33    18    22   ar
    34    18    23    1
    35     9    10    1
    36     9    11    1
    37    10    12    1
    38    11     5    1
    39    33    34    1
    40    33    35    1
    41    34    36    1
    42    35    37    1
    43    36    42    1
    44    20    21   ar
    45    21    22   ar
@<TRIPOS>MOLECULE
*****
 43 45 0 0 0
SMALL
GASTEIGER

@<TRIPOS>ATOM
      1 P          23.0425   71.5553   -2.5210 P.3     1  UNL1        0.2189
      2 O          23.3265   73.0982   -2.1258 O.co2   1  UNL1       -0.4371
      3 O          24.1926   70.8462   -3.1735 O.2     1  UNL1       -0.5170
      4 O          21.6761   71.6208   -3.3850 O.3     1  UNL1       -0.3112
      5 C          20.8854   70.4497   -3.4896 C.3     1  UNL1        0.1811
      6 O          18.9012   71.4615   -4.3912 O.3     1  UNL1       -0.3308
      7 O          17.4074   70.0136   -2.2318 O.3     1  UNL1       -0.3794
      8 O          16.9500   68.4524   -4.4205 O.3     1  UNL1       -0.3779
      9 C          18.5452   69.5904   -2.9812 C.3     1  UNL1        0.1713
     10 C          18.1373   69.2180   -4.3914 C.3     1  UNL1        0.1895
     11 C          19.4308   70.8076   -3.2172 C.3     1  UNL1        0.1764
     12 C          17.9701   70.5810   -5.0413 C.3     1  UNL1        0.2383
     13 H          16.8270   69.2530   -2.0684 H       1  UNL1        0.2105
     14 H          17.1076   67.5949   -3.9955 H       1  UNL1        0.2106
     15 O          16.1183   69.8191   -7.0334 O.2     1  UNL1       -0.2464
     16 O          19.1796   70.5212  -10.4063 O.2     1  UNL1       -0.2670
     17 N          18.2564   70.5558   -6.4480 N.ar    1  UNL1       -0.2551
     18 N          17.6440   70.1695   -8.7112 N.ar    1  UNL1       -0.2743
     19 C          17.2565   70.1566   -7.3652 C.ar    1  UNL1        0.3323
     20 C          19.5169   70.9246   -6.9053 C.ar    1  UNL1        0.0869
     21 C          19.8709   70.9302   -8.1921 C.ar    1  UNL1        0.0795
     22 C          18.8847   70.5266   -9.2151 C.ar    1  UNL1        0.2626
     23 H          16.9639   69.8948   -9.3683 H       1  UNL1        0.1734
     24 O          22.5574   70.9053   -1.1228 O.3     1  UNL1       -0.2703
     25 P          21.7416   71.5437    0.1182 P.3     1  UNL1        0.2208
     26 O          21.4568   70.2674    1.0708 O.co2   1  UNL1       -0.4371
     27 O          20.5111   72.3054   -0.2810 O.2     1  UNL1       -0.5170
     28 O          22.8368   72.4156    0.9216 O.3     1  UNL1       -0.2858
     29 O          21.9239   73.9535    2.4767 O.3     1  UNL1       -0.3258
     30 O          25.7947   75.3838    2.3289 O.3     1  UNL1       -0.3794
     31 O          24.8915   73.9759    4.6634 O.3     1  UNL1       -0.3794
     32 O          24.5161   74.4260   -0.0851 O.3     1  UNL1       -0.3775
     33 C          24.7742   74.3820    2.3092 C.3     1  UNL1        0.1715
     34 C          24.0184   74.4413    3.6381 C.3     1  UNL1        0.1694
     35 C          23.8292   74.6550    1.1405 C.3     1  UNL1        0.1967
     36 C          22.7459   73.5848    3.5904 C.3     1  UNL1        0.1761
     37 C          22.5730   73.7852    1.2149 C.3     1  UNL1        0.2704
     38 H          26.3985   75.2160    3.0684 H       1  UNL1        0.2105
     39 H          25.6912   74.5249    4.6826 H       1  UNL1        0.2105
     40 H          25.3091   74.9826   -0.1201 H       1  UNL1        0.2106
     41 O          22.3153   72.7990    5.8053 O.3     1  UNL1       -0.3794
     42 C          21.8955   73.7534    4.8476 C.3     1  UNL1        0.1693
     43 H          21.7829   72.8947    6.6110 H       1  UNL1        0.2105
@<TRIPOS>UNITY_ATOM_ATTR
2 1
charge -1
26 1
charge -1
@<TRIPOS>BOND
     1    25    28    1
     2    25    24    1
     3    25    26    1
     4    25    27    2
     5     1     4    1
     6     1    24    1
     7     1     2    1
     8     1     3    2
     9     6    11    1
    10     6    12    1
    11    29    36    1
    12    29    37    1
    13     7     9    1
    14     7    13    1
    15     8    10    1
    16     8    14    1
    17    28    37    1
    18     4     5    1
    19    30    33    1
    20    30    38    1
    21    31    34    1
    22    31    39    1
    23    32    35    1
    24    32    40    1
    25    41    42    1
    26    41    43    1
    27    15    19    2
    28    16    22    2
    29    17    12    1
    30    17    19   ar
    31    17    20   ar
    32    18    19   ar
    33    18    22   ar
    34    18    23    1
    35     9    10    1
    36     9    11    1
    37    10    12    1
    38    11     5    1
    39    33    34    1
    40    33    35    1
    41    34    36    1
    42    35    37    1
    43    36    42    1
    44    20    21   ar
    45    21    22   ar
@<TRIPOS>MOLECULE
*****
 43 45 0 0 0
SMALL
GASTEIGER

@<TRIPOS>ATOM
      1 P          20.3267   71.1474   -1.1021 P.3     1  UNL1        0.2189
      2 O          21.4299   71.7619   -2.1134 O.co2   1  UNL1       -0.4371
      3 O          20.8815   70.5740    0.1686 O.2     1  UNL1       -0.5170
      4 O          19.4818   70.1221   -2.0256 O.3     1  UNL1       -0.3112
      5 C          19.2119   70.4866   -3.3680 C.3     1  UNL1        0.1811
      6 O          17.5229   71.4572   -4.7748 O.3     1  UNL1       -0.3308
      7 O          15.5406   69.9010   -3.1501 O.3     1  UNL1       -0.3794
      8 O          15.7792   68.3873   -5.4058 O.3     1  UNL1       -0.3779
      9 C          16.8591   69.5367   -3.5554 C.3     1  UNL1        0.1713
     10 C          16.8792   69.1906   -5.0296 C.3     1  UNL1        0.1895
     11 C          17.7265   70.7885   -3.5107 C.3     1  UNL1        0.1764
     12 C          16.8477   70.5649   -5.6764 C.3     1  UNL1        0.2383
     13 H          14.9683   69.1175   -3.1703 H       1  UNL1        0.2105
     14 H          15.8447   67.5239   -4.9687 H       1  UNL1        0.2106
     15 O          15.5338   70.5596   -8.1767 O.2     1  UNL1       -0.2464
     16 O          19.5246   70.6553  -10.4801 O.2     1  UNL1       -0.2670
     17 N          17.5188   70.5885   -6.9454 N.ar    1  UNL1       -0.2551
     18 N          17.5220   70.6074   -9.3216 N.ar    1  UNL1       -0.2743
     19 C          16.7659   70.5825   -8.1427 C.ar    1  UNL1        0.3323
     20 C          18.9083   70.6176   -6.9941 C.ar    1  UNL1        0.0869
     21 C          19.6143   70.6398   -8.1265 C.ar    1  UNL1        0.0795
     22 C          18.9040   70.6354   -9.4217 C.ar    1  UNL1        0.2626
     23 H          17.0188   70.6034  -10.1681 H       1  UNL1        0.1734
     24 O          19.2999   72.3782   -0.8928 O.3     1  UNL1       -0.2703
     25 P          19.5648   73.9334   -0.5402 P.3     1  UNL1        0.2208
     26 O          18.4856   74.2385    0.6258 O.co2   1  UNL1       -0.4371
     27 O          19.4775   74.8557   -1.7216 O.2     1  UNL1       -0.5170
     28 O          20.9924   73.9441    0.2127 O.3     1  UNL1       -0.2858
     29 O          21.8620   73.9866    2.4169 O.3     1  UNL1       -0.3258
     30 O          23.9313   77.1880    0.8295 O.3     1  UNL1       -0.3794
     31 O          25.3169   74.7310    1.3691 O.3     1  UNL1       -0.3794
     32 O          21.1695   76.7419    0.0857 O.3     1  UNL1       -0.3775
     33 C          23.3072   75.9013    0.8103 C.3     1  UNL1        0.1715
     34 C          24.0040   75.0149    1.8445 C.3     1  UNL1        0.1694
     35 C          21.8261   76.0599    1.1488 C.3     1  UNL1        0.1967
     36 C          23.2250   73.7125    2.0726 C.3     1  UNL1        0.1761
     37 C          21.1573   74.7080    1.4046 C.3     1  UNL1        0.2704
     38 H          24.8719   77.0944    0.6149 H       1  UNL1        0.2105
     39 H          25.7980   75.5617    1.2287 H       1  UNL1        0.2105
     40 H          21.6020   77.5962   -0.0661 H       1  UNL1        0.2106
     41 O          24.6506   73.7230    3.9901 O.3     1  UNL1       -0.3794
     42 C          23.8153   72.8852    3.2124 C.3     1  UNL1        0.1693
     43 H          25.0330   73.2099    4.7196 H       1  UNL1        0.2105
@<TRIPOS>UNITY_ATOM_ATTR
2 1
charge -1
26 1
charge -1
@<TRIPOS>BOND
     1    25    28    1
     2    25    24    1
     3    25    26    1
     4    25    27    2
     5     1     4    1
     6     1    24    1
     7     1     2    1
     8     1     3    2
     9     6    11    1
    10     6    12    1
    11    29    36    1
    12    29    37    1
    13     7     9    1
    14     7    13    1
    15     8    10    1
    16     8    14    1
    17    28    37    1
    18     4     5    1
    19    30    33    1
    20    30    38    1
    21    31    34    1
    22    31    39    1
    23    32    35    1
    24    32    40    1
    25    41    42    1
    26    41    43    1
    27    15    19    2
    28    16    22    2
    29    17    12    1
    30    17    19   ar
    31    17    20   ar
    32    18    19   ar
    33    18    22   ar
    34    18    23    1
    35     9    10    1
    36     9    11    1
    37    10    12    1
    38    11     5    1
    39    33    34    1
    40    33    35    1
    41    34    36    1
    42    35    37    1
    43    36    42    1
    44    20    21   ar
    45    21    22   ar
@<TRIPOS>MOLECULE
*****
 43 45 0 0 0
SMALL
GASTEIGER

@<TRIPOS>ATOM
      1 P          23.5069   73.5701   -4.1388 P.3     1  UNL1        0.2189
      2 O          22.7009   74.9572   -4.3472 O.co2   1  UNL1       -0.4371
      3 O          24.9981   73.7109   -4.0485 O.2     1  UNL1       -0.5170
      4 O          22.9616   72.6211   -5.3304 O.3     1  UNL1       -0.3112
      5 C          21.5857   72.2830   -5.3496 C.3     1  UNL1        0.1811
      6 O          20.4970   70.3537   -6.2801 O.3     1  UNL1       -0.3308
      7 O          20.6643   71.7649   -8.9204 O.3     1  UNL1       -0.3794
      8 O          18.0752   72.1944   -8.1800 O.3     1  UNL1       -0.3779
      9 C          20.4385   72.3072   -7.6203 C.3     1  UNL1        0.1713
     10 C          19.0305   71.9955   -7.1579 C.3     1  UNL1        0.1895
     11 C          21.2816   71.5152   -6.6287 C.3     1  UNL1        0.1764
     12 C          19.1498   70.5384   -6.7448 C.3     1  UNL1        0.2383
     13 H          20.1366   72.2549   -9.5711 H       1  UNL1        0.2105
     14 H          18.0364   73.1365   -8.4076 H       1  UNL1        0.2106
     15 O          16.4626   69.7643   -7.1421 O.2     1  UNL1       -0.2464
     16 O          15.7547   69.2347   -2.6189 O.2     1  UNL1       -0.2670
     17 N          18.2407   70.1923   -5.6887 N.ar    1  UNL1       -0.2551
     18 N          16.1124   69.5011   -4.8896 N.ar    1  UNL1       -0.2743
     19 C          16.9116   69.8183   -5.9953 C.ar    1  UNL1        0.3323
     20 C          18.6698   70.2255   -4.3664 C.ar    1  UNL1        0.0869
     21 C          17.8948   69.9213   -3.3232 C.ar    1  UNL1        0.0795
     22 C          16.4925   69.5203   -3.5570 C.ar    1  UNL1        0.2626
     23 H          15.1825   69.2380   -5.0789 H       1  UNL1        0.1734
     24 O          22.8101   72.9389   -2.8239 O.3     1  UNL1       -0.2703
     25 P          22.8970   71.4569   -2.1842 P.3     1  UNL1        0.2208
     26 O          24.2559   70.8557   -2.8242 O.co2   1  UNL1       -0.4371
     27 O          21.6770   70.6136   -2.4170 O.2     1  UNL1       -0.5170
     28 O          23.2530   71.7033   -0.6294 O.3     1  UNL1       -0.2858
     29 O          24.1754   70.4532    1.1603 O.3     1  UNL1       -0.3258
     30 O          20.8730   72.0188    3.0823 O.3     1  UNL1       -0.3794
     31 O          23.4890   73.0217    3.7139 O.3     1  UNL1       -0.3794
     32 O          20.6687   71.1662    0.3235 O.3     1  UNL1       -0.3775
     33 C          21.9681   72.0215    2.1624 C.3     1  UNL1        0.1715
     34 C          23.2623   71.8360    2.9569 C.3     1  UNL1        0.1694
     35 C          21.7829   70.8815    1.1626 C.3     1  UNL1        0.1967
     36 C          24.4501   71.5618    2.0248 C.3     1  UNL1        0.1761
     37 C          23.0395   70.6607    0.3186 C.3     1  UNL1        0.2704
     38 H          20.9842   72.7406    3.7196 H       1  UNL1        0.2105
     39 H          22.7314   73.1836    4.2980 H       1  UNL1        0.2105
     40 H          19.8796   71.3036    0.8696 H       1  UNL1        0.2106
     41 O          26.7102   70.7999    1.8809 O.3     1  UNL1       -0.3794
     42 C          25.7192   71.2180    2.8015 C.3     1  UNL1        0.1693
     43 H          27.5238   70.5781    2.3611 H       1  UNL1        0.2105
@<TRIPOS>UNITY_ATOM_ATTR
2 1
charge -1
26 1
charge -1
@<TRIPOS>BOND
     1    25    28    1
     2    25    24    1
     3    25    26    1
     4    25    27    2
     5     1     4    1
     6     1    24    1
     7     1     2    1
     8     1     3    2
     9     6    11    1
    10     6    12    1
    11    29    36    1
    12    29    37    1
    13     7     9    1
    14     7    13    1
    15     8    10    1
    16     8    14    1
    17    28    37    1
    18     4     5    1
    19    30    33    1
    20    30    38    1
    21    31    34    1
    22    31    39    1
    23    32    35    1
    24    32    40    1
    25    41    42    1
    26    41    43    1
    27    15    19    2
    28    16    22    2
    29    17    12    1
    30    17    19   ar
    31    17    20   ar
    32    18    19   ar
    33    18    22   ar
    34    18    23    1
    35     9    10    1
    36     9    11    1
    37    10    12    1
    38    11     5    1
    39    33    34    1
    40    33    35    1
    41    34    36    1
    42    35    37    1
    43    36    42    1
    44    20    21   ar
    45    21    22   ar
@<TRIPOS>MOLECULE
*****
 43 45 0 0 0
SMALL
GASTEIGER

@<TRIPOS>ATOM
      1 P          23.0705   72.4625   -3.5542 P.3     1  UNL1        0.2189
      2 O          22.9446   70.9161   -3.0958 O.co2   1  UNL1       -0.4371
      3 O          24.3467   72.8119   -4.2619 O.2     1  UNL1       -0.5170
      4 O          22.7672   73.2950   -2.2004 O.3     1  UNL1       -0.3112
      5 C          21.7544   74.2856   -2.2283 C.3     1  UNL1        0.1811
      6 O          21.0039   72.6342   -0.6525 O.3     1  UNL1       -0.3308
      7 O          18.9316   74.6370    0.1752 O.3     1  UNL1       -0.3794
      8 O          20.8060   74.8738    2.1418 O.3     1  UNL1       -0.3779
      9 C          20.2819   74.8518   -0.2323 C.3     1  UNL1        0.1713
     10 C          21.2356   74.4368    0.8685 C.3     1  UNL1        0.1895
     11 C          20.6063   73.8463   -1.3300 C.3     1  UNL1        0.1764
     12 C          21.2293   72.9233    0.7369 C.3     1  UNL1        0.2383
     13 H          18.7012   75.2681    0.8757 H       1  UNL1        0.2105
     14 H          20.8277   75.8429    2.1755 H       1  UNL1        0.2106
     15 O          21.6434   70.1508    1.0833 O.2     1  UNL1       -0.2464
     16 O          26.0485   70.7735    2.2870 O.2     1  UNL1       -0.2670
     17 N          22.4746   72.3333    1.1399 N.ar    1  UNL1       -0.2551
     18 N          23.8365   70.4631    1.6822 N.ar    1  UNL1       -0.2743
     19 C          22.5769   70.9302    1.2857 C.ar    1  UNL1        0.3323
     20 C          23.5778   73.1434    1.3857 C.ar    1  UNL1        0.0869
     21 C          24.7717   72.6825    1.7643 C.ar    1  UNL1        0.0795
     22 C          24.9630   71.2283    1.9396 C.ar    1  UNL1        0.2626
     23 H          23.9313   69.4889    1.7905 H       1  UNL1        0.1734
     24 O          21.7312   72.6923   -4.4297 O.3     1  UNL1       -0.2703
     25 P          21.5323   73.0093   -6.0023 P.3     1  UNL1        0.2208
     26 O          22.6428   72.0718   -6.7131 O.co2   1  UNL1       -0.4371
     27 O          21.6340   74.4653   -6.3542 O.2     1  UNL1       -0.5170
     28 O          20.1197   72.3268   -6.3811 O.3     1  UNL1       -0.2858
     29 O          19.3510   70.1884   -5.7080 O.3     1  UNL1       -0.3258
     30 O          17.4770   70.4377   -9.3791 O.3     1  UNL1       -0.3794
     31 O          15.9247   70.6815   -6.9752 O.3     1  UNL1       -0.3794
     32 O          20.1603   71.4739   -9.0544 O.3     1  UNL1       -0.3775
     33 C          17.9954   70.9391   -8.1441 C.3     1  UNL1        0.1715
     34 C          17.2751   70.2273   -6.9973 C.3     1  UNL1        0.1694
     35 C          19.4975   70.6676   -8.0864 C.3     1  UNL1        0.1967
     36 C          17.9570   70.5130   -5.6526 C.3     1  UNL1        0.1761
     37 C          20.0670   70.9369   -6.6924 C.3     1  UNL1        0.2704
     38 H          16.5237   70.6073   -9.4223 H       1  UNL1        0.2105
     39 H          15.5057   70.4956   -7.8302 H       1  UNL1        0.2105
     40 H          19.7911   71.2939   -9.9325 H       1  UNL1        0.2106
     41 O          16.6599   68.5897   -5.0806 O.3     1  UNL1       -0.3794
     42 C          17.3520   69.6891   -4.5180 C.3     1  UNL1        0.1693
     43 H          16.2697   68.0561   -4.3701 H       1  UNL1        0.2105
@<TRIPOS>UNITY_ATOM_ATTR
2 1
charge -1
26 1
charge -1
@<TRIPOS>BOND
     1    25    28    1
     2    25    24    1
     3    25    26    1
     4    25    27    2
     5     1     4    1
     6     1    24    1
     7     1     2    1
     8     1     3    2
     9     6    11    1
    10     6    12    1
    11    29    36    1
    12    29    37    1
    13     7     9    1
    14     7    13    1
    15     8    10    1
    16     8    14    1
    17    28    37    1
    18     4     5    1
    19    30    33    1
    20    30    38    1
    21    31    34    1
    22    31    39    1
    23    32    35    1
    24    32    40    1
    25    41    42    1
    26    41    43    1
    27    15    19    2
    28    16    22    2
    29    17    12    1
    30    17    19   ar
    31    17    20   ar
    32    18    19   ar
    33    18    22   ar
    34    18    23    1
    35     9    10    1
    36     9    11    1
    37    10    12    1
    38    11     5    1
    39    33    34    1
    40    33    35    1
    41    34    36    1
    42    35    37    1
    43    36    42    1
    44    20    21   ar
    45    21    22   ar
@<TRIPOS>MOLECULE
*****
 43 45 0 0 0
SMALL
GASTEIGER

@<TRIPOS>ATOM
      1 P          21.6158   72.7634   -1.3858 P.3     1  UNL1        0.2189
      2 O          20.2552   73.1559   -0.6035 O.co2   1  UNL1       -0.4371
      3 O          22.1991   73.8575   -2.2309 O.2     1  UNL1       -0.5170
      4 O          21.2345   71.3992   -2.1677 O.3     1  UNL1       -0.3112
      5 C          20.5899   71.4985   -3.4257 C.3     1  UNL1        0.1811
      6 O          18.4566   71.9272   -4.4451 O.3     1  UNL1       -0.3308
      7 O          17.2723   70.3355   -2.1969 O.3     1  UNL1       -0.3794
      8 O          17.2844   68.5432   -4.2522 O.3     1  UNL1       -0.3779
      9 C          18.5057   70.1422   -2.8873 C.3     1  UNL1        0.1713
     10 C          18.2521   69.5728   -4.2675 C.3     1  UNL1        0.1895
     11 C          19.0827   71.5147   -3.2105 C.3     1  UNL1        0.1764
     12 C          17.7883   70.7997   -5.0342 C.3     1  UNL1        0.2383
     13 H          16.8850   69.4725   -1.9795 H       1  UNL1        0.2105
     14 H          17.6264   67.7852   -3.7529 H       1  UNL1        0.2106
     15 O          16.1141   69.7094   -7.0307 O.2     1  UNL1       -0.2464
     16 O          19.1849   70.5997  -10.3501 O.2     1  UNL1       -0.2670
     17 N          18.1251   70.7341   -6.4283 N.ar    1  UNL1       -0.2551
     18 N          17.6444   70.1538   -8.6819 N.ar    1  UNL1       -0.2743
     19 C          17.2140   70.1660   -7.3490 C.ar    1  UNL1        0.3323
     20 C          19.3469   71.2299   -6.8701 C.ar    1  UNL1        0.0869
     21 C          19.7429   71.2096   -8.1445 C.ar    1  UNL1        0.0795
     22 C          18.8496   70.6331   -9.1701 C.ar    1  UNL1        0.2626
     23 H          17.0263   69.7624   -9.3410 H       1  UNL1        0.1734
     24 O          22.5811   72.2436   -0.1979 O.3     1  UNL1       -0.2703
     25 P          22.3602   71.1048    0.9278 P.3     1  UNL1        0.2208
     26 O          23.7507   70.2783    0.8972 O.co2   1  UNL1       -0.4371
     27 O          21.1348   70.2630    0.7193 O.2     1  UNL1       -0.5170
     28 O          22.3920   71.9043    2.3295 O.3     1  UNL1       -0.2858
     29 O          21.1876   73.9434    2.4215 O.3     1  UNL1       -0.3258
     30 O          23.5716   74.4340    5.7572 O.3     1  UNL1       -0.3794
     31 O          20.7710   73.8881    6.0837 O.3     1  UNL1       -0.3794
     32 O          24.6550   73.1902    3.3784 O.3     1  UNL1       -0.3775
     33 C          22.7881   73.7002    4.8121 C.3     1  UNL1        0.1715
     34 C          21.3618   74.2532    4.8396 C.3     1  UNL1        0.1694
     35 C          23.4011   73.8626    3.4224 C.3     1  UNL1        0.1967
     36 C          20.5318   73.7029    3.6720 C.3     1  UNL1        0.1761
     37 C          22.4737   73.3272    2.3300 C.3     1  UNL1        0.2704
     38 H          23.1880   74.3347    6.6417 H       1  UNL1        0.2105
     39 H          21.3050   74.2413    6.8126 H       1  UNL1        0.2105
     40 H          25.2331   73.5383    4.0744 H       1  UNL1        0.2106
     41 O          19.3338   75.7614    3.4813 O.3     1  UNL1       -0.3794
     42 C          19.1562   74.3609    3.5880 C.3     1  UNL1        0.1693
     43 H          18.4666   76.1935    3.4267 H       1  UNL1        0.2105
@<TRIPOS>UNITY_ATOM_ATTR
2 1
charge -1
26 1
charge -1
@<TRIPOS>BOND
     1    25    28    1
     2    25    24    1
     3    25    26    1
     4    25    27    2
     5     1     4    1
     6     1    24    1
     7     1     2    1
     8     1     3    2
     9     6    11    1
    10     6    12    1
    11    29    36    1
    12    29    37    1
    13     7     9    1
    14     7    13    1
    15     8    10    1
    16     8    14    1
    17    28    37    1
    18     4     5    1
    19    30    33    1
    20    30    38    1
    21    31    34    1
    22    31    39    1
    23    32    35    1
    24    32    40    1
    25    41    42    1
    26    41    43    1
    27    15    19    2
    28    16    22    2
    29    17    12    1
    30    17    19   ar
    31    17    20   ar
    32    18    19   ar
    33    18    22   ar
    34    18    23    1
    35     9    10    1
    36     9    11    1
    37    10    12    1
    38    11     5    1
    39    33    34    1
    40    33    35    1
    41    34    36    1
    42    35    37    1
    43    36    42    1
    44    20    21   ar
    45    21    22   ar
@<TRIPOS>MOLECULE
*****
 43 45 0 0 0
SMALL
GASTEIGER

@<TRIPOS>ATOM
      1 P          20.5166   71.1170   -1.0801 P.3     1  UNL1        0.2189
      2 O          21.7435   71.4054   -2.0945 O.co2   1  UNL1       -0.4371
      3 O          20.9137   70.5408    0.2472 O.2     1  UNL1       -0.5170
      4 O          19.4908   70.2230   -1.9556 O.3     1  UNL1       -0.3112
      5 C          19.2120   70.6223   -3.2862 C.3     1  UNL1        0.1811
      6 O          17.4889   71.5286   -4.6945 O.3     1  UNL1       -0.3308
      7 O          15.5590   69.9427   -3.0358 O.3     1  UNL1       -0.3794
      8 O          15.8234   68.4053   -5.2726 O.3     1  UNL1       -0.3779
      9 C          16.8841   69.6080   -3.4451 C.3     1  UNL1        0.1713
     10 C          16.9040   69.2425   -4.9146 C.3     1  UNL1        0.1895
     11 C          17.7181   70.8828   -3.4230 C.3     1  UNL1        0.1764
     12 C          16.8319   70.6067   -5.5795 C.3     1  UNL1        0.2383
     13 H          15.0076   69.1441   -3.0417 H       1  UNL1        0.2105
     14 H          15.9146   67.5500   -4.8244 H       1  UNL1        0.2106
     15 O          15.5050   70.4899   -8.0702 O.2     1  UNL1       -0.2464
     16 O          19.4747   70.7049  -10.4019 O.2     1  UNL1       -0.2670
     17 N          17.4940   70.6308   -6.8533 N.ar    1  UNL1       -0.2551
     18 N          17.4827   70.5973   -9.2292 N.ar    1  UNL1       -0.2743
     19 C          16.7352   70.5662   -8.0450 C.ar    1  UNL1        0.3323
     20 C          18.8807   70.7180   -6.9119 C.ar    1  UNL1        0.0869
     21 C          19.5786   70.7453   -8.0492 C.ar    1  UNL1        0.0795
     22 C          18.8616   70.6820   -9.3391 C.ar    1  UNL1        0.2626
     23 H          16.9753   70.5531  -10.0720 H       1  UNL1        0.1734
     24 O          19.7704   72.5484   -0.9960 O.3     1  UNL1       -0.2703
     25 P          20.3348   74.0204   -0.6388 P.3     1  UNL1        0.2208
     26 O          19.0806   74.9884   -0.9666 O.co2   1  UNL1       -0.4371
     27 O          21.6022   74.3844   -1.3566 O.2     1  UNL1       -0.5170
     28 O          20.4504   74.0340    0.9710 O.3     1  UNL1       -0.2858
     29 O          22.5628   74.8428    1.6783 O.3     1  UNL1       -0.3258
     30 O          21.1182   73.5074    5.3089 O.3     1  UNL1       -0.3794
     31 O          21.2913   76.3291    4.8029 O.3     1  UNL1       -0.3794
     32 O          20.5815   71.9980    2.8978 O.3     1  UNL1       -0.3775
     33 C          21.0290   74.0894    4.0055 C.3     1  UNL1        0.1715
     34 C          21.9062   75.3426    3.9789 C.3     1  UNL1        0.1694
     35 C          21.5109   73.0738    2.9713 C.3     1  UNL1        0.1967
     36 C          22.0743   75.8709    2.5479 C.3     1  UNL1        0.1761
     37 C          21.6918   73.7132    1.5934 C.3     1  UNL1        0.2704
     38 H          20.8132   74.1470    5.9702 H       1  UNL1        0.2105
     39 H          21.1905   75.9828    5.7035 H       1  UNL1        0.2105
     40 H          20.4760   71.6014    3.7762 H       1  UNL1        0.2106
     41 O          24.3813   76.4925    2.5444 O.3     1  UNL1       -0.3794
     42 C          23.0714   77.0254    2.4778 C.3     1  UNL1        0.1693
     43 H          25.0267   77.2159    2.5006 H       1  UNL1        0.2105
@<TRIPOS>UNITY_ATOM_ATTR
2 1
charge -1
26 1
charge -1
@<TRIPOS>BOND
     1    25    28    1
     2    25    24    1
     3    25    26    1
     4    25    27    2
     5     1     4    1
     6     1    24    1
     7     1     2    1
     8     1     3    2
     9     6    11    1
    10     6    12    1
    11    29    36    1
    12    29    37    1
    13     7     9    1
    14     7    13    1
    15     8    10    1
    16     8    14    1
    17    28    37    1
    18     4     5    1
    19    30    33    1
    20    30    38    1
    21    31    34    1
    22    31    39    1
    23    32    35    1
    24    32    40    1
    25    41    42    1
    26    41    43    1
    27    15    19    2
    28    16    22    2
    29    17    12    1
    30    17    19   ar
    31    17    20   ar
    32    18    19   ar
    33    18    22   ar
    34    18    23    1
    35     9    10    1
    36     9    11    1
    37    10    12    1
    38    11     5    1
    39    33    34    1
    40    33    35    1
    41    34    36    1
    42    35    37    1
    43    36    42    1
    44    20    21   ar
    45    21    22   ar
@<TRIPOS>MOLECULE
*****
 43 45 0 0 0
SMALL
GASTEIGER

@<TRIPOS>ATOM
      1 P          21.8708   72.4734   -5.5909 P.3     1  UNL1        0.2189
      2 O          21.1598   73.9050   -5.3405 O.co2   1  UNL1       -0.4371
      3 O          23.1460   72.5285   -6.3798 O.2     1  UNL1       -0.5170
      4 O          20.6935   71.5600   -6.2214 O.3     1  UNL1       -0.3112
      5 C          20.1156   71.9571   -7.4527 C.3     1  UNL1        0.1811
      6 O          18.8708   69.9375   -7.0711 O.3     1  UNL1       -0.3308
      7 O          18.1717   70.0395   -9.9851 O.3     1  UNL1       -0.3794
      8 O          15.9162   71.0097   -8.7984 O.3     1  UNL1       -0.3779
      9 C          18.3315   71.1117   -9.0576 C.3     1  UNL1        0.1713
     10 C          17.1443   71.1770   -8.1196 C.3     1  UNL1        0.1895
     11 C          19.4665   70.7463   -8.1090 C.3     1  UNL1        0.1764
     12 C          17.4400   70.0392   -7.1573 C.3     1  UNL1        0.2383
     13 H          17.4523   70.2502  -10.6016 H       1  UNL1        0.2105
     14 H          15.7735   71.7585   -9.3981 H       1  UNL1        0.2106
     15 O          16.3176   68.0468   -5.4994 O.2     1  UNL1       -0.2464
     16 O          15.4354   71.0787   -2.1423 O.2     1  UNL1       -0.2670
     17 N          16.9097   70.2800   -5.8450 N.ar    1  UNL1       -0.2551
     18 N          15.8794   69.5581   -3.8291 N.ar    1  UNL1       -0.2743
     19 C          16.3677   69.2103   -5.0951 C.ar    1  UNL1        0.3323
     20 C          16.9308   71.5651   -5.3141 C.ar    1  UNL1        0.0869
     21 C          16.4599   71.8805   -4.1058 C.ar    1  UNL1        0.0795
     22 C          15.8767   70.8208   -3.2579 C.ar    1  UNL1        0.2626
     23 H          15.4967   68.8291   -3.2888 H       1  UNL1        0.1734
     24 O          22.0298   71.8801   -4.0957 O.3     1  UNL1       -0.2703
     25 P          23.2535   71.9682   -3.0433 P.3     1  UNL1        0.2208
     26 O          23.9194   73.4065   -3.3680 O.co2   1  UNL1       -0.4371
     27 O          24.2099   70.8131   -3.1134 O.2     1  UNL1       -0.5170
     28 O          22.5437   72.1627   -1.6068 O.3     1  UNL1       -0.2858
     29 O          22.2873   73.9956   -0.1265 O.3     1  UNL1       -0.3258
     30 O          23.2168   71.0549    2.6193 O.3     1  UNL1       -0.3794
     31 O          20.5280   72.0523    2.4653 O.3     1  UNL1       -0.3794
     32 O          24.5464   71.1022    0.0484 O.3     1  UNL1       -0.3775
     33 C          22.6320   71.5867    1.4274 C.3     1  UNL1        0.1715
     34 C          21.6374   72.6785    1.8271 C.3     1  UNL1        0.1694
     35 C          23.7366   72.1631    0.5437 C.3     1  UNL1        0.1967
     36 C          21.1691   73.4764    0.6027 C.3     1  UNL1        0.1761
     37 C          23.1637   72.9790   -0.6166 C.3     1  UNL1        0.2704
     38 H          22.5207   70.6868    3.1846 H       1  UNL1        0.2105
     39 H          20.8374   71.5514    3.2364 H       1  UNL1        0.2105
     40 H          24.9033   70.5936    0.7925 H       1  UNL1        0.2106
     41 O          19.0669   74.5729    0.3068 O.3     1  UNL1       -0.3794
     42 C          20.3001   74.6691    0.9956 C.3     1  UNL1        0.1693
     43 H          18.5034   75.3254    0.5474 H       1  UNL1        0.2105
@<TRIPOS>UNITY_ATOM_ATTR
2 1
charge -1
26 1
charge -1
@<TRIPOS>BOND
     1    25    28    1
     2    25    24    1
     3    25    26    1
     4    25    27    2
     5     1     4    1
     6     1    24    1
     7     1     2    1
     8     1     3    2
     9     6    11    1
    10     6    12    1
    11    29    36    1
    12    29    37    1
    13     7     9    1
    14     7    13    1
    15     8    10    1
    16     8    14    1
    17    28    37    1
    18     4     5    1
    19    30    33    1
    20    30    38    1
    21    31    34    1
    22    31    39    1
    23    32    35    1
    24    32    40    1
    25    41    42    1
    26    41    43    1
    27    15    19    2
    28    16    22    2
    29    17    12    1
    30    17    19   ar
    31    17    20   ar
    32    18    19   ar
    33    18    22   ar
    34    18    23    1
    35     9    10    1
    36     9    11    1
    37    10    12    1
    38    11     5    1
    39    33    34    1
    40    33    35    1
    41    34    36    1
    42    35    37    1
    43    36    42    1
    44    20    21   ar
    45    21    22   ar
@<TRIPOS>MOLECULE
*****
 43 45 0 0 0
SMALL
GASTEIGER

@<TRIPOS>ATOM
      1 P          23.2183   72.1157   -3.5817 P.3     1  UNL1        0.2189
      2 O          23.9307   72.9917   -4.7404 O.co2   1  UNL1       -0.4371
      3 O          24.0436   70.9828   -3.0460 O.2     1  UNL1       -0.5170
      4 O          21.7934   71.7029   -4.2276 O.3     1  UNL1       -0.3112
      5 C          21.0873   70.6106   -3.6653 C.3     1  UNL1        0.1811
      6 O          19.1131   71.6622   -4.5431 O.3     1  UNL1       -0.3308
      7 O          17.6485   70.3992   -2.2517 O.3     1  UNL1       -0.3794
      8 O          17.0345   68.7471   -4.3326 O.3     1  UNL1       -0.3779
      9 C          18.7352   69.8861   -3.0205 C.3     1  UNL1        0.1713
     10 C          18.2539   69.4587   -4.3914 C.3     1  UNL1        0.1895
     11 C          19.6619   71.0478   -3.3566 C.3     1  UNL1        0.1764
     12 C          18.1189   70.7917   -5.1076 C.3     1  UNL1        0.2383
     13 H          17.0431   69.6753   -2.0247 H       1  UNL1        0.2105
     14 H          17.1723   67.9069   -3.8680 H       1  UNL1        0.2106
     15 O          16.2091   69.8434   -6.9600 O.2     1  UNL1       -0.2464
     16 O          19.1001   70.4032  -10.5054 O.2     1  UNL1       -0.2670
     17 N          18.3457   70.6795   -6.5209 N.ar    1  UNL1       -0.2551
     18 N          17.6501   70.1231   -8.7238 N.ar    1  UNL1       -0.2743
     19 C          17.3209   70.1903   -7.3640 C.ar    1  UNL1        0.3323
     20 C          19.5732   71.0527   -7.0575 C.ar    1  UNL1        0.0869
     21 C          19.8717   70.9813   -8.3564 C.ar    1  UNL1        0.0795
     22 C          18.8562   70.4809   -9.3052 C.ar    1  UNL1        0.2626
     23 H          16.9517   69.7849   -9.3302 H       1  UNL1        0.1734
     24 O          22.8104   73.2291   -2.4832 O.3     1  UNL1       -0.2703
     25 P          23.6085   74.5248   -1.9380 P.3     1  UNL1        0.2208
     26 O          22.4223   75.5435   -1.5224 O.co2   1  UNL1       -0.4371
     27 O          24.5991   75.0925   -2.9129 O.2     1  UNL1       -0.5170
     28 O          24.2483   74.0498   -0.5345 O.3     1  UNL1       -0.2858
     29 O          22.4897   73.6204    0.9951 O.3     1  UNL1       -0.3258
     30 O          25.7094   73.0862    3.5247 O.3     1  UNL1       -0.3794
     31 O          24.2015   70.8048    2.6476 O.3     1  UNL1       -0.3794
     32 O          25.7719   75.1842    1.5312 O.3     1  UNL1       -0.3775
     33 C          25.0058   73.0273    2.2810 C.3     1  UNL1        0.1715
     34 C          23.7668   72.1503    2.4721 C.3     1  UNL1        0.1694
     35 C          24.6046   74.4419    1.8670 C.3     1  UNL1        0.1967
     36 C          22.8233   72.2540    1.2662 C.3     1  UNL1        0.1761
     37 C          23.6269   74.4302    0.6905 C.3     1  UNL1        0.2704
     38 H          25.9675   72.1912    3.7930 H       1  UNL1        0.2105
     39 H          24.7969   70.7531    3.4118 H       1  UNL1        0.2105
     40 H          26.3826   75.1843    2.2841 H       1  UNL1        0.2106
     41 O          21.6692   70.1699    1.0827 O.3     1  UNL1       -0.3794
     42 C          21.5094   71.5125    1.5025 C.3     1  UNL1        0.1693
     43 H          20.8408   69.6857    1.2275 H       1  UNL1        0.2105
@<TRIPOS>UNITY_ATOM_ATTR
2 1
charge -1
26 1
charge -1
@<TRIPOS>BOND
     1    25    28    1
     2    25    24    1
     3    25    26    1
     4    25    27    2
     5     1     4    1
     6     1    24    1
     7     1     2    1
     8     1     3    2
     9     6    11    1
    10     6    12    1
    11    29    36    1
    12    29    37    1
    13     7     9    1
    14     7    13    1
    15     8    10    1
    16     8    14    1
    17    28    37    1
    18     4     5    1
    19    30    33    1
    20    30    38    1
    21    31    34    1
    22    31    39    1
    23    32    35    1
    24    32    40    1
    25    41    42    1
    26    41    43    1
    27    15    19    2
    28    16    22    2
    29    17    12    1
    30    17    19   ar
    31    17    20   ar
    32    18    19   ar
    33    18    22   ar
    34    18    23    1
    35     9    10    1
    36     9    11    1
    37    10    12    1
    38    11     5    1
    39    33    34    1
    40    33    35    1
    41    34    36    1
    42    35    37    1
    43    36    42    1
    44    20    21   ar
    45    21    22   ar
@<TRIPOS>MOLECULE
*****
 43 45 0 0 0
SMALL
GASTEIGER

@<TRIPOS>ATOM
      1 P          23.0675   72.1544   -3.6287 P.3     1  UNL1        0.2189
      2 O          23.4106   70.6257   -3.2252 O.co2   1  UNL1       -0.4371
      3 O          24.2004   72.9145   -4.2532 O.2     1  UNL1       -0.5170
      4 O          22.4611   72.7882   -2.2691 O.3     1  UNL1       -0.3112
      5 C          23.2794   72.8164   -1.1127 C.3     1  UNL1        0.1811
      6 O          24.2873   71.3045    0.4596 O.3     1  UNL1       -0.3308
      7 O          21.5403   70.1640    0.8390 O.3     1  UNL1       -0.3794
      8 O          21.8253   71.7678    3.0261 O.3     1  UNL1       -0.3779
      9 C          21.9319   71.5167    0.6101 C.3     1  UNL1        0.1713
     10 C          22.5513   72.1036    1.8612 C.3     1  UNL1        0.1895
     11 C          23.1113   71.5069   -0.3543 C.3     1  UNL1        0.1764
     12 C          23.9414   71.4909    1.8418 C.3     1  UNL1        0.2383
     13 H          20.7880   70.1447    1.4519 H       1  UNL1        0.2105
     14 H          20.9485   72.1811    2.9911 H       1  UNL1        0.2106
     15 O          26.6063   70.7220    2.3758 O.2     1  UNL1       -0.2464
     16 O          27.6167   74.8278    4.2097 O.2     1  UNL1       -0.2670
     17 N          24.9225   72.3392    2.4577 N.ar    1  UNL1       -0.2551
     18 N          27.1073   72.7671    3.2883 N.ar    1  UNL1       -0.2743
     19 C          26.2327   71.8561    2.6824 C.ar    1  UNL1        0.3323
     20 C          24.5818   73.6346    2.8317 C.ar    1  UNL1        0.0869
     21 C          25.4273   74.4904    3.4097 C.ar    1  UNL1        0.0795
     22 C          26.8156   74.0642    3.6795 C.ar    1  UNL1        0.2626
     23 H          28.0254   72.4524    3.4550 H       1  UNL1        0.1734
     24 O          21.7627   71.9977   -4.5700 O.3     1  UNL1       -0.2703
     25 P          20.4328   72.9072   -4.7009 P.3     1  UNL1        0.2208
     26 O          21.0224   74.3926   -4.9524 O.co2   1  UNL1       -0.4371
     27 O          19.4978   72.8020   -3.5310 O.2     1  UNL1       -0.5170
     28 O          19.7842   72.4811   -6.1160 O.3     1  UNL1       -0.2858
     29 O          18.9027   70.2836   -6.0114 O.3     1  UNL1       -0.3258
     30 O          18.5134   70.9583  -10.0665 O.3     1  UNL1       -0.3794
     31 O          16.1731   70.9342   -8.4020 O.3     1  UNL1       -0.3794
     32 O          20.8443   71.9380   -8.6570 O.3     1  UNL1       -0.3775
     33 C          18.5182   71.3134   -8.6811 C.3     1  UNL1        0.1715
     34 C          17.4519   70.4791   -7.9686 C.3     1  UNL1        0.1694
     35 C          19.9012   71.0298   -8.0979 C.3     1  UNL1        0.1967
     36 C          17.5760   70.6065   -6.4443 C.3     1  UNL1        0.1761
     37 C          19.9033   71.1360   -6.5719 C.3     1  UNL1        0.2704
     38 H          17.6382   71.1363  -10.4430 H       1  UNL1        0.2105
     39 H          16.1080   70.8489   -9.3662 H       1  UNL1        0.2105
     40 H          20.8336   71.8609   -9.6233 H       1  UNL1        0.2106
     41 O          15.6528   69.2012   -6.6319 O.3     1  UNL1       -0.3794
     42 C          16.6256   69.6617   -5.7121 C.3     1  UNL1        0.1693
     43 H          15.0410   68.5985   -6.1799 H       1  UNL1        0.2105
@<TRIPOS>UNITY_ATOM_ATTR
2 1
charge -1
26 1
charge -1
@<TRIPOS>BOND
     1    25    28    1
     2    25    24    1
     3    25    26    1
     4    25    27    2
     5     1     4    1
     6     1    24    1
     7     1     2    1
     8     1     3    2
     9     6    11    1
    10     6    12    1
    11    29    36    1
    12    29    37    1
    13     7     9    1
    14     7    13    1
    15     8    10    1
    16     8    14    1
    17    28    37    1
    18     4     5    1
    19    30    33    1
    20    30    38    1
    21    31    34    1
    22    31    39    1
    23    32    35    1
    24    32    40    1
    25    41    42    1
    26    41    43    1
    27    15    19    2
    28    16    22    2
    29    17    12    1
    30    17    19   ar
    31    17    20   ar
    32    18    19   ar
    33    18    22   ar
    34    18    23    1
    35     9    10    1
    36     9    11    1
    37    10    12    1
    38    11     5    1
    39    33    34    1
    40    33    35    1
    41    34    36    1
    42    35    37    1
    43    36    42    1
    44    20    21   ar
    45    21    22   ar
@<TRIPOS>MOLECULE
*****
 43 45 0 0 0
SMALL
GASTEIGER

@<TRIPOS>ATOM
      1 P          20.6653   72.2733   -0.9589 P.3     1  UNL1        0.2189
      2 O          20.2733   70.7066   -1.0557 O.co2   1  UNL1       -0.4371
      3 O          19.6474   73.1403   -0.2781 O.2     1  UNL1       -0.5170
      4 O          21.0264   72.6782   -2.4833 O.3     1  UNL1       -0.3112
      5 C          20.3799   71.9868   -3.5377 C.3     1  UNL1        0.1811
      6 O          20.7842   70.7347   -5.5484 O.3     1  UNL1       -0.3308
      7 O          23.1739   72.5018   -5.9454 O.3     1  UNL1       -0.3794
      8 O          21.3388   73.5938   -7.6415 O.3     1  UNL1       -0.3779
      9 C          21.8941   72.8234   -5.4033 C.3     1  UNL1        0.1713
     10 C          20.8599   72.9009   -6.5069 C.3     1  UNL1        0.1895
     11 C          21.4106   71.6238   -4.5979 C.3     1  UNL1        0.1764
     12 C          20.5900   71.4327   -6.7893 C.3     1  UNL1        0.2383
     13 H          23.5034   73.2532   -6.4638 H       1  UNL1        0.2105
     14 H          21.4953   74.5228   -7.4110 H       1  UNL1        0.2106
     15 O          19.8967   69.6014   -8.8250 O.2     1  UNL1       -0.2464
     16 O          15.4172   70.6276   -8.4755 O.2     1  UNL1       -0.2670
     17 N          19.2500   71.2009   -7.2500 N.ar    1  UNL1       -0.2551
     18 N          17.6668   70.1137   -8.6492 N.ar    1  UNL1       -0.2743
     19 C          19.0096   70.2602   -8.2784 C.ar    1  UNL1        0.3323
     20 C          18.1913   71.9021   -6.6831 C.ar    1  UNL1        0.0869
     21 C          16.9166   71.7519   -7.0489 C.ar    1  UNL1        0.0795
     22 C          16.5796   70.7885   -8.1168 C.ar    1  UNL1        0.2626
     23 H          17.4753   69.4641   -9.3641 H       1  UNL1        0.1734
     24 O          22.1121   72.2422   -0.2388 O.3     1  UNL1       -0.2703
     25 P          22.7065   71.2702    0.9079 P.3     1  UNL1        0.2208
     26 O          24.1225   70.7899    0.2899 O.co2   1  UNL1       -0.4371
     27 O          21.7893   70.1480    1.2996 O.2     1  UNL1       -0.5170
     28 O          23.1050   72.2616    2.1176 O.3     1  UNL1       -0.2858
     29 O          21.8467   73.5586    3.6509 O.3     1  UNL1       -0.3258
     30 O          24.8097   76.2904    2.7517 O.3     1  UNL1       -0.3794
     31 O          24.7970   75.0066    5.3207 O.3     1  UNL1       -0.3794
     32 O          23.7421   74.5817    0.6733 O.3     1  UNL1       -0.3775
     33 C          24.2655   74.9893    2.9887 C.3     1  UNL1        0.1715
     34 C          23.7017   74.9570    4.4106 C.3     1  UNL1        0.1694
     35 C          23.1635   74.7155    1.9670 C.3     1  UNL1        0.1967
     36 C          22.8674   73.6908    4.6471 C.3     1  UNL1        0.1761
     37 C          22.3630   73.4612    2.3221 C.3     1  UNL1        0.2704
     38 H          25.5104   76.4703    3.3969 H       1  UNL1        0.2105
     39 H          25.3159   75.8105    5.1605 H       1  UNL1        0.2105
     40 H          24.2458   75.3822    0.4602 H       1  UNL1        0.2106
     41 O          23.1164   73.3993    7.0055 O.3     1  UNL1       -0.3794
     42 C          22.1665   73.7128    6.0037 C.3     1  UNL1        0.1693
     43 H          22.6846   73.4099    7.8744 H       1  UNL1        0.2105
@<TRIPOS>UNITY_ATOM_ATTR
2 1
charge -1
26 1
charge -1
@<TRIPOS>BOND
     1    25    28    1
     2    25    24    1
     3    25    26    1
     4    25    27    2
     5     1     4    1
     6     1    24    1
     7     1     2    1
     8     1     3    2
     9     6    11    1
    10     6    12    1
    11    29    36    1
    12    29    37    1
    13     7     9    1
    14     7    13    1
    15     8    10    1
    16     8    14    1
    17    28    37    1
    18     4     5    1
    19    30    33    1
    20    30    38    1
    21    31    34    1
    22    31    39    1
    23    32    35    1
    24    32    40    1
    25    41    42    1
    26    41    43    1
    27    15    19    2
    28    16    22    2
    29    17    12    1
    30    17    19   ar
    31    17    20   ar
    32    18    19   ar
    33    18    22   ar
    34    18    23    1
    35     9    10    1
    36     9    11    1
    37    10    12    1
    38    11     5    1
    39    33    34    1
    40    33    35    1
    41    34    36    1
    42    35    37    1
    43    36    42    1
    44    20    21   ar
    45    21    22   ar
@<TRIPOS>MOLECULE
*****
 43 45 0 0 0
SMALL
GASTEIGER

@<TRIPOS>ATOM
      1 P          21.6172   74.0591   -1.6286 P.3     1  UNL1        0.2189
      2 O          20.6302   74.9016   -0.6625 O.co2   1  UNL1       -0.4371
      3 O          22.9733   74.6673   -1.8349 O.2     1  UNL1       -0.5170
      4 O          20.7414   73.8239   -2.9686 O.3     1  UNL1       -0.3112
      5 C          20.4146   72.4956   -3.3383 C.3     1  UNL1        0.1811
      6 O          20.8692   70.9187   -5.0934 O.3     1  UNL1       -0.3308
      7 O          23.2105   72.6564   -5.7930 O.3     1  UNL1       -0.3794
      8 O          21.3577   73.3754   -7.6603 O.3     1  UNL1       -0.3779
      9 C          21.9181   73.0316   -5.3195 C.3     1  UNL1        0.1713
     10 C          20.8903   72.8813   -6.4216 C.3     1  UNL1        0.1895
     11 C          21.4630   71.9805   -4.3148 C.3     1  UNL1        0.1764
     12 C          20.6643   71.3791   -6.4391 C.3     1  UNL1        0.2383
     13 H          23.5223   73.3131   -6.4360 H       1  UNL1        0.2105
     14 H          21.4859   74.3348   -7.5983 H       1  UNL1        0.2106
     15 O          19.8506   71.1151   -9.1310 O.2     1  UNL1       -0.2464
     16 O          15.5384   70.0370   -7.9131 O.2     1  UNL1       -0.2670
     17 N          19.3350   71.0299   -6.8541 N.ar    1  UNL1       -0.2551
     18 N          17.7042   70.5783   -8.5223 N.ar    1  UNL1       -0.2743
     19 C          19.0299   70.9244   -8.2312 C.ar    1  UNL1        0.3323
     20 C          18.3503   70.7959   -5.9005 C.ar    1  UNL1        0.0869
     21 C          17.0904   70.4680   -6.1946 C.ar    1  UNL1        0.0795
     22 C          16.6891   70.3370   -7.6102 C.ar    1  UNL1        0.2626
     23 H          17.4684   70.4994   -9.4752 H       1  UNL1        0.1734
     24 O          21.6336   72.5950   -0.9437 O.3     1  UNL1       -0.2703
     25 P          21.2869   72.1241    0.5632 P.3     1  UNL1        0.2208
     26 O          20.9784   70.5446    0.3967 O.co2   1  UNL1       -0.4371
     27 O          20.1821   72.9056    1.2134 O.2     1  UNL1       -0.5170
     28 O          22.6978   72.1836    1.3447 O.3     1  UNL1       -0.2858
     29 O          24.4851   73.4898    0.4985 O.3     1  UNL1       -0.3258
     30 O          26.6411   70.8602    2.8411 O.3     1  UNL1       -0.3794
     31 O          26.3307   73.5868    3.6880 O.3     1  UNL1       -0.3794
     32 O          24.3508   69.9159    1.3437 O.3     1  UNL1       -0.3775
     33 C          25.5208   71.6789    2.4944 C.3     1  UNL1        0.1715
     34 C          26.0020   73.1267    2.3801 C.3     1  UNL1        0.1694
     35 C          24.9435   71.1977    1.1645 C.3     1  UNL1        0.1967
     36 C          24.9234   74.0212    1.7543 C.3     1  UNL1        0.1761
     37 C          23.9161   72.1834    0.6051 C.3     1  UNL1        0.2704
     38 H          27.0121   71.1602    3.6848 H       1  UNL1        0.2105
     39 H          27.0123   73.0132    4.0721 H       1  UNL1        0.2105
     40 H          25.0113   69.3010    1.6979 H       1  UNL1        0.2106
     41 O          24.8623   75.8995    0.2788 O.3     1  UNL1       -0.3794
     42 C          25.4371   75.4341    1.4860 C.3     1  UNL1        0.1693
     43 H          25.1801   76.7979    0.0954 H       1  UNL1        0.2105
@<TRIPOS>UNITY_ATOM_ATTR
2 1
charge -1
26 1
charge -1
@<TRIPOS>BOND
     1    25    28    1
     2    25    24    1
     3    25    26    1
     4    25    27    2
     5     1     4    1
     6     1    24    1
     7     1     2    1
     8     1     3    2
     9     6    11    1
    10     6    12    1
    11    29    36    1
    12    29    37    1
    13     7     9    1
    14     7    13    1
    15     8    10    1
    16     8    14    1
    17    28    37    1
    18     4     5    1
    19    30    33    1
    20    30    38    1
    21    31    34    1
    22    31    39    1
    23    32    35    1
    24    32    40    1
    25    41    42    1
    26    41    43    1
    27    15    19    2
    28    16    22    2
    29    17    12    1
    30    17    19   ar
    31    17    20   ar
    32    18    19   ar
    33    18    22   ar
    34    18    23    1
    35     9    10    1
    36     9    11    1
    37    10    12    1
    38    11     5    1
    39    33    34    1
    40    33    35    1
    41    34    36    1
    42    35    37    1
    43    36    42    1
    44    20    21   ar
    45    21    22   ar
@<TRIPOS>MOLECULE
*****
 43 45 0 0 0
SMALL
GASTEIGER

@<TRIPOS>ATOM
      1 P          20.4623   71.0306   -1.2470 P.3     1  UNL1        0.2189
      2 O          21.6982   71.1352   -2.2858 O.co2   1  UNL1       -0.4371
      3 O          20.8303   70.5641    0.1308 O.2     1  UNL1       -0.5170
      4 O          19.3738   70.1239   -2.0285 O.3     1  UNL1       -0.3112
      5 C          19.1106   70.4081   -3.3915 C.3     1  UNL1        0.1811
      6 O          17.4516   71.4053   -4.8152 O.3     1  UNL1       -0.3308
      7 O          15.4328   69.8423   -3.2428 O.3     1  UNL1       -0.3794
      8 O          15.7009   68.3537   -5.5120 O.3     1  UNL1       -0.3779
      9 C          16.7558   69.4748   -3.6300 C.3     1  UNL1        0.1713
     10 C          16.7990   69.1459   -5.1077 C.3     1  UNL1        0.1895
     11 C          17.6296   70.7207   -3.5558 C.3     1  UNL1        0.1764
     12 C          16.7866   70.5279   -5.7386 C.3     1  UNL1        0.2383
     13 H          14.8562   69.0625   -3.2821 H       1  UNL1        0.2105
     14 H          15.7538   67.4849   -5.0840 H       1  UNL1        0.2106
     15 O          15.5152   70.5889   -8.2601 O.2     1  UNL1       -0.2464
     16 O          19.5454   70.6569  -10.4948 O.2     1  UNL1       -0.2670
     17 N          17.4793   70.5623   -6.9957 N.ar    1  UNL1       -0.2551
     18 N          17.5230   70.6229   -9.3708 N.ar    1  UNL1       -0.2743
     19 C          16.7467   70.5902   -8.2052 C.ar    1  UNL1        0.3323
     20 C          18.8697   70.5684   -7.0208 C.ar    1  UNL1        0.0869
     21 C          19.5951   70.5984   -8.1407 C.ar    1  UNL1        0.0795
     22 C          18.9067   70.6290   -9.4474 C.ar    1  UNL1        0.2626
     23 H          17.0342   70.6424  -10.2254 H       1  UNL1        0.1734
     24 O          19.8123   72.5095   -1.3053 O.3     1  UNL1       -0.2703
     25 P          20.4173   73.9518   -0.8969 P.3     1  UNL1        0.2208
     26 O          19.6365   74.3066    0.4750 O.co2   1  UNL1       -0.4371
     27 O          20.2936   74.9966   -1.9678 O.2     1  UNL1       -0.5170
     28 O          21.9328   73.6432   -0.4353 O.3     1  UNL1       -0.2858
     29 O          23.9599   74.5147   -1.3002 O.3     1  UNL1       -0.3258
     30 O          21.4474   77.6632   -2.2085 O.3     1  UNL1       -0.3794
     31 O          22.4092   75.9636   -4.3143 O.3     1  UNL1       -0.3794
     32 O          21.1246   76.2318    0.2868 O.3     1  UNL1       -0.3775
     33 C          21.8010   76.2898   -2.0242 C.3     1  UNL1        0.1715
     34 C          22.9379   75.9533   -2.9912 C.3     1  UNL1        0.1694
     35 C          22.2450   76.0784   -0.5780 C.3     1  UNL1        0.1967
     36 C          23.5502   74.5830   -2.6710 C.3     1  UNL1        0.1761
     37 C          22.8842   74.7029   -0.3786 C.3     1  UNL1        0.2704
     38 H          21.1641   77.8041   -3.1247 H       1  UNL1        0.2105
     39 H          22.0253   76.8342   -4.5036 H       1  UNL1        0.2105
     40 H          20.7291   77.1065    0.1512 H       1  UNL1        0.2106
     41 O          24.5952   73.0635   -4.1902 O.3     1  UNL1       -0.3794
     42 C          24.7862   74.2962   -3.5208 C.3     1  UNL1        0.1693
     43 H          25.3739   72.8682   -4.7353 H       1  UNL1        0.2105
@<TRIPOS>UNITY_ATOM_ATTR
2 1
charge -1
26 1
charge -1
@<TRIPOS>BOND
     1    25    28    1
     2    25    24    1
     3    25    26    1
     4    25    27    2
     5     1     4    1
     6     1    24    1
     7     1     2    1
     8     1     3    2
     9     6    11    1
    10     6    12    1
    11    29    36    1
    12    29    37    1
    13     7     9    1
    14     7    13    1
    15     8    10    1
    16     8    14    1
    17    28    37    1
    18     4     5    1
    19    30    33    1
    20    30    38    1
    21    31    34    1
    22    31    39    1
    23    32    35    1
    24    32    40    1
    25    41    42    1
    26    41    43    1
    27    15    19    2
    28    16    22    2
    29    17    12    1
    30    17    19   ar
    31    17    20   ar
    32    18    19   ar
    33    18    22   ar
    34    18    23    1
    35     9    10    1
    36     9    11    1
    37    10    12    1
    38    11     5    1
    39    33    34    1
    40    33    35    1
    41    34    36    1
    42    35    37    1
    43    36    42    1
    44    20    21   ar
    45    21    22   ar
@<TRIPOS>MOLECULE
*****
 43 45 0 0 0
SMALL
GASTEIGER

@<TRIPOS>ATOM
      1 P          21.6540   72.0942   -3.4616 P.3     1  UNL1        0.2189
      2 O          22.3433   70.6743   -3.1063 O.co2   1  UNL1       -0.4371
      3 O          21.5160   73.0390   -2.3042 O.2     1  UNL1       -0.5170
      4 O          20.2748   71.6823   -4.2007 O.3     1  UNL1       -0.3112
      5 C          19.5147   70.6126   -3.6661 C.3     1  UNL1        0.1811
      6 O          17.7929   71.5422   -5.0609 O.3     1  UNL1       -0.3308
      7 O          15.8406   70.1838   -3.2349 O.3     1  UNL1       -0.3794
      8 O          15.9158   68.5029   -5.3809 O.3     1  UNL1       -0.3779
      9 C          17.1242   69.7415   -3.6730 C.3     1  UNL1        0.1713
     10 C          17.0599   69.2891   -5.1169 C.3     1  UNL1        0.1895
     11 C          18.0352   70.9595   -3.7616 C.3     1  UNL1        0.1764
     12 C          17.0440   70.6132   -5.8615 C.3     1  UNL1        0.2383
     13 H          15.2413   69.4231   -3.1704 H       1  UNL1        0.2105
     14 H          15.9730   67.6716   -4.8846 H       1  UNL1        0.2106
     15 O          15.6373   70.8182   -8.3023 O.2     1  UNL1       -0.2464
     16 O          19.4813   70.2367  -10.7775 O.2     1  UNL1       -0.2670
     17 N          17.6523   70.5195   -7.1587 N.ar    1  UNL1       -0.2551
     18 N          17.5525   70.5287   -9.5328 N.ar    1  UNL1       -0.2743
     19 C          16.8562   70.6349   -8.3220 C.ar    1  UNL1        0.3323
     20 C          19.0235   70.3157   -7.2679 C.ar    1  UNL1        0.0869
     21 C          19.6721   70.2153   -8.4300 C.ar    1  UNL1        0.0795
     22 C          18.9139   70.3249   -9.6930 C.ar    1  UNL1        0.2626
     23 H          17.0184   70.6056  -10.3566 H       1  UNL1        0.1734
     24 O          22.5660   72.6471   -4.6764 O.3     1  UNL1       -0.2703
     25 P          22.1672   73.4381   -6.0284 P.3     1  UNL1        0.2208
     26 O          20.9718   74.4163   -5.5471 O.co2   1  UNL1       -0.4371
     27 O          21.8103   72.5450   -7.1813 O.2     1  UNL1       -0.5170
     28 O          23.4138   74.4245   -6.3075 O.3     1  UNL1       -0.2858
     29 O          23.6242   76.6779   -5.6042 O.3     1  UNL1       -0.3258
     30 O          25.7851   76.8785   -9.1172 O.3     1  UNL1       -0.3794
     31 O          27.1611   76.9801   -6.5984 O.3     1  UNL1       -0.3794
     32 O          23.3888   75.2598   -8.9864 O.3     1  UNL1       -0.3775
     33 C          25.2993   76.2663   -7.9195 C.3     1  UNL1        0.1715
     34 C          25.7488   77.1168   -6.7298 C.3     1  UNL1        0.1694
     35 C          23.7749   76.1903   -7.9806 C.3     1  UNL1        0.1967
     36 C          25.0469   76.6771   -5.4379 C.3     1  UNL1        0.1761
     37 C          23.1747   75.7918   -6.6311 C.3     1  UNL1        0.2704
     38 H          26.7525   76.9294   -9.0850 H       1  UNL1        0.2105
     39 H          27.5922   77.2605   -7.4210 H       1  UNL1        0.2105
     40 H          23.7748   75.5234   -9.8358 H       1  UNL1        0.2106
     41 O          25.6463   78.8970   -4.7883 O.3     1  UNL1       -0.3794
     42 C          25.3601   77.6108   -4.2707 C.3     1  UNL1        0.1693
     43 H          25.8472   79.5020   -4.0567 H       1  UNL1        0.2105
@<TRIPOS>UNITY_ATOM_ATTR
2 1
charge -1
26 1
charge -1
@<TRIPOS>BOND
     1    25    28    1
     2    25    24    1
     3    25    26    1
     4    25    27    2
     5     1     4    1
     6     1    24    1
     7     1     2    1
     8     1     3    2
     9     6    11    1
    10     6    12    1
    11    29    36    1
    12    29    37    1
    13     7     9    1
    14     7    13    1
    15     8    10    1
    16     8    14    1
    17    28    37    1
    18     4     5    1
    19    30    33    1
    20    30    38    1
    21    31    34    1
    22    31    39    1
    23    32    35    1
    24    32    40    1
    25    41    42    1
    26    41    43    1
    27    15    19    2
    28    16    22    2
    29    17    12    1
    30    17    19   ar
    31    17    20   ar
    32    18    19   ar
    33    18    22   ar
    34    18    23    1
    35     9    10    1
    36     9    11    1
    37    10    12    1
    38    11     5    1
    39    33    34    1
    40    33    35    1
    41    34    36    1
    42    35    37    1
    43    36    42    1
    44    20    21   ar
    45    21    22   ar
@<TRIPOS>MOLECULE
*****
 43 45 0 0 0
SMALL
GASTEIGER

@<TRIPOS>ATOM
      1 P          23.5021   71.9845   -3.2869 P.3     1  UNL1        0.2189
      2 O          24.1711   73.0146   -4.3398 O.co2   1  UNL1       -0.4371
      3 O          24.3088   70.7505   -3.0077 O.2     1  UNL1       -0.5170
      4 O          22.0171   71.7342   -3.8785 O.3     1  UNL1       -0.3112
      5 C          21.5401   72.5978   -4.8956 C.3     1  UNL1        0.1811
      6 O          20.6438   70.6034   -5.8920 O.3     1  UNL1       -0.3308
      7 O          20.9497   72.0057   -8.5246 O.3     1  UNL1       -0.3794
      8 O          18.2877   72.2902   -8.0054 O.3     1  UNL1       -0.3779
      9 C          20.5862   72.5420   -7.2536 C.3     1  UNL1        0.1713
     10 C          19.1645   72.1528   -6.9058 C.3     1  UNL1        0.1895
     11 C          21.3875   71.8060   -6.1871 C.3     1  UNL1        0.1764
     12 C          19.3316   70.7075   -6.4684 C.3     1  UNL1        0.2383
     13 H          20.4509   72.4605   -9.2219 H       1  UNL1        0.2105
     14 H          18.2146   73.2270   -8.2457 H       1  UNL1        0.2106
     15 O          16.7305   69.7903   -7.0775 O.2     1  UNL1       -0.2464
     16 O          15.6851   69.2353   -2.6233 O.2     1  UNL1       -0.2670
     17 N          18.3590   70.3162   -5.4874 N.ar    1  UNL1       -0.2551
     18 N          16.2121   69.5146   -4.8592 N.ar    1  UNL1       -0.2743
     19 C          17.0810   69.8711   -5.8984 C.ar    1  UNL1        0.3323
     20 C          18.6765   70.3756   -4.1348 C.ar    1  UNL1        0.0869
     21 C          17.8361   70.0332   -3.1560 C.ar    1  UNL1        0.0795
     22 C          16.4807   69.5574   -3.5002 C.ar    1  UNL1        0.2626
     23 H          15.3160   69.2018   -5.1216 H       1  UNL1        0.1734
     24 O          23.2261   72.9145   -1.9939 O.3     1  UNL1       -0.2703
     25 P          23.3830   74.5091   -1.7803 P.3     1  UNL1        0.2208
     26 O          22.4706   75.1333   -2.9615 O.co2   1  UNL1       -0.4371
     27 O          24.8045   74.9922   -1.7748 O.2     1  UNL1       -0.5170
     28 O          22.5650   74.8221   -0.4246 O.3     1  UNL1       -0.2858
     29 O          20.7753   73.2748   -0.5643 O.3     1  UNL1       -0.3258
     30 O          20.0274   74.8112    3.1949 O.3     1  UNL1       -0.3794
     31 O          21.0706   72.1483    2.9332 O.3     1  UNL1       -0.3794
     32 O          20.9514   76.5573    1.0789 O.3     1  UNL1       -0.3775
     33 C          20.8432   74.3796    2.1023 C.3     1  UNL1        0.1715
     34 C          20.5509   72.9008    1.8406 C.3     1  UNL1        0.1694
     35 C          20.5122   75.2194    0.8700 C.3     1  UNL1        0.1967
     36 C          21.1842   72.4358    0.5223 C.3     1  UNL1        0.1761
     37 C          21.1514   74.6429   -0.3946 C.3     1  UNL1        0.2704
     38 H          20.2329   74.2823    3.9807 H       1  UNL1        0.2105
     39 H          20.6630   72.4521    3.7595 H       1  UNL1        0.2105
     40 H          20.5396   76.9110    1.8822 H       1  UNL1        0.2106
     41 O          21.5122   70.1124    0.9728 O.3     1  UNL1       -0.3794
     42 C          20.7746   71.0092    0.1629 C.3     1  UNL1        0.1693
     43 H          21.2616   69.2005    0.7553 H       1  UNL1        0.2105
@<TRIPOS>UNITY_ATOM_ATTR
2 1
charge -1
26 1
charge -1
@<TRIPOS>BOND
     1    25    28    1
     2    25    24    1
     3    25    26    1
     4    25    27    2
     5     1     4    1
     6     1    24    1
     7     1     2    1
     8     1     3    2
     9     6    11    1
    10     6    12    1
    11    29    36    1
    12    29    37    1
    13     7     9    1
    14     7    13    1
    15     8    10    1
    16     8    14    1
    17    28    37    1
    18     4     5    1
    19    30    33    1
    20    30    38    1
    21    31    34    1
    22    31    39    1
    23    32    35    1
    24    32    40    1
    25    41    42    1
    26    41    43    1
    27    15    19    2
    28    16    22    2
    29    17    12    1
    30    17    19   ar
    31    17    20   ar
    32    18    19   ar
    33    18    22   ar
    34    18    23    1
    35     9    10    1
    36     9    11    1
    37    10    12    1
    38    11     5    1
    39    33    34    1
    40    33    35    1
    41    34    36    1
    42    35    37    1
    43    36    42    1
    44    20    21   ar
    45    21    22   ar
@<TRIPOS>MOLECULE
*****
 43 45 0 0 0
SMALL
GASTEIGER

@<TRIPOS>ATOM
      1 P          19.3273   71.8082   -1.7498 P.3     1  UNL1        0.2189
      2 O          17.9678   72.5025   -1.2139 O.co2   1  UNL1       -0.4371
      3 O          19.8846   70.7361   -0.8601 O.2     1  UNL1       -0.5170
      4 O          20.3114   73.0580   -2.0454 O.3     1  UNL1       -0.3112
      5 C          20.6228   73.3696   -3.3921 C.3     1  UNL1        0.1811
      6 O          22.6370   73.9609   -2.2229 O.3     1  UNL1       -0.3308
      7 O          24.1117   72.6987   -4.5083 O.3     1  UNL1       -0.3794
      8 O          24.2143   70.7610   -2.5921 O.3     1  UNL1       -0.3779
      9 C          22.8782   72.3102   -3.9060 C.3     1  UNL1        0.1713
     10 C          23.1306   71.6672   -2.5582 C.3     1  UNL1        0.1895
     11 C          22.1258   73.5771   -3.5182 C.3     1  UNL1        0.1764
     12 C          23.4061   72.8755   -1.6794 C.3     1  UNL1        0.2383
     13 H          24.6098   71.9062   -4.7648 H       1  UNL1        0.2105
     14 H          23.9903   70.0102   -3.1638 H       1  UNL1        0.2106
     15 O          24.6207   71.0100    0.0592 O.2     1  UNL1       -0.2464
     16 O          21.8101   72.1409    3.5324 O.2     1  UNL1       -0.2670
     17 N          23.0120   72.6619   -0.3154 N.ar    1  UNL1       -0.2551
     18 N          23.2204   71.5747    1.7872 N.ar    1  UNL1       -0.2743
     19 C          23.6864   71.7001    0.4723 C.ar    1  UNL1        0.3323
     20 C          21.9676   73.4021    0.2282 C.ar    1  UNL1        0.0869
     21 C          21.5344   73.2696    1.4836 C.ar    1  UNL1        0.0795
     22 C          22.1854   72.2863    2.3731 C.ar    1  UNL1        0.2626
     23 H          23.6750   70.9104    2.3545 H       1  UNL1        0.1734
     24 O          18.9200   71.3079   -3.2320 O.3     1  UNL1       -0.2703
     25 P          18.0365   70.0457   -3.7210 P.3     1  UNL1        0.2208
     26 O          16.5295   70.4654   -3.3081 O.co2   1  UNL1       -0.4371
     27 O          18.4867   68.7265   -3.1633 O.2     1  UNL1       -0.5170
     28 O          18.0569   70.1326   -5.3325 O.3     1  UNL1       -0.2858
     29 O          19.1433   71.6393   -6.8042 O.3     1  UNL1       -0.3258
     30 O          15.5863   71.1698   -8.8482 O.3     1  UNL1       -0.3794
     31 O          17.9812   69.9611   -9.8737 O.3     1  UNL1       -0.3794
     32 O          15.5834   71.3019   -5.9565 O.3     1  UNL1       -0.3775
     33 C          16.6827   70.7553   -8.0287 C.3     1  UNL1        0.1715
     34 C          17.9739   70.9314   -8.8302 C.3     1  UNL1        0.1694
     35 C          16.7132   71.6126   -6.7649 C.3     1  UNL1        0.1967
     36 C          19.2089   70.7626   -7.9351 C.3     1  UNL1        0.1761
     37 C          18.0052   71.4049   -5.9726 C.3     1  UNL1        0.2704
     38 H          15.5609   70.6290   -9.6522 H       1  UNL1        0.2105
     39 H          17.1960   70.0782  -10.4313 H       1  UNL1        0.2105
     40 H          14.7719   71.4377   -6.4693 H       1  UNL1        0.2106
     41 O          20.9645   72.3542   -8.2417 O.3     1  UNL1       -0.3794
     42 C          20.5027   71.0890   -8.6780 C.3     1  UNL1        0.1693
     43 H          21.7876   72.5749   -8.7060 H       1  UNL1        0.2105
@<TRIPOS>UNITY_ATOM_ATTR
2 1
charge -1
26 1
charge -1
@<TRIPOS>BOND
     1    25    28    1
     2    25    24    1
     3    25    26    1
     4    25    27    2
     5     1     4    1
     6     1    24    1
     7     1     2    1
     8     1     3    2
     9     6    11    1
    10     6    12    1
    11    29    36    1
    12    29    37    1
    13     7     9    1
    14     7    13    1
    15     8    10    1
    16     8    14    1
    17    28    37    1
    18     4     5    1
    19    30    33    1
    20    30    38    1
    21    31    34    1
    22    31    39    1
    23    32    35    1
    24    32    40    1
    25    41    42    1
    26    41    43    1
    27    15    19    2
    28    16    22    2
    29    17    12    1
    30    17    19   ar
    31    17    20   ar
    32    18    19   ar
    33    18    22   ar
    34    18    23    1
    35     9    10    1
    36     9    11    1
    37    10    12    1
    38    11     5    1
    39    33    34    1
    40    33    35    1
    41    34    36    1
    42    35    37    1
    43    36    42    1
    44    20    21   ar
    45    21    22   ar
@<TRIPOS>MOLECULE
*****
 43 45 0 0 0
SMALL
GASTEIGER

@<TRIPOS>ATOM
      1 P          21.8647   72.4862   -5.6215 P.3     1  UNL1        0.2189
      2 O          21.1610   73.9139   -5.3320 O.co2   1  UNL1       -0.4371
      3 O          23.1271   72.5540   -6.4296 O.2     1  UNL1       -0.5170
      4 O          20.6753   71.5874   -6.2504 O.3     1  UNL1       -0.3112
      5 C          20.1112   71.9831   -7.4885 C.3     1  UNL1        0.1811
      6 O          18.8762   69.9583   -7.1028 O.3     1  UNL1       -0.3308
      7 O          18.1379   70.0767  -10.0065 O.3     1  UNL1       -0.3794
      8 O          15.8963   71.0342   -8.7837 O.3     1  UNL1       -0.3779
      9 C          18.3077   71.1435   -9.0746 C.3     1  UNL1        0.1713
     10 C          17.1330   71.2002   -8.1204 C.3     1  UNL1        0.1895
     11 C          19.4561   70.7749   -8.1436 C.3     1  UNL1        0.1764
     12 C          17.4442   70.0572   -7.1692 C.3     1  UNL1        0.2383
     13 H          17.4098   70.2895  -10.6121 H       1  UNL1        0.2105
     14 H          15.7439   71.7864   -9.3769 H       1  UNL1        0.2106
     15 O          16.2901   68.0643   -5.5338 O.2     1  UNL1       -0.2464
     16 O          15.5075   71.0604   -2.1202 O.2     1  UNL1       -0.2670
     17 N          16.9310   70.2886   -5.8485 N.ar    1  UNL1       -0.2551
     18 N          15.9016   69.5577   -3.8354 N.ar    1  UNL1       -0.2743
     19 C          16.3707   69.2195   -5.1111 C.ar    1  UNL1        0.3323
     20 C          16.9864   71.5641   -5.2971 C.ar    1  UNL1        0.0869
     21 C          16.5334   71.8703   -4.0796 C.ar    1  UNL1        0.0795
     22 C          15.9331   70.8106   -3.2438 C.ar    1  UNL1        0.2626
     23 H          15.5067   68.8290   -3.3035 H       1  UNL1        0.1734
     24 O          22.0464   71.8637   -4.1408 O.3     1  UNL1       -0.2703
     25 P          23.2610   71.9829   -3.0808 P.3     1  UNL1        0.2208
     26 O          23.9282   73.4123   -3.4404 O.co2   1  UNL1       -0.4371
     27 O          24.2190   70.8274   -3.1101 O.2     1  UNL1       -0.5170
     28 O          22.5387   72.2171   -1.6566 O.3     1  UNL1       -0.2858
     29 O          23.4264   70.7206   -0.0475 O.3     1  UNL1       -0.3258
     30 O          20.3575   72.3467    2.1860 O.3     1  UNL1       -0.3794
     31 O          23.0751   73.0636    2.7766 O.3     1  UNL1       -0.3794
     32 O          19.9613   71.7982   -0.6285 O.3     1  UNL1       -0.3775
     33 C          21.4079   72.3536    1.2155 C.3     1  UNL1        0.1715
     34 C          22.7145   71.9834    1.9203 C.3     1  UNL1        0.1694
     35 C          21.0821   71.3400    0.1201 C.3     1  UNL1        0.1967
     36 C          23.8328   71.7095    0.9057 C.3     1  UNL1        0.1761
     37 C          22.2773   71.1044   -0.8051 C.3     1  UNL1        0.2704
     38 H          20.5580   72.9885    2.8842 H       1  UNL1        0.2105
     39 H          22.3603   73.2266    3.4121 H       1  UNL1        0.2105
     40 H          19.2114   71.9433   -0.0316 H       1  UNL1        0.2106
     41 O          24.8418   69.8848    2.0725 O.3     1  UNL1       -0.3794
     42 C          25.0999   71.1863    1.5786 C.3     1  UNL1        0.1693
     43 H          25.6397   69.5390    2.5032 H       1  UNL1        0.2105
@<TRIPOS>UNITY_ATOM_ATTR
2 1
charge -1
26 1
charge -1
@<TRIPOS>BOND
     1    25    28    1
     2    25    24    1
     3    25    26    1
     4    25    27    2
     5     1     4    1
     6     1    24    1
     7     1     2    1
     8     1     3    2
     9     6    11    1
    10     6    12    1
    11    29    36    1
    12    29    37    1
    13     7     9    1
    14     7    13    1
    15     8    10    1
    16     8    14    1
    17    28    37    1
    18     4     5    1
    19    30    33    1
    20    30    38    1
    21    31    34    1
    22    31    39    1
    23    32    35    1
    24    32    40    1
    25    41    42    1
    26    41    43    1
    27    15    19    2
    28    16    22    2
    29    17    12    1
    30    17    19   ar
    31    17    20   ar
    32    18    19   ar
    33    18    22   ar
    34    18    23    1
    35     9    10    1
    36     9    11    1
    37    10    12    1
    38    11     5    1
    39    33    34    1
    40    33    35    1
    41    34    36    1
    42    35    37    1
    43    36    42    1
    44    20    21   ar
    45    21    22   ar
