@<TRIPOS>MOLECULE
*****
 43 45 0 0 0
SMALL
GASTEIGER

@<TRIPOS>ATOM
      1 P          22.8293   72.0299   -2.5235 P.3     1  UNL1        0.2189
      2 O          23.2821   73.3911   -1.7755 O.co2   1  UNL1       -0.4371
      3 O          23.4869   71.7869   -3.8501 O.2     1  UNL1       -0.5170
      4 O          21.2138   72.1179   -2.5458 O.3     1  UNL1       -0.3112
      5 C          20.5143   71.4464   -3.5790 C.3     1  UNL1        0.1811
      6 O          18.5734   72.2259   -4.7620 O.3     1  UNL1       -0.3308
      7 O          16.9655   71.0433   -2.5244 O.3     1  UNL1       -0.3794
      8 O          16.7328   69.1604   -4.4832 O.3     1  UNL1       -0.3779
      9 C          18.1719   70.5667   -3.1184 C.3     1  UNL1        0.1713
     10 C          17.8878   69.9745   -4.4830 C.3     1  UNL1        0.1895
     11 C          19.0317   71.7748   -3.4686 C.3     1  UNL1        0.1764
     12 C          17.7260   71.2191   -5.3391 C.3     1  UNL1        0.2383
     13 H          16.4001   70.2896   -2.2917 H       1  UNL1        0.2105
     14 H          16.8856   68.3821   -3.9250 H       1  UNL1        0.2106
     15 O          15.9930   70.3184   -7.3796 O.2     1  UNL1       -0.2464
     16 O          19.3544   70.4192  -10.5311 O.2     1  UNL1       -0.2670
     17 N          18.1217   71.0017   -6.7020 N.ar    1  UNL1       -0.2551
     18 N          17.6681   70.3695   -8.9472 N.ar    1  UNL1       -0.2743
     19 C          17.1741   70.5473   -7.6486 C.ar    1  UNL1        0.3323
     20 C          19.4364   71.2390   -7.0881 C.ar    1  UNL1        0.0869
     21 C          19.8919   71.0633   -8.3302 C.ar    1  UNL1        0.0795
     22 C          18.9661   70.5905   -9.3797 C.ar    1  UNL1        0.2626
     23 H          17.0260   70.0531   -9.6235 H       1  UNL1        0.1734
     24 O          23.1159   70.8918   -1.4120 O.3     1  UNL1       -0.2703
     25 P          22.3173   70.5016   -0.0618 P.3     1  UNL1        0.2208
     26 O          23.3208   69.4703    0.6778 O.co2   1  UNL1       -0.4371
     27 O          20.9369   69.9606   -0.2979 O.2     1  UNL1       -0.5170
     28 O          22.3665   71.8376    0.8424 O.3     1  UNL1       -0.2858
     29 O          21.3515   72.2143    2.9506 O.3     1  UNL1       -0.3258
     30 O          21.0760   76.0292    1.3945 O.3     1  UNL1       -0.3794
     31 O          22.9655   75.4847    3.4877 O.3     1  UNL1       -0.3794
     32 O          20.6592   73.7360   -0.3222 O.3     1  UNL1       -0.3775
     33 C          21.6788   74.7503    1.6099 C.3     1  UNL1        0.1715
     34 C          21.9278   74.5841    3.1103 C.3     1  UNL1        0.1694
     35 C          20.7374   73.6620    1.0973 C.3     1  UNL1        0.1967
     36 C          22.3234   73.1407    3.4497 C.3     1  UNL1        0.1761
     37 C          21.1956   72.2685    1.5312 C.3     1  UNL1        0.2704
     38 H          21.6689   76.7247    1.7173 H       1  UNL1        0.2105
     39 H          22.7033   76.3925    3.2676 H       1  UNL1        0.2105
     40 H          20.3679   74.6227   -0.5841 H       1  UNL1        0.2106
     41 O          21.1268   73.0285    5.5147 O.3     1  UNL1       -0.3794
     42 C          22.4229   72.9142    4.9566 C.3     1  UNL1        0.1693
     43 H          21.1747   72.8863    6.4735 H       1  UNL1        0.2105
@<TRIPOS>UNITY_ATOM_ATTR
2 1
charge -1
26 1
charge -1
@<TRIPOS>BOND
     1    25    28    1
     2    25    24    1
     3    25    26    1
     4    25    27    2
     5     1     4    1
     6     1    24    1
     7     1     2    1
     8     1     3    2
     9     6    11    1
    10     6    12    1
    11    29    36    1
    12    29    37    1
    13     7     9    1
    14     7    13    1
    15     8    10    1
    16     8    14    1
    17    28    37    1
    18     4     5    1
    19    30    33    1
    20    30    38    1
    21    31    34    1
    22    31    39    1
    23    32    35    1
    24    32    40    1
    25    41    42    1
    26    41    43    1
    27    15    19    2
    28    16    22    2
    29    17    12    1
    30    17    19   ar
    31    17    20   ar
    32    18    19   ar
    33    18    22   ar
    34    18    23    1
    35     9    10    1
    36     9    11    1
    37    10    12    1
    38    11     5    1
    39    33    34    1
    40    33    35    1
    41    34    36    1
    42    35    37    1
    43    36    42    1
    44    20    21   ar
    45    21    22   ar
@<TRIPOS>MOLECULE
*****
 43 45 0 0 0
SMALL
GASTEIGER

@<TRIPOS>ATOM
      1 P          22.5805   70.9150   -1.9029 P.3     1  UNL1        0.2189
      2 O          23.5967   70.7262   -3.1475 O.co2   1  UNL1       -0.4371
      3 O          23.1577   70.5847   -0.5578 O.2     1  UNL1       -0.5170
      4 O          21.2744   70.0637   -2.3353 O.3     1  UNL1       -0.3112
      5 C          20.6999   70.3064   -3.6076 C.3     1  UNL1        0.1811
      6 O          18.9894   71.6434   -4.6374 O.3     1  UNL1       -0.3308
      7 O          17.1510   70.5909   -2.5153 O.3     1  UNL1       -0.3794
      8 O          16.4984   69.0634   -4.6780 O.3     1  UNL1       -0.3779
      9 C          18.2179   69.9299   -3.1936 C.3     1  UNL1        0.1713
     10 C          17.8085   69.5887   -4.6111 C.3     1  UNL1        0.1895
     11 C          19.3308   70.9456   -3.4197 C.3     1  UNL1        0.1764
     12 C          17.9357   70.9328   -5.3080 C.3     1  UNL1        0.2383
     13 H          16.4284   69.9620   -2.3594 H       1  UNL1        0.2105
     14 H          16.4690   68.2085   -4.2209 H       1  UNL1        0.2106
     15 O          16.0595   70.4799   -7.3702 O.2     1  UNL1       -0.2464
     16 O          19.3463   70.4374  -10.6008 O.2     1  UNL1       -0.2670
     17 N          18.2735   70.7997   -6.6970 N.ar    1  UNL1       -0.2551
     18 N          17.6976   70.4593   -8.9771 N.ar    1  UNL1       -0.2743
     19 C          17.2559   70.5729   -7.6528 C.ar    1  UNL1        0.3323
     20 C          19.6013   70.8945   -7.0995 C.ar    1  UNL1        0.0869
     21 C          20.0061   70.7826   -8.3663 C.ar    1  UNL1        0.0795
     22 C          19.0057   70.5449   -9.4268 C.ar    1  UNL1        0.2626
     23 H          17.0063   70.3007   -9.6603 H       1  UNL1        0.1734
     24 O          22.0869   72.4456   -2.0657 O.3     1  UNL1       -0.2703
     25 P          22.9134   73.8347   -2.0526 P.3     1  UNL1        0.2208
     26 O          21.7909   74.9380   -2.4270 O.co2   1  UNL1       -0.4371
     27 O          24.1153   73.8441   -2.9523 O.2     1  UNL1       -0.5170
     28 O          23.2420   74.0999   -0.4948 O.3     1  UNL1       -0.2858
     29 O          21.8095   73.3892    1.2543 O.3     1  UNL1       -0.3258
     30 O          23.6806   76.5325    3.1699 O.3     1  UNL1       -0.3794
     31 O          24.3260   73.8340    3.9111 O.3     1  UNL1       -0.3794
     32 O          22.9836   76.7573    0.3694 O.3     1  UNL1       -0.3775
     33 C          23.5901   75.4186    2.2776 C.3     1  UNL1        0.1715
     34 C          23.2120   74.1804    3.0929 C.3     1  UNL1        0.1694
     35 C          22.5273   75.7111    1.2201 C.3     1  UNL1        0.1967
     36 C          22.8363   73.0076    2.1773 C.3     1  UNL1        0.1761
     37 C          22.1921   74.4662    0.3967 C.3     1  UNL1        0.2704
     38 H          24.3541   76.3534    3.8436 H       1  UNL1        0.2105
     39 H          24.5533   74.5831    4.4841 H       1  UNL1        0.2105
     40 H          23.1921   77.5397    0.9025 H       1  UNL1        0.2106
     41 O          20.9032   71.9534    3.1050 O.3     1  UNL1       -0.3794
     42 C          22.3051   71.8131    2.9666 C.3     1  UNL1        0.1693
     43 H          20.5512   71.2000    3.6051 H       1  UNL1        0.2105
@<TRIPOS>UNITY_ATOM_ATTR
2 1
charge -1
26 1
charge -1
@<TRIPOS>BOND
     1    25    28    1
     2    25    24    1
     3    25    26    1
     4    25    27    2
     5     1     4    1
     6     1    24    1
     7     1     2    1
     8     1     3    2
     9     6    11    1
    10     6    12    1
    11    29    36    1
    12    29    37    1
    13     7     9    1
    14     7    13    1
    15     8    10    1
    16     8    14    1
    17    28    37    1
    18     4     5    1
    19    30    33    1
    20    30    38    1
    21    31    34    1
    22    31    39    1
    23    32    35    1
    24    32    40    1
    25    41    42    1
    26    41    43    1
    27    15    19    2
    28    16    22    2
    29    17    12    1
    30    17    19   ar
    31    17    20   ar
    32    18    19   ar
    33    18    22   ar
    34    18    23    1
    35     9    10    1
    36     9    11    1
    37    10    12    1
    38    11     5    1
    39    33    34    1
    40    33    35    1
    41    34    36    1
    42    35    37    1
    43    36    42    1
    44    20    21   ar
    45    21    22   ar
@<TRIPOS>MOLECULE
*****
 43 45 0 0 0
SMALL
GASTEIGER

@<TRIPOS>ATOM
      1 P          21.5931   70.4789   -0.9615 P.3     1  UNL1        0.2189
      2 O          23.1331   70.6651   -1.4210 O.co2   1  UNL1       -0.4371
      3 O          21.3999   69.7025    0.3079 O.2     1  UNL1       -0.5170
      4 O          20.8668   69.8721   -2.2737 O.3     1  UNL1       -0.3112
      5 C          20.6033   70.7396   -3.3627 C.3     1  UNL1        0.1811
      6 O          18.8280   71.9027   -4.4893 O.3     1  UNL1       -0.3308
      7 O          17.0094   70.7778   -2.3875 O.3     1  UNL1       -0.3794
      8 O          16.5487   69.1338   -4.5139 O.3     1  UNL1       -0.3779
      9 C          18.1462   70.1816   -3.0100 C.3     1  UNL1        0.1713
     10 C          17.8109   69.7631   -4.4263 C.3     1  UNL1        0.1895
     11 C          19.1831   71.2743   -3.2382 C.3     1  UNL1        0.1764
     12 C          17.8554   71.0895   -5.1657 C.3     1  UNL1        0.2383
     13 H          16.3334   70.0991   -2.2313 H       1  UNL1        0.2105
     14 H          16.5713   68.2946   -4.0282 H       1  UNL1        0.2106
     15 O          16.0907   70.4103   -7.2640 O.2     1  UNL1       -0.2464
     16 O          19.4717   70.5358  -10.3936 O.2     1  UNL1       -0.2670
     17 N          18.2476   70.9384   -6.5386 N.ar    1  UNL1       -0.2551
     18 N          17.7756   70.4735   -8.8206 N.ar    1  UNL1       -0.2743
     19 C          17.2836   70.5943   -7.5147 C.ar    1  UNL1        0.3323
     20 C          19.5751   71.1313   -6.9053 C.ar    1  UNL1        0.0869
     21 C          20.0284   71.0111   -8.1548 C.ar    1  UNL1        0.0795
     22 C          19.0858   70.6539   -9.2347 C.ar    1  UNL1        0.2626
     23 H          17.1222   70.2341   -9.5173 H       1  UNL1        0.1734
     24 O          21.0426   71.9979   -0.9113 O.3     1  UNL1       -0.2703
     25 P          21.7998   73.3917   -0.6000 P.3     1  UNL1        0.2208
     26 O          20.8207   74.5004   -1.2554 O.co2   1  UNL1       -0.4371
     27 O          23.2162   73.4464   -1.0948 O.2     1  UNL1       -0.5170
     28 O          21.6395   73.5969    0.9929 O.3     1  UNL1       -0.2858
     29 O          23.5881   74.1970    2.2008 O.3     1  UNL1       -0.3258
     30 O          21.2324   72.9183    5.3419 O.3     1  UNL1       -0.3794
     31 O          21.7503   75.7234    5.0083 O.3     1  UNL1       -0.3794
     32 O          21.1498   71.5159    2.8108 O.3     1  UNL1       -0.3775
     33 C          21.4976   73.5341    4.0786 C.3     1  UNL1        0.1715
     34 C          22.4570   74.7038    4.3073 C.3     1  UNL1        0.1694
     35 C          22.1219   72.5020    3.1414 C.3     1  UNL1        0.1967
     36 C          22.9968   75.2457    2.9769 C.3     1  UNL1        0.1761
     37 C          22.6709   73.1524    1.8703 C.3     1  UNL1        0.2704
     38 H          20.8354   73.5682    5.9415 H       1  UNL1        0.2105
     39 H          21.4143   75.3680    5.8461 H       1  UNL1        0.2105
     40 H          20.8103   71.1115    3.6238 H       1  UNL1        0.2106
     41 O          25.1872   75.6995    3.8166 O.3     1  UNL1       -0.3794
     42 C          24.0744   76.3072    3.1869 C.3     1  UNL1        0.1693
     43 H          25.8813   76.3632    3.9563 H       1  UNL1        0.2105
@<TRIPOS>UNITY_ATOM_ATTR
2 1
charge -1
26 1
charge -1
@<TRIPOS>BOND
     1    25    28    1
     2    25    24    1
     3    25    26    1
     4    25    27    2
     5     1     4    1
     6     1    24    1
     7     1     2    1
     8     1     3    2
     9     6    11    1
    10     6    12    1
    11    29    36    1
    12    29    37    1
    13     7     9    1
    14     7    13    1
    15     8    10    1
    16     8    14    1
    17    28    37    1
    18     4     5    1
    19    30    33    1
    20    30    38    1
    21    31    34    1
    22    31    39    1
    23    32    35    1
    24    32    40    1
    25    41    42    1
    26    41    43    1
    27    15    19    2
    28    16    22    2
    29    17    12    1
    30    17    19   ar
    31    17    20   ar
    32    18    19   ar
    33    18    22   ar
    34    18    23    1
    35     9    10    1
    36     9    11    1
    37    10    12    1
    38    11     5    1
    39    33    34    1
    40    33    35    1
    41    34    36    1
    42    35    37    1
    43    36    42    1
    44    20    21   ar
    45    21    22   ar
@<TRIPOS>MOLECULE
*****
 43 45 0 0 0
SMALL
GASTEIGER

@<TRIPOS>ATOM
      1 P          22.8331   71.7886   -2.3109 P.3     1  UNL1        0.2189
      2 O          23.5377   73.2396   -2.4355 O.co2   1  UNL1       -0.4371
      3 O          23.4055   70.7274   -3.2040 O.2     1  UNL1       -0.5170
      4 O          21.2588   72.1027   -2.5125 O.3     1  UNL1       -0.3112
      5 C          20.5377   71.3533   -3.4750 C.3     1  UNL1        0.1811
      6 O          18.6124   72.1920   -4.6428 O.3     1  UNL1       -0.3308
      7 O          16.9787   70.9561   -2.4532 O.3     1  UNL1       -0.3794
      8 O          16.7367   69.1399   -4.4729 O.3     1  UNL1       -0.3779
      9 C          18.1832   70.4854   -3.0556 C.3     1  UNL1        0.1713
     10 C          17.9005   69.9406   -4.4402 C.3     1  UNL1        0.1895
     11 C          19.0582   71.6944   -3.3621 C.3     1  UNL1        0.1764
     12 C          17.7573   71.2138   -5.2566 C.3     1  UNL1        0.2383
     13 H          16.4037   70.2017   -2.2480 H       1  UNL1        0.2105
     14 H          16.8776   68.3424   -3.9392 H       1  UNL1        0.2106
     15 O          16.0372   70.3545   -7.3255 O.2     1  UNL1       -0.2464
     16 O          19.4064   70.5652  -10.4632 O.2     1  UNL1       -0.2670
     17 N          18.1585   71.0359   -6.6236 N.ar    1  UNL1       -0.2551
     18 N          17.7161   70.4603   -8.8862 N.ar    1  UNL1       -0.2743
     19 C          17.2171   70.5996   -7.5848 C.ar    1  UNL1        0.3323
     20 C          19.4724   71.2935   -6.9994 C.ar    1  UNL1        0.0869
     21 C          19.9327   71.1546   -8.2444 C.ar    1  UNL1        0.0795
     22 C          19.0135   70.7028   -9.3088 C.ar    1  UNL1        0.2626
     23 H          17.0784   70.1571   -9.5726 H       1  UNL1        0.1734
     24 O          22.9400   71.4673   -0.7303 O.3     1  UNL1       -0.2703
     25 P          21.9897   70.5925    0.2417 P.3     1  UNL1        0.2208
     26 O          23.0388   69.8962    1.2577 O.co2   1  UNL1       -0.4371
     27 O          21.0930   69.6282   -0.4794 O.2     1  UNL1       -0.5170
     28 O          21.2124   71.6831    1.1426 O.3     1  UNL1       -0.2858
     29 O          21.6117   74.0185    1.1967 O.3     1  UNL1       -0.3258
     30 O          20.3690   73.4709    5.0963 O.3     1  UNL1       -0.3794
     31 O          18.6338   74.7914    3.2274 O.3     1  UNL1       -0.3794
     32 O          22.0340   71.4776    3.8180 O.3     1  UNL1       -0.3775
     33 C          20.3838   73.2273    3.6872 C.3     1  UNL1        0.1715
     34 C          20.0104   74.5271    2.9718 C.3     1  UNL1        0.1694
     35 C          21.7813   72.7688    3.2745 C.3     1  UNL1        0.1967
     36 C          20.2627   74.4205    1.4618 C.3     1  UNL1        0.1761
     37 C          21.9416   72.7445    1.7534 C.3     1  UNL1        0.2704
     38 H          19.4843   73.7619    5.3650 H       1  UNL1        0.2105
     39 H          18.4879   74.8559    4.1843 H       1  UNL1        0.2105
     40 H          21.9296   71.5063    4.7814 H       1  UNL1        0.2106
     41 O          21.0725   75.9222   -0.2110 O.3     1  UNL1       -0.3794
     42 C          20.0468   75.7545    0.7503 C.3     1  UNL1        0.1693
     43 H          20.9478   76.7670   -0.6719 H       1  UNL1        0.2105
@<TRIPOS>UNITY_ATOM_ATTR
2 1
charge -1
26 1
charge -1
@<TRIPOS>BOND
     1    25    28    1
     2    25    24    1
     3    25    26    1
     4    25    27    2
     5     1     4    1
     6     1    24    1
     7     1     2    1
     8     1     3    2
     9     6    11    1
    10     6    12    1
    11    29    36    1
    12    29    37    1
    13     7     9    1
    14     7    13    1
    15     8    10    1
    16     8    14    1
    17    28    37    1
    18     4     5    1
    19    30    33    1
    20    30    38    1
    21    31    34    1
    22    31    39    1
    23    32    35    1
    24    32    40    1
    25    41    42    1
    26    41    43    1
    27    15    19    2
    28    16    22    2
    29    17    12    1
    30    17    19   ar
    31    17    20   ar
    32    18    19   ar
    33    18    22   ar
    34    18    23    1
    35     9    10    1
    36     9    11    1
    37    10    12    1
    38    11     5    1
    39    33    34    1
    40    33    35    1
    41    34    36    1
    42    35    37    1
    43    36    42    1
    44    20    21   ar
    45    21    22   ar
@<TRIPOS>MOLECULE
*****
 43 45 0 0 0
SMALL
GASTEIGER

@<TRIPOS>ATOM
      1 P          22.9219   72.0026   -3.0746 P.3     1  UNL1        0.2189
      2 O          23.6753   70.5773   -3.2104 O.co2   1  UNL1       -0.4371
      3 O          22.7354   72.4894   -1.6676 O.2     1  UNL1       -0.5170
      4 O          21.5665   71.8092   -3.9366 O.3     1  UNL1       -0.3112
      5 C          20.7016   70.7368   -3.6052 C.3     1  UNL1        0.1811
      6 O          18.8902   71.8892   -4.6844 O.3     1  UNL1       -0.3308
      7 O          17.1425   70.7890   -2.5105 O.3     1  UNL1       -0.3794
      8 O          16.6099   69.1222   -4.6020 O.3     1  UNL1       -0.3779
      9 C          18.2574   70.1850   -3.1642 C.3     1  UNL1        0.1713
     10 C          17.8746   69.7513   -4.5638 C.3     1  UNL1        0.1895
     11 C          19.2867   71.2742   -3.4390 C.3     1  UNL1        0.1764
     12 C          17.8950   71.0695   -5.3188 C.3     1  UNL1        0.2383
     13 H          16.4717   70.1127   -2.3243 H       1  UNL1        0.2105
     14 H          16.6483   68.2883   -4.1081 H       1  UNL1        0.2106
     15 O          16.0371   70.5134   -7.3723 O.2     1  UNL1       -0.2464
     16 O          19.3359   70.4494  -10.5903 O.2     1  UNL1       -0.2670
     17 N          18.2408   70.9029   -6.7023 N.ar    1  UNL1       -0.2551
     18 N          17.6811   70.4821   -8.9730 N.ar    1  UNL1       -0.2743
     19 C          17.2321   70.6249   -7.6539 C.ar    1  UNL1        0.3323
     20 C          19.5676   71.0158   -7.1034 C.ar    1  UNL1        0.0869
     21 C          19.9796   70.8755   -8.3651 C.ar    1  UNL1        0.0795
     22 C          18.9886   70.5839   -9.4210 C.ar    1  UNL1        0.2626
     23 H          16.9961   70.2878   -9.6532 H       1  UNL1        0.1734
     24 O          23.8121   72.9747   -4.0103 O.3     1  UNL1       -0.2703
     25 P          23.9380   74.5858   -4.0506 P.3     1  UNL1        0.2208
     26 O          25.5337   74.8357   -3.9567 O.co2   1  UNL1       -0.4371
     27 O          23.1374   75.2922   -2.9952 O.2     1  UNL1       -0.5170
     28 O          23.5509   74.9881   -5.5650 O.3     1  UNL1       -0.2858
     29 O          21.6373   76.0853   -6.4315 O.3     1  UNL1       -0.3258
     30 O          22.2802   73.3746   -9.4794 O.3     1  UNL1       -0.3794
     31 O          22.8695   76.1531   -9.9051 O.3     1  UNL1       -0.3794
     32 O          22.7001   72.5799   -6.7277 O.3     1  UNL1       -0.3775
     33 C          22.6595   74.2769   -8.4365 C.3     1  UNL1        0.1715
     34 C          22.1285   75.6677   -8.7890 C.3     1  UNL1        0.1694
     35 C          22.0635   73.7925   -7.1161 C.3     1  UNL1        0.1967
     36 C          22.2617   76.6292   -7.6003 C.3     1  UNL1        0.1761
     37 C          22.2057   74.8429   -6.0131 C.3     1  UNL1        0.2704
     38 H          22.6559   73.6762  -10.3204 H       1  UNL1        0.2105
     39 H          22.7774   75.5367  -10.6486 H       1  UNL1        0.2105
     40 H          22.6027   71.9231   -7.4341 H       1  UNL1        0.2106
     41 O          21.0261   78.4506   -6.6704 O.3     1  UNL1       -0.3794
     42 C          21.5958   77.9755   -7.8762 C.3     1  UNL1        0.1693
     43 H          20.5990   79.3071   -6.8308 H       1  UNL1        0.2105
@<TRIPOS>UNITY_ATOM_ATTR
2 1
charge -1
26 1
charge -1
@<TRIPOS>BOND
     1    25    28    1
     2    25    24    1
     3    25    26    1
     4    25    27    2
     5     1     4    1
     6     1    24    1
     7     1     2    1
     8     1     3    2
     9     6    11    1
    10     6    12    1
    11    29    36    1
    12    29    37    1
    13     7     9    1
    14     7    13    1
    15     8    10    1
    16     8    14    1
    17    28    37    1
    18     4     5    1
    19    30    33    1
    20    30    38    1
    21    31    34    1
    22    31    39    1
    23    32    35    1
    24    32    40    1
    25    41    42    1
    26    41    43    1
    27    15    19    2
    28    16    22    2
    29    17    12    1
    30    17    19   ar
    31    17    20   ar
    32    18    19   ar
    33    18    22   ar
    34    18    23    1
    35     9    10    1
    36     9    11    1
    37    10    12    1
    38    11     5    1
    39    33    34    1
    40    33    35    1
    41    34    36    1
    42    35    37    1
    43    36    42    1
    44    20    21   ar
    45    21    22   ar
@<TRIPOS>MOLECULE
*****
 43 45 0 0 0
SMALL
GASTEIGER

@<TRIPOS>ATOM
      1 P          22.4740   73.3024   -4.4162 P.3     1  UNL1        0.2189
      2 O          21.7965   74.4235   -3.4667 O.co2   1  UNL1       -0.4371
      3 O          23.9519   73.1226   -4.2292 O.2     1  UNL1       -0.5170
      4 O          21.9997   73.7174   -5.9064 O.3     1  UNL1       -0.3112
      5 C          22.4938   72.9718   -7.0054 C.3     1  UNL1        0.1811
      6 O          21.0655   72.7891   -8.9290 O.3     1  UNL1       -0.3308
      7 O          21.4750   75.7387   -9.2802 O.3     1  UNL1       -0.3794
      8 O          19.0121   75.6150   -8.1161 O.3     1  UNL1       -0.3779
      9 C          21.3589   74.9809   -8.0771 C.3     1  UNL1        0.1713
     10 C          19.9200   74.5641   -7.8549 C.3     1  UNL1        0.1895
     11 C          22.0478   73.6401   -8.2987 C.3     1  UNL1        0.1764
     12 C          19.7726   73.4083   -8.8298 C.3     1  UNL1        0.2383
     13 H          21.0426   76.5996   -9.1629 H       1  UNL1        0.2105
     14 H          19.1453   76.3257   -7.4697 H       1  UNL1        0.2106
     15 O          19.0881   71.0722  -10.2623 O.2     1  UNL1       -0.2464
     16 O          16.1075   69.7323   -7.0123 O.2     1  UNL1       -0.2670
     17 N          18.8209   72.4313   -8.3812 N.ar    1  UNL1       -0.2551
     18 N          17.6047   70.4068   -8.6428 N.ar    1  UNL1       -0.2743
     19 C          18.5483   71.2939   -9.1764 C.ar    1  UNL1        0.3323
     20 C          18.1695   72.6060   -7.1650 C.ar    1  UNL1        0.0869
     21 C          17.2713   71.7514   -6.6709 C.ar    1  UNL1        0.0795
     22 C          16.9294   70.5372   -7.4395 C.ar    1  UNL1        0.2626
     23 H          17.3985   69.6074   -9.1795 H       1  UNL1        0.1734
     24 O          21.5915   71.9836   -4.1081 O.3     1  UNL1       -0.2703
     25 P          21.8064   70.7878   -3.0419 P.3     1  UNL1        0.2208
     26 O          23.3976   70.5051   -3.1171 O.co2   1  UNL1       -0.4371
     27 O          20.9504   69.5799   -3.2912 O.2     1  UNL1       -0.5170
     28 O          21.5830   71.4801   -1.6012 O.3     1  UNL1       -0.2858
     29 O          23.2362   72.8527   -0.6015 O.3     1  UNL1       -0.3258
     30 O          21.2143   71.6718    2.7997 O.3     1  UNL1       -0.3794
     31 O          20.9362   74.3674    1.8489 O.3     1  UNL1       -0.3794
     32 O          21.6273   69.7903    0.6389 O.3     1  UNL1       -0.3775
     33 C          21.3448   72.0489    1.4263 C.3     1  UNL1        0.1715
     34 C          21.9275   73.4625    1.3705 C.3     1  UNL1        0.1694
     35 C          22.2697   71.0579    0.7222 C.3     1  UNL1        0.1967
     36 C          22.3446   73.8336   -0.0590 C.3     1  UNL1        0.1761
     37 C          22.6628   71.5458   -0.6733 C.3     1  UNL1        0.2704
     38 H          20.6279   72.2968    3.2524 H       1  UNL1        0.2105
     39 H          20.6813   74.1217    2.7521 H       1  UNL1        0.2105
     40 H          21.3837   69.4923    1.5287 H       1  UNL1        0.2106
     41 O          24.3485   75.0185    0.4787 O.3     1  UNL1       -0.3794
     42 C          23.0717   75.1755   -0.1124 C.3     1  UNL1        0.1693
     43 H          24.8230   75.8646    0.4515 H       1  UNL1        0.2105
@<TRIPOS>UNITY_ATOM_ATTR
2 1
charge -1
26 1
charge -1
@<TRIPOS>BOND
     1    25    28    1
     2    25    24    1
     3    25    26    1
     4    25    27    2
     5     1     4    1
     6     1    24    1
     7     1     2    1
     8     1     3    2
     9     6    11    1
    10     6    12    1
    11    29    36    1
    12    29    37    1
    13     7     9    1
    14     7    13    1
    15     8    10    1
    16     8    14    1
    17    28    37    1
    18     4     5    1
    19    30    33    1
    20    30    38    1
    21    31    34    1
    22    31    39    1
    23    32    35    1
    24    32    40    1
    25    41    42    1
    26    41    43    1
    27    15    19    2
    28    16    22    2
    29    17    12    1
    30    17    19   ar
    31    17    20   ar
    32    18    19   ar
    33    18    22   ar
    34    18    23    1
    35     9    10    1
    36     9    11    1
    37    10    12    1
    38    11     5    1
    39    33    34    1
    40    33    35    1
    41    34    36    1
    42    35    37    1
    43    36    42    1
    44    20    21   ar
    45    21    22   ar
@<TRIPOS>MOLECULE
*****
 43 45 0 0 0
SMALL
GASTEIGER

@<TRIPOS>ATOM
      1 P          21.7747   73.7164   -5.6377 P.3     1  UNL1        0.2189
      2 O          20.6321   74.5282   -4.8297 O.co2   1  UNL1       -0.4371
      3 O          22.9916   74.5192   -5.9924 O.2     1  UNL1       -0.5170
      4 O          20.9777   73.0607   -6.8838 O.3     1  UNL1       -0.3112
      5 C          20.3530   73.9250   -7.8169 C.3     1  UNL1        0.1811
      6 O          19.5954   71.7242   -8.4137 O.3     1  UNL1       -0.3308
      7 O          17.8804   73.0754  -10.4689 O.3     1  UNL1       -0.3794
      8 O          16.1061   72.5516   -8.4654 O.3     1  UNL1       -0.3779
      9 C          18.2297   73.5126   -9.1566 C.3     1  UNL1        0.1713
     10 C          17.4652   72.7197   -8.1172 C.3     1  UNL1        0.1895
     11 C          19.6676   73.0868   -8.8873 C.3     1  UNL1        0.1764
     12 C          18.2301   71.4072   -8.0968 C.3     1  UNL1        0.2383
     13 H          16.9662   73.3363  -10.6638 H       1  UNL1        0.2105
     14 H          15.6628   73.4143   -8.4645 H       1  UNL1        0.2106
     15 O          15.9641   70.0861   -7.0491 O.2     1  UNL1       -0.2464
     16 O          18.1755   68.9901   -3.1568 O.2     1  UNL1       -0.2670
     17 N          18.1860   70.7675   -6.8122 N.ar    1  UNL1       -0.2551
     18 N          17.0671   69.5413   -5.1119 N.ar    1  UNL1       -0.2743
     19 C          16.9983   70.1329   -6.3798 C.ar    1  UNL1        0.3323
     20 C          19.3120   70.7732   -5.9962 C.ar    1  UNL1        0.0869
     21 C          19.3609   70.2056   -4.7892 C.ar    1  UNL1        0.0795
     22 C          18.1623   69.5215   -4.2628 C.ar    1  UNL1        0.2626
     23 H          16.2514   69.0936   -4.7896 H       1  UNL1        0.1734
     24 O          22.0625   72.4454   -4.6813 O.3     1  UNL1       -0.2703
     25 P          23.0948   72.2540   -3.4521 P.3     1  UNL1        0.2208
     26 O          24.2636   73.3237   -3.7792 O.co2   1  UNL1       -0.4371
     27 O          23.5787   70.8447   -3.2687 O.2     1  UNL1       -0.5170
     28 O          22.3257   72.8689   -2.1733 O.3     1  UNL1       -0.2858
     29 O          21.5996   71.1475   -0.7151 O.3     1  UNL1       -0.3258
     30 O          19.6914   74.3560    1.0499 O.3     1  UNL1       -0.3794
     31 O          21.9612   73.1674    2.3473 O.3     1  UNL1       -0.3794
     32 O          19.8751   74.1936   -1.8345 O.3     1  UNL1       -0.3775
     33 C          20.7488   73.6913    0.3532 C.3     1  UNL1        0.1715
     34 C          21.2813   72.5696    1.2471 C.3     1  UNL1        0.1694
     35 C          20.2041   73.1229   -0.9559 C.3     1  UNL1        0.1967
     36 C          22.2296   71.6457    0.4710 C.3     1  UNL1        0.1761
     37 C          21.2067   72.1792   -1.6224 C.3     1  UNL1        0.2704
     38 H          20.0307   74.7197    1.8818 H       1  UNL1        0.2105
     39 H          21.3515   73.7486    2.8286 H       1  UNL1        0.2105
     40 H          19.2396   74.7837   -1.4011 H       1  UNL1        0.2106
     41 O          22.7014   69.3036    0.4434 O.3     1  UNL1       -0.3794
     42 C          22.6484   70.4316    1.2972 C.3     1  UNL1        0.1693
     43 H          22.9670   68.5233    0.9556 H       1  UNL1        0.2105
@<TRIPOS>UNITY_ATOM_ATTR
2 1
charge -1
26 1
charge -1
@<TRIPOS>BOND
     1    25    28    1
     2    25    24    1
     3    25    26    1
     4    25    27    2
     5     1     4    1
     6     1    24    1
     7     1     2    1
     8     1     3    2
     9     6    11    1
    10     6    12    1
    11    29    36    1
    12    29    37    1
    13     7     9    1
    14     7    13    1
    15     8    10    1
    16     8    14    1
    17    28    37    1
    18     4     5    1
    19    30    33    1
    20    30    38    1
    21    31    34    1
    22    31    39    1
    23    32    35    1
    24    32    40    1
    25    41    42    1
    26    41    43    1
    27    15    19    2
    28    16    22    2
    29    17    12    1
    30    17    19   ar
    31    17    20   ar
    32    18    19   ar
    33    18    22   ar
    34    18    23    1
    35     9    10    1
    36     9    11    1
    37    10    12    1
    38    11     5    1
    39    33    34    1
    40    33    35    1
    41    34    36    1
    42    35    37    1
    43    36    42    1
    44    20    21   ar
    45    21    22   ar
@<TRIPOS>MOLECULE
*****
 43 45 0 0 0
SMALL
GASTEIGER

@<TRIPOS>ATOM
      1 P          22.6510   72.7744   -4.0366 P.3     1  UNL1        0.2189
      2 O          22.1867   72.5256   -5.5663 O.co2   1  UNL1       -0.4371
      3 O          24.1235   72.9929   -3.8488 O.2     1  UNL1       -0.5170
      4 O          22.0178   71.5228   -3.2301 O.3     1  UNL1       -0.3112
      5 C          21.0584   70.7117   -3.8855 C.3     1  UNL1        0.1811
      6 O          19.1787   71.8713   -4.8320 O.3     1  UNL1       -0.3308
      7 O          17.6014   70.8270   -2.5055 O.3     1  UNL1       -0.3794
      8 O          16.8802   69.1360   -4.5197 O.3     1  UNL1       -0.3779
      9 C          18.6521   70.1986   -3.2381 C.3     1  UNL1        0.1713
     10 C          18.1512   69.7489   -4.5947 C.3     1  UNL1        0.1895
     11 C          19.6683   71.2700   -3.6133 C.3     1  UNL1        0.1764
     12 C          18.1254   71.0553   -5.3700 C.3     1  UNL1        0.2383
     13 H          16.9402   70.1624   -2.2545 H       1  UNL1        0.2105
     14 H          16.9489   68.3092   -4.0172 H       1  UNL1        0.2106
     15 O          16.0958   70.5235   -7.2609 O.2     1  UNL1       -0.2464
     16 O          19.1238   70.3355  -10.7304 O.2     1  UNL1       -0.2670
     17 N          18.3552   70.8634   -6.7742 N.ar    1  UNL1       -0.2551
     18 N          17.6051   70.4305   -8.9870 N.ar    1  UNL1       -0.2743
     19 C          17.2668   70.6005   -7.6384 C.ar    1  UNL1        0.3323
     20 C          19.6480   70.9369   -7.2812 C.ar    1  UNL1        0.0869
     21 C          19.9540   70.7710   -8.5697 C.ar    1  UNL1        0.0795
     22 C          18.8747   70.4929   -9.5392 C.ar    1  UNL1        0.2626
     23 H          16.8632   70.2460   -9.6076 H       1  UNL1        0.1734
     24 O          21.7224   74.0132   -3.5719 O.3     1  UNL1       -0.2703
     25 P          21.9413   75.1329   -2.4267 P.3     1  UNL1        0.2208
     26 O          20.4962   75.8542   -2.3320 O.co2   1  UNL1       -0.4371
     27 O          23.0845   76.0691   -2.6921 O.2     1  UNL1       -0.5170
     28 O          22.0688   74.2937   -1.0540 O.3     1  UNL1       -0.2858
     29 O          21.3540   72.0730   -0.6366 O.3     1  UNL1       -0.3258
     30 O          20.7273   73.6838    3.1136 O.3     1  UNL1       -0.3794
     31 O          22.9148   71.8701    2.6968 O.3     1  UNL1       -0.3794
     32 O          20.1480   75.2546    0.7521 O.3     1  UNL1       -0.3775
     33 C          21.3984   73.5204    1.8612 C.3     1  UNL1        0.1715
     34 C          21.8653   72.0674    1.7534 C.3     1  UNL1        0.1694
     35 C          20.4312   73.8597    0.7286 C.3     1  UNL1        0.1967
     36 C          22.3548   71.7467    0.3348 C.3     1  UNL1        0.1761
     37 C          20.9945   73.4560   -0.6351 C.3     1  UNL1        0.2704
     38 H          21.3360   73.4703    3.8370 H       1  UNL1        0.2105
     39 H          22.5927   72.0765    3.5884 H       1  UNL1        0.2105
     40 H          19.7917   75.4975    1.6204 H       1  UNL1        0.2106
     41 O          21.6589   69.5069    0.7908 O.3     1  UNL1       -0.3794
     42 C          22.6770   70.2639    0.1625 C.3     1  UNL1        0.1693
     43 H          21.8505   68.5610    0.6889 H       1  UNL1        0.2105
@<TRIPOS>UNITY_ATOM_ATTR
2 1
charge -1
26 1
charge -1
@<TRIPOS>BOND
     1    25    28    1
     2    25    24    1
     3    25    26    1
     4    25    27    2
     5     1     4    1
     6     1    24    1
     7     1     2    1
     8     1     3    2
     9     6    11    1
    10     6    12    1
    11    29    36    1
    12    29    37    1
    13     7     9    1
    14     7    13    1
    15     8    10    1
    16     8    14    1
    17    28    37    1
    18     4     5    1
    19    30    33    1
    20    30    38    1
    21    31    34    1
    22    31    39    1
    23    32    35    1
    24    32    40    1
    25    41    42    1
    26    41    43    1
    27    15    19    2
    28    16    22    2
    29    17    12    1
    30    17    19   ar
    31    17    20   ar
    32    18    19   ar
    33    18    22   ar
    34    18    23    1
    35     9    10    1
    36     9    11    1
    37    10    12    1
    38    11     5    1
    39    33    34    1
    40    33    35    1
    41    34    36    1
    42    35    37    1
    43    36    42    1
    44    20    21   ar
    45    21    22   ar
@<TRIPOS>MOLECULE
*****
 43 45 0 0 0
SMALL
GASTEIGER

@<TRIPOS>ATOM
      1 P          20.6329   73.1615   -1.1227 P.3     1  UNL1        0.2189
      2 O          19.4238   74.0988   -0.5963 O.co2   1  UNL1       -0.4371
      3 O          21.8915   73.8941   -1.4841 O.2     1  UNL1       -0.5170
      4 O          19.9610   72.2911   -2.3096 O.3     1  UNL1       -0.3112
      5 C          19.3711   72.9769   -3.4003 C.3     1  UNL1        0.1811
      6 O          17.3750   72.8920   -4.7353 O.3     1  UNL1       -0.3308
      7 O          16.1576   71.3349   -2.4805 O.3     1  UNL1       -0.3794
      8 O          16.7902   69.3833   -4.2770 O.3     1  UNL1       -0.3779
      9 C          17.4959   71.3110   -2.9742 C.3     1  UNL1        0.1713
     10 C          17.5563   70.5706   -4.2939 C.3     1  UNL1        0.1895
     11 C          17.8689   72.7292   -3.3877 C.3     1  UNL1        0.1764
     12 C          17.0087   71.6060   -5.2615 C.3     1  UNL1        0.2383
     13 H          15.8970   70.4401   -2.2098 H       1  UNL1        0.2105
     14 H          17.1787   68.7567   -3.6468 H       1  UNL1        0.2106
     15 O          16.0572   69.7910   -7.2053 O.2     1  UNL1       -0.2464
     16 O          19.1971   71.1624  -10.2877 O.2     1  UNL1       -0.2670
     17 N          17.5587   71.4680   -6.5805 N.ar    1  UNL1       -0.2551
     18 N          17.6213   70.4754   -8.7386 N.ar    1  UNL1       -0.2743
     19 C          17.0082   70.5257   -7.4802 C.ar    1  UNL1        0.3323
     20 C          18.6319   72.2618   -6.9704 C.ar    1  UNL1        0.0869
     21 C          19.2060   72.2008   -8.1737 C.ar    1  UNL1        0.0795
     22 C          18.6908   71.2425   -9.1728 C.ar    1  UNL1        0.2626
     23 H          17.2548   69.8261   -9.3818 H       1  UNL1        0.1734
     24 O          20.8013   72.0822    0.0688 O.3     1  UNL1       -0.2703
     25 P          22.0953   71.2604    0.5817 P.3     1  UNL1        0.2208
     26 O          23.1705   71.4821   -0.6067 O.co2   1  UNL1       -0.4371
     27 O          21.8207   69.8209    0.9077 O.2     1  UNL1       -0.5170
     28 O          22.6675   72.1284    1.8162 O.3     1  UNL1       -0.2858
     29 O          21.6137   73.5742    3.3705 O.3     1  UNL1       -0.3258
     30 O          25.0749   75.7266    2.7091 O.3     1  UNL1       -0.3794
     31 O          24.7114   74.3589    5.2081 O.3     1  UNL1       -0.3794
     32 O          23.7921   74.3446    0.5128 O.3     1  UNL1       -0.3775
     33 C          24.2850   74.5442    2.8619 C.3     1  UNL1        0.1715
     34 C          23.6659   74.5586    4.2609 C.3     1  UNL1        0.1694
     35 C          23.1952   74.5302    1.7917 C.3     1  UNL1        0.1967
     36 C          22.5980   73.4660    4.4054 C.3     1  UNL1        0.1761
     37 C          22.1578   73.4375    2.0563 C.3     1  UNL1        0.2704
     38 H          25.7692   75.7415    3.3853 H       1  UNL1        0.2105
     39 H          25.3792   75.0552    5.1060 H       1  UNL1        0.2105
     40 H          24.4466   75.0427    0.3571 H       1  UNL1        0.2106
     41 O          22.2986   74.7256    6.4135 O.3     1  UNL1       -0.3794
     42 C          21.8574   73.5627    5.7374 C.3     1  UNL1        0.1693
     43 H          21.8354   74.8003    7.2630 H       1  UNL1        0.2105
@<TRIPOS>UNITY_ATOM_ATTR
2 1
charge -1
26 1
charge -1
@<TRIPOS>BOND
     1    25    28    1
     2    25    24    1
     3    25    26    1
     4    25    27    2
     5     1     4    1
     6     1    24    1
     7     1     2    1
     8     1     3    2
     9     6    11    1
    10     6    12    1
    11    29    36    1
    12    29    37    1
    13     7     9    1
    14     7    13    1
    15     8    10    1
    16     8    14    1
    17    28    37    1
    18     4     5    1
    19    30    33    1
    20    30    38    1
    21    31    34    1
    22    31    39    1
    23    32    35    1
    24    32    40    1
    25    41    42    1
    26    41    43    1
    27    15    19    2
    28    16    22    2
    29    17    12    1
    30    17    19   ar
    31    17    20   ar
    32    18    19   ar
    33    18    22   ar
    34    18    23    1
    35     9    10    1
    36     9    11    1
    37    10    12    1
    38    11     5    1
    39    33    34    1
    40    33    35    1
    41    34    36    1
    42    35    37    1
    43    36    42    1
    44    20    21   ar
    45    21    22   ar
@<TRIPOS>MOLECULE
*****
 43 45 0 0 0
SMALL
GASTEIGER

@<TRIPOS>ATOM
      1 P          22.7071   71.5699   -3.3004 P.3     1  UNL1        0.2189
      2 O          22.5572   72.5512   -2.0229 O.co2   1  UNL1       -0.4371
      3 O          23.6705   70.4342   -3.1176 O.2     1  UNL1       -0.5170
      4 O          23.0302   72.5750   -4.5264 O.3     1  UNL1       -0.3112
      5 C          21.9505   73.2431   -5.1556 C.3     1  UNL1        0.1811
      6 O          21.5874   72.2694   -7.3221 O.3     1  UNL1       -0.3308
      7 O          22.4328   74.9171   -8.4470 O.3     1  UNL1       -0.3794
      8 O          19.7151   75.0288   -8.6422 O.3     1  UNL1       -0.3779
      9 C          21.6814   74.6366   -7.2671 C.3     1  UNL1        0.1713
     10 C          20.2720   74.2168   -7.6287 C.3     1  UNL1        0.1895
     11 C          22.2426   73.3641   -6.6449 C.3     1  UNL1        0.1764
     12 C          20.4766   72.7798   -8.0774 C.3     1  UNL1        0.2383
     13 H          22.0929   75.7260   -8.8619 H       1  UNL1        0.2105
     14 H          19.6044   75.9327   -8.3082 H       1  UNL1        0.2106
     15 O          18.9724   71.4846  -10.0868 O.2     1  UNL1       -0.2464
     16 O          16.0799   69.6562   -6.9995 O.2     1  UNL1       -0.2670
     17 N          19.3257   71.9587   -7.8268 N.ar    1  UNL1       -0.2551
     18 N          17.5335   70.5751   -8.5479 N.ar    1  UNL1       -0.2743
     19 C          18.6407   71.3545   -8.9067 C.ar    1  UNL1        0.3323
     20 C          18.8875   71.7592   -6.5222 C.ar    1  UNL1        0.0869
     21 C          17.8290   71.0142   -6.1970 C.ar    1  UNL1        0.0795
     22 C          17.0579   70.3477   -7.2662 C.ar    1  UNL1        0.2626
     23 H          17.0405   70.1447   -9.2837 H       1  UNL1        0.1734
     24 O          21.1827   71.1185   -3.5928 O.3     1  UNL1       -0.2703
     25 P          20.0627   70.4713   -2.6233 P.3     1  UNL1        0.2208
     26 O          20.9338   69.8703   -1.3996 O.co2   1  UNL1       -0.4371
     27 O          19.1692   69.4707   -3.2975 O.2     1  UNL1       -0.5170
     28 O          19.2895   71.7384   -1.9896 O.3     1  UNL1       -0.2858
     29 O          17.4812   72.5899   -3.2630 O.3     1  UNL1       -0.3258
     30 O          18.0369   75.7750   -0.6945 O.3     1  UNL1       -0.3794
     31 O          15.7436   74.0766   -0.3717 O.3     1  UNL1       -0.3794
     32 O          20.3265   74.3323   -1.7222 O.3     1  UNL1       -0.3775
     33 C          18.0079   74.3961   -1.0730 C.3     1  UNL1        0.1715
     34 C          16.5860   74.0515   -1.5206 C.3     1  UNL1        0.1694
     35 C          18.9999   74.1703   -2.2125 C.3     1  UNL1        0.1967
     36 C          16.5352   72.6718   -2.1905 C.3     1  UNL1        0.1761
     37 C          18.8323   72.7858   -2.8412 C.3     1  UNL1        0.2704
     38 H          17.4096   75.9250    0.0290 H       1  UNL1        0.2105
     39 H          15.7852   74.9530    0.0422 H       1  UNL1        0.2105
     40 H          20.4198   75.2126   -1.3271 H       1  UNL1        0.2106
     41 O          14.4161   71.6241   -1.8432 O.3     1  UNL1       -0.3794
     42 C          15.1602   72.3749   -2.7849 C.3     1  UNL1        0.1693
     43 H          13.5384   71.4281   -2.2078 H       1  UNL1        0.2105
@<TRIPOS>UNITY_ATOM_ATTR
2 1
charge -1
26 1
charge -1
@<TRIPOS>BOND
     1    25    28    1
     2    25    24    1
     3    25    26    1
     4    25    27    2
     5     1     4    1
     6     1    24    1
     7     1     2    1
     8     1     3    2
     9     6    11    1
    10     6    12    1
    11    29    36    1
    12    29    37    1
    13     7     9    1
    14     7    13    1
    15     8    10    1
    16     8    14    1
    17    28    37    1
    18     4     5    1
    19    30    33    1
    20    30    38    1
    21    31    34    1
    22    31    39    1
    23    32    35    1
    24    32    40    1
    25    41    42    1
    26    41    43    1
    27    15    19    2
    28    16    22    2
    29    17    12    1
    30    17    19   ar
    31    17    20   ar
    32    18    19   ar
    33    18    22   ar
    34    18    23    1
    35     9    10    1
    36     9    11    1
    37    10    12    1
    38    11     5    1
    39    33    34    1
    40    33    35    1
    41    34    36    1
    42    35    37    1
    43    36    42    1
    44    20    21   ar
    45    21    22   ar
@<TRIPOS>MOLECULE
*****
 43 45 0 0 0
SMALL
GASTEIGER

@<TRIPOS>ATOM
      1 P          22.9462   72.0542   -3.0005 P.3     1  UNL1        0.2189
      2 O          23.5105   70.5524   -3.2090 O.co2   1  UNL1       -0.4371
      3 O          22.9378   72.5365   -1.5796 O.2     1  UNL1       -0.5170
      4 O          21.5097   72.0362   -3.7449 O.3     1  UNL1       -0.3112
      5 C          20.6730   70.9057   -3.5725 C.3     1  UNL1        0.1811
      6 O          18.8117   71.9510   -4.6756 O.3     1  UNL1       -0.3308
      7 O          17.1103   70.7952   -2.4939 O.3     1  UNL1       -0.3794
      8 O          16.6720   69.0749   -4.5640 O.3     1  UNL1       -0.3779
      9 C          18.2572   70.2386   -3.1342 C.3     1  UNL1        0.1713
     10 C          17.9035   69.7669   -4.5292 C.3     1  UNL1        0.1895
     11 C          19.2323   71.3739   -3.4200 C.3     1  UNL1        0.1764
     12 C          17.8619   71.0739   -5.3026 C.3     1  UNL1        0.2383
     13 H          16.4732   70.0888   -2.3011 H       1  UNL1        0.2105
     14 H          16.7495   68.2510   -4.0582 H       1  UNL1        0.2106
     15 O          16.0447   70.3949   -7.3557 O.2     1  UNL1       -0.2464
     16 O          19.3582   70.4536  -10.5587 O.2     1  UNL1       -0.2670
     17 N          18.2225   70.9056   -6.6821 N.ar    1  UNL1       -0.2551
     18 N          17.6960   70.4249   -8.9489 N.ar    1  UNL1       -0.2743
     19 C          17.2338   70.5632   -7.6339 C.ar    1  UNL1        0.3323
     20 C          19.5437   71.0803   -7.0793 C.ar    1  UNL1        0.0869
     21 C          19.9684   70.9434   -8.3371 C.ar    1  UNL1        0.0795
     22 C          18.9988   70.5868   -9.3929 C.ar    1  UNL1        0.2626
     23 H          17.0250   70.1863   -9.6291 H       1  UNL1        0.1734
     24 O          23.8638   72.9297   -4.0026 O.3     1  UNL1       -0.2703
     25 P          24.3343   74.4747   -3.9344 P.3     1  UNL1        0.2208
     26 O          23.7688   74.9718   -2.5024 O.co2   1  UNL1       -0.4371
     27 O          23.8850   75.3069   -5.1003 O.2     1  UNL1       -0.5170
     28 O          25.9350   74.4060   -3.7390 O.3     1  UNL1       -0.2858
     29 O          26.8784   76.2164   -2.5352 O.3     1  UNL1       -0.3258
     30 O          30.3301   74.6307   -4.1546 O.3     1  UNL1       -0.3794
     31 O          29.8006   74.3069   -1.3506 O.3     1  UNL1       -0.3794
     32 O          27.8979   74.6984   -5.7230 O.3     1  UNL1       -0.3775
     33 C          29.0158   74.5884   -3.5923 C.3     1  UNL1        0.1715
     34 C          29.0739   75.1992   -2.1908 C.3     1  UNL1        0.1694
     35 C          28.0648   75.3826   -4.4858 C.3     1  UNL1        0.1967
     36 C          27.6649   75.4334   -1.6296 C.3     1  UNL1        0.1761
     37 C          26.7082   75.6009   -3.8135 C.3     1  UNL1        0.2704
     38 H          30.9387   74.1278   -3.5923 H       1  UNL1        0.2105
     39 H          30.6883   74.1671   -1.7163 H       1  UNL1        0.2105
     40 H          28.7637   74.5666   -6.1388 H       1  UNL1        0.2106
     41 O          26.7998   75.5536    0.5944 O.3     1  UNL1       -0.3794
     42 C          27.6962   76.1855   -0.3009 C.3     1  UNL1        0.1693
     43 H          26.8094   76.0215    1.4445 H       1  UNL1        0.2105
@<TRIPOS>UNITY_ATOM_ATTR
2 1
charge -1
26 1
charge -1
@<TRIPOS>BOND
     1    25    28    1
     2    25    24    1
     3    25    26    1
     4    25    27    2
     5     1     4    1
     6     1    24    1
     7     1     2    1
     8     1     3    2
     9     6    11    1
    10     6    12    1
    11    29    36    1
    12    29    37    1
    13     7     9    1
    14     7    13    1
    15     8    10    1
    16     8    14    1
    17    28    37    1
    18     4     5    1
    19    30    33    1
    20    30    38    1
    21    31    34    1
    22    31    39    1
    23    32    35    1
    24    32    40    1
    25    41    42    1
    26    41    43    1
    27    15    19    2
    28    16    22    2
    29    17    12    1
    30    17    19   ar
    31    17    20   ar
    32    18    19   ar
    33    18    22   ar
    34    18    23    1
    35     9    10    1
    36     9    11    1
    37    10    12    1
    38    11     5    1
    39    33    34    1
    40    33    35    1
    41    34    36    1
    42    35    37    1
    43    36    42    1
    44    20    21   ar
    45    21    22   ar
@<TRIPOS>MOLECULE
*****
 43 45 0 0 0
SMALL
GASTEIGER

@<TRIPOS>ATOM
      1 P          20.4115   73.0903   -1.3081 P.3     1  UNL1        0.2189
      2 O          19.1997   73.8400   -0.5420 O.co2   1  UNL1       -0.4371
      3 O          21.6767   73.8883   -1.4261 O.2     1  UNL1       -0.5170
      4 O          19.7504   72.6109   -2.7049 O.3     1  UNL1       -0.3112
      5 C          18.9323   73.5246   -3.4145 C.3     1  UNL1        0.1811
      6 O          16.9912   73.0226   -4.7389 O.3     1  UNL1       -0.3308
      7 O          16.0331   71.4235   -2.3904 O.3     1  UNL1       -0.3794
      8 O          17.0018   69.5003   -4.0636 O.3     1  UNL1       -0.3779
      9 C          17.3607   71.5955   -2.8835 C.3     1  UNL1        0.1713
     10 C          17.5571   70.7965   -4.1550 C.3     1  UNL1        0.1895
     11 C          17.4932   73.0283   -3.3846 C.3     1  UNL1        0.1764
     12 C          16.8516   71.6635   -5.1840 C.3     1  UNL1        0.2383
     13 H          15.9245   70.5158   -2.0645 H       1  UNL1        0.2105
     14 H          17.4845   68.9880   -3.3964 H       1  UNL1        0.2106
     15 O          16.1299   69.6848   -7.0660 O.2     1  UNL1       -0.2464
     16 O          19.1346   71.2841  -10.1733 O.2     1  UNL1       -0.2670
     17 N          17.4290   71.5397   -6.4927 N.ar    1  UNL1       -0.2551
     18 N          17.6265   70.4828   -8.6118 N.ar    1  UNL1       -0.2743
     19 C          16.9968   70.5102   -7.3609 C.ar    1  UNL1        0.3323
     20 C          18.4121   72.4333   -6.9037 C.ar    1  UNL1        0.0869
     21 C          19.0036   72.3929   -8.0995 C.ar    1  UNL1        0.0795
     22 C          18.6095   71.3477   -9.0661 C.ar    1  UNL1        0.2626
     23 H          17.3417   69.7739   -9.2331 H       1  UNL1        0.1734
     24 O          20.5625   71.7078   -0.4841 O.3     1  UNL1       -0.2703
     25 P          21.6320   71.2530    0.6394 P.3     1  UNL1        0.2208
     26 O          22.9645   72.0787    0.2390 O.co2   1  UNL1       -0.4371
     27 O          21.8293   69.7678    0.7356 O.2     1  UNL1       -0.5170
     28 O          21.1150   71.9487    2.0009 O.3     1  UNL1       -0.2858
     29 O          20.3622   74.1400    2.4991 O.3     1  UNL1       -0.3258
     30 O          22.6056   73.4258    5.8914 O.3     1  UNL1       -0.3794
     31 O          19.7391   73.4464    6.0655 O.3     1  UNL1       -0.3794
     32 O          23.5352   72.4772    3.3193 O.3     1  UNL1       -0.3775
     33 C          21.7397   73.0833    4.8060 C.3     1  UNL1        0.1715
     34 C          20.4620   73.9155    4.9308 C.3     1  UNL1        0.1694
     35 C          22.4498   73.3829    3.4872 C.3     1  UNL1        0.1967
     36 C          19.6016   73.8028    3.6651 C.3     1  UNL1        0.1761
     37 C          21.4933   73.2905    2.2969 C.3     1  UNL1        0.2704
     38 H          22.1609   73.2375    6.7318 H       1  UNL1        0.2105
     39 H          20.2937   73.5226    6.8579 H       1  UNL1        0.2105
     40 H          24.1336   72.5455    4.0790 H       1  UNL1        0.2106
     41 O          18.6655   75.7711    4.6441 O.3     1  UNL1       -0.3794
     42 C          18.4017   74.7467    3.7032 C.3     1  UNL1        0.1693
     43 H          17.9104   76.3797    4.6789 H       1  UNL1        0.2105
@<TRIPOS>UNITY_ATOM_ATTR
2 1
charge -1
26 1
charge -1
@<TRIPOS>BOND
     1    25    28    1
     2    25    24    1
     3    25    26    1
     4    25    27    2
     5     1     4    1
     6     1    24    1
     7     1     2    1
     8     1     3    2
     9     6    11    1
    10     6    12    1
    11    29    36    1
    12    29    37    1
    13     7     9    1
    14     7    13    1
    15     8    10    1
    16     8    14    1
    17    28    37    1
    18     4     5    1
    19    30    33    1
    20    30    38    1
    21    31    34    1
    22    31    39    1
    23    32    35    1
    24    32    40    1
    25    41    42    1
    26    41    43    1
    27    15    19    2
    28    16    22    2
    29    17    12    1
    30    17    19   ar
    31    17    20   ar
    32    18    19   ar
    33    18    22   ar
    34    18    23    1
    35     9    10    1
    36     9    11    1
    37    10    12    1
    38    11     5    1
    39    33    34    1
    40    33    35    1
    41    34    36    1
    42    35    37    1
    43    36    42    1
    44    20    21   ar
    45    21    22   ar
@<TRIPOS>MOLECULE
*****
 43 45 0 0 0
SMALL
GASTEIGER

@<TRIPOS>ATOM
      1 P          22.1163   73.5626   -5.3776 P.3     1  UNL1        0.2189
      2 O          22.7090   74.7872   -6.2530 O.co2   1  UNL1       -0.4371
      3 O          23.1356   72.5647   -4.9121 O.2     1  UNL1       -0.5170
      4 O          20.9222   72.9713   -6.2954 O.3     1  UNL1       -0.3112
      5 C          20.4982   73.7224   -7.4196 C.3     1  UNL1        0.1811
      6 O          19.8718   71.4504   -7.8879 O.3     1  UNL1       -0.3308
      7 O          18.2919   72.5563  -10.1839 O.3     1  UNL1       -0.3794
      8 O          16.3728   72.1235   -8.2955 O.3     1  UNL1       -0.3779
      9 C          18.5126   73.1134   -8.8892 C.3     1  UNL1        0.1713
     10 C          17.6906   72.3764   -7.8525 C.3     1  UNL1        0.1895
     11 C          19.9363   72.7717   -8.4678 C.3     1  UNL1        0.1764
     12 C          18.4965   71.1032   -7.6583 C.3     1  UNL1        0.2383
     13 H          17.3890   72.7618  -10.4745 H       1  UNL1        0.2105
     14 H          15.9011   72.9640   -8.4040 H       1  UNL1        0.2106
     15 O          16.2026   69.7650   -6.6964 O.2     1  UNL1       -0.2464
     16 O          18.1056   69.0972   -2.5522 O.2     1  UNL1       -0.2670
     17 N          18.3655   70.5690   -6.3321 N.ar    1  UNL1       -0.2551
     18 N          17.1521   69.4334   -4.6337 N.ar    1  UNL1       -0.2743
     19 C          17.1711   69.9156   -5.9487 C.ar    1  UNL1        0.3323
     20 C          19.4142   70.6952   -5.4275 C.ar    1  UNL1        0.0869
     21 C          19.3797   70.2309   -4.1767 C.ar    1  UNL1        0.0795
     22 C          18.1681   69.5354   -3.6968 C.ar    1  UNL1        0.2626
     23 H          16.3300   68.9750   -4.3443 H       1  UNL1        0.1734
     24 O          21.3216   74.3168   -4.1890 O.3     1  UNL1       -0.2703
     25 P          21.7218   74.5809   -2.6453 P.3     1  UNL1        0.2208
     26 O          20.4355   75.3670   -2.0578 O.co2   1  UNL1       -0.4371
     27 O          23.0254   75.3028   -2.4624 O.2     1  UNL1       -0.5170
     28 O          21.6608   73.1244   -1.9525 O.3     1  UNL1       -0.2858
     29 O          23.2308   73.3124   -0.1873 O.3     1  UNL1       -0.3258
     30 O          21.8263   69.5062    0.5814 O.3     1  UNL1       -0.3794
     31 O          21.0776   71.6708    2.3141 O.3     1  UNL1       -0.3794
     32 O          22.2090   70.3795   -2.1518 O.3     1  UNL1       -0.3775
     33 C          21.7321   70.8690    0.1578 C.3     1  UNL1        0.1715
     34 C          22.1115   71.7654    1.3382 C.3     1  UNL1        0.1694
     35 C          22.6838   71.0938   -1.0157 C.3     1  UNL1        0.1967
     36 C          22.2928   73.2223    0.8915 C.3     1  UNL1        0.1761
     37 C          22.8305   72.5800   -1.3471 C.3     1  UNL1        0.2704
     38 H          21.2242   69.3566    1.3261 H       1  UNL1        0.2105
     39 H          20.9729   70.7458    2.5874 H       1  UNL1        0.2105
     40 H          22.1207   69.4401   -1.9292 H       1  UNL1        0.2106
     41 O          23.2644   73.2689    3.0739 O.3     1  UNL1       -0.3794
     42 C          22.8240   74.1044    2.0193 C.3     1  UNL1        0.1693
     43 H          23.6054   73.8167    3.7987 H       1  UNL1        0.2105
@<TRIPOS>UNITY_ATOM_ATTR
2 1
charge -1
26 1
charge -1
@<TRIPOS>BOND
     1    25    28    1
     2    25    24    1
     3    25    26    1
     4    25    27    2
     5     1     4    1
     6     1    24    1
     7     1     2    1
     8     1     3    2
     9     6    11    1
    10     6    12    1
    11    29    36    1
    12    29    37    1
    13     7     9    1
    14     7    13    1
    15     8    10    1
    16     8    14    1
    17    28    37    1
    18     4     5    1
    19    30    33    1
    20    30    38    1
    21    31    34    1
    22    31    39    1
    23    32    35    1
    24    32    40    1
    25    41    42    1
    26    41    43    1
    27    15    19    2
    28    16    22    2
    29    17    12    1
    30    17    19   ar
    31    17    20   ar
    32    18    19   ar
    33    18    22   ar
    34    18    23    1
    35     9    10    1
    36     9    11    1
    37    10    12    1
    38    11     5    1
    39    33    34    1
    40    33    35    1
    41    34    36    1
    42    35    37    1
    43    36    42    1
    44    20    21   ar
    45    21    22   ar
@<TRIPOS>MOLECULE
*****
 43 45 0 0 0
SMALL
GASTEIGER

@<TRIPOS>ATOM
      1 P          22.3631   75.1776   -8.7116 P.3     1  UNL1        0.2189
      2 O          23.5021   75.6595   -7.6686 O.co2   1  UNL1       -0.4371
      3 O          21.1235   76.0228   -8.7315 O.2     1  UNL1       -0.5170
      4 O          22.1428   73.6156   -8.3517 O.3     1  UNL1       -0.3112
      5 C          20.9209   73.2264   -7.7490 C.3     1  UNL1        0.1811
      6 O          19.9183   71.0660   -8.0671 O.3     1  UNL1       -0.3308
      7 O          18.3920   72.3142  -10.3261 O.3     1  UNL1       -0.3794
      8 O          16.5495   72.2710   -8.3161 O.3     1  UNL1       -0.3779
      9 C          18.7771   72.8818   -9.0752 C.3     1  UNL1        0.1713
     10 C          17.9156   72.3285   -7.9592 C.3     1  UNL1        0.1895
     11 C          20.1531   72.3351   -8.7156 C.3     1  UNL1        0.1764
     12 C          18.5225   70.9523   -7.7455 C.3     1  UNL1        0.2383
     13 H          17.5162   72.6489  -10.5769 H       1  UNL1        0.2105
     14 H          16.2096   73.1708   -8.4409 H       1  UNL1        0.2106
     15 O          16.1953   69.7599   -6.6775 O.2     1  UNL1       -0.2464
     16 O          18.1348   69.2605   -2.5265 O.2     1  UNL1       -0.2670
     17 N          18.3918   70.5008   -6.3888 N.ar    1  UNL1       -0.2551
     18 N          17.1630   69.5120   -4.6116 N.ar    1  UNL1       -0.2743
     19 C          17.1799   69.9165   -5.9525 C.ar    1  UNL1        0.3323
     20 C          19.4581   70.6390   -5.5068 C.ar    1  UNL1        0.0869
     21 C          19.4254   70.2493   -4.2307 C.ar    1  UNL1        0.0795
     22 C          18.1962   69.6292   -3.6954 C.ar    1  UNL1        0.2626
     23 H          16.3289   69.1026   -4.2852 H       1  UNL1        0.1734
     24 O          23.1592   75.1178  -10.1172 O.3     1  UNL1       -0.2703
     25 P          24.6727   75.5381  -10.4986 P.3     1  UNL1        0.2208
     26 O          25.5587   74.8115   -9.3564 O.co2   1  UNL1       -0.4371
     27 O          24.8921   77.0196  -10.6035 O.2     1  UNL1       -0.5170
     28 O          24.9966   74.7168  -11.8497 O.3     1  UNL1       -0.2858
     29 O          24.9445   76.1213  -13.7579 O.3     1  UNL1       -0.3258
     30 O          25.2021   72.4565  -15.6431 O.3     1  UNL1       -0.3794
     31 O          27.4822   74.2026  -15.6201 O.3     1  UNL1       -0.3794
     32 O          23.5844   72.7438  -13.2598 O.3     1  UNL1       -0.3775
     33 C          25.4625   73.4123  -14.6115 C.3     1  UNL1        0.1715
     34 C          26.1722   74.6137  -15.2389 C.3     1  UNL1        0.1694
     35 C          24.1384   73.8392  -13.9807 C.3     1  UNL1        0.1967
     36 C          26.2461   75.7893  -14.2552 C.3     1  UNL1        0.1761
     37 C          24.3156   75.0461  -13.0577 C.3     1  UNL1        0.2704
     38 H          26.0388   72.1810  -16.0474 H       1  UNL1        0.2105
     39 H          27.4214   73.4596  -16.2409 H       1  UNL1        0.2105
     40 H          23.4768   71.9863  -13.8552 H       1  UNL1        0.2106
     41 O          28.2204   76.9546  -14.9281 O.3     1  UNL1       -0.3794
     42 C          26.8080   77.0490  -14.9105 C.3     1  UNL1        0.1693
     43 H          28.5919   77.7494  -15.3428 H       1  UNL1        0.2105
@<TRIPOS>UNITY_ATOM_ATTR
2 1
charge -1
26 1
charge -1
@<TRIPOS>BOND
     1    25    28    1
     2    25    24    1
     3    25    26    1
     4    25    27    2
     5     1     4    1
     6     1    24    1
     7     1     2    1
     8     1     3    2
     9     6    11    1
    10     6    12    1
    11    29    36    1
    12    29    37    1
    13     7     9    1
    14     7    13    1
    15     8    10    1
    16     8    14    1
    17    28    37    1
    18     4     5    1
    19    30    33    1
    20    30    38    1
    21    31    34    1
    22    31    39    1
    23    32    35    1
    24    32    40    1
    25    41    42    1
    26    41    43    1
    27    15    19    2
    28    16    22    2
    29    17    12    1
    30    17    19   ar
    31    17    20   ar
    32    18    19   ar
    33    18    22   ar
    34    18    23    1
    35     9    10    1
    36     9    11    1
    37    10    12    1
    38    11     5    1
    39    33    34    1
    40    33    35    1
    41    34    36    1
    42    35    37    1
    43    36    42    1
    44    20    21   ar
    45    21    22   ar
@<TRIPOS>MOLECULE
*****
 43 45 0 0 0
SMALL
GASTEIGER

@<TRIPOS>ATOM
      1 P          22.6066   72.9512   -4.5773 P.3     1  UNL1        0.2189
      2 O          22.6839   72.5630   -6.1459 O.co2   1  UNL1       -0.4371
      3 O          23.5240   72.1682   -3.6847 O.2     1  UNL1       -0.5170
      4 O          21.0300   72.8480   -4.2287 O.3     1  UNL1       -0.3112
      5 C          20.5572   71.6836   -3.5741 C.3     1  UNL1        0.1811
      6 O          18.4886   72.1421   -4.7076 O.3     1  UNL1       -0.3308
      7 O          17.1430   70.7417   -2.4231 O.3     1  UNL1       -0.3794
      8 O          17.1558   68.8299   -4.3677 O.3     1  UNL1       -0.3779
      9 C          18.3931   70.4538   -3.0474 C.3     1  UNL1        0.1713
     10 C          18.1695   69.8138   -4.4016 C.3     1  UNL1        0.1895
     11 C          19.0449   71.7781   -3.4252 C.3     1  UNL1        0.1764
     12 C          17.7937   71.0111   -5.2578 C.3     1  UNL1        0.2383
     13 H          16.7080   69.9111   -2.1725 H       1  UNL1        0.2105
     14 H          17.4423   68.0893   -3.8107 H       1  UNL1        0.2106
     15 O          16.0245   70.3129   -7.3461 O.2     1  UNL1       -0.2464
     16 O          19.3992   70.4078  -10.4835 O.2     1  UNL1       -0.2670
     17 N          18.1830   70.8470   -6.6300 N.ar    1  UNL1       -0.2551
     18 N          17.7063   70.3609   -8.9066 N.ar    1  UNL1       -0.2743
     19 C          17.2170   70.4941   -7.6009 C.ar    1  UNL1        0.3323
     20 C          19.5098   71.0359   -7.0012 C.ar    1  UNL1        0.0869
     21 C          19.9606   70.9038   -8.2505 C.ar    1  UNL1        0.0795
     22 C          19.0157   70.5369   -9.3250 C.ar    1  UNL1        0.2626
     23 H          17.0514   70.1152   -9.5998 H       1  UNL1        0.1734
     24 O          22.8736   74.5455   -4.5838 O.3     1  UNL1       -0.2703
     25 P          22.4266   75.6924   -5.6316 P.3     1  UNL1        0.2208
     26 O          23.1518   77.0207   -5.0595 O.co2   1  UNL1       -0.4371
     27 O          20.9409   75.8234   -5.8037 O.2     1  UNL1       -0.5170
     28 O          23.2287   75.3420   -6.9876 O.3     1  UNL1       -0.2858
     29 O          23.1892   76.8944   -8.7778 O.3     1  UNL1       -0.3258
     30 O          24.2741   73.5032  -10.8691 O.3     1  UNL1       -0.3794
     31 O          26.2187   75.5648  -10.4035 O.3     1  UNL1       -0.3794
     32 O          22.3447   73.3183   -8.7191 O.3     1  UNL1       -0.3775
     33 C          24.2439   74.3868   -9.7450 C.3     1  UNL1        0.1715
     34 C          24.8219   75.7352  -10.1792 C.3     1  UNL1        0.1694
     35 C          22.7994   74.5474   -9.2749 C.3     1  UNL1        0.1967
     36 C          24.5795   76.8113   -9.1123 C.3     1  UNL1        0.1761
     37 C          22.6606   75.6757   -8.2513 C.3     1  UNL1        0.2704
     38 H          25.1886   73.3966  -11.1722 H       1  UNL1        0.2105
     39 H          26.3580   74.8823  -11.0788 H       1  UNL1        0.2105
     40 H          22.4374   72.6122   -9.3769 H       1  UNL1        0.2106
     41 O          25.0470   78.1919  -11.0055 O.3     1  UNL1       -0.3794
     42 C          25.0069   78.1973   -9.5903 C.3     1  UNL1        0.1693
     43 H          25.3173   79.0678  -11.3240 H       1  UNL1        0.2105
@<TRIPOS>UNITY_ATOM_ATTR
2 1
charge -1
26 1
charge -1
@<TRIPOS>BOND
     1    25    28    1
     2    25    24    1
     3    25    26    1
     4    25    27    2
     5     1     4    1
     6     1    24    1
     7     1     2    1
     8     1     3    2
     9     6    11    1
    10     6    12    1
    11    29    36    1
    12    29    37    1
    13     7     9    1
    14     7    13    1
    15     8    10    1
    16     8    14    1
    17    28    37    1
    18     4     5    1
    19    30    33    1
    20    30    38    1
    21    31    34    1
    22    31    39    1
    23    32    35    1
    24    32    40    1
    25    41    42    1
    26    41    43    1
    27    15    19    2
    28    16    22    2
    29    17    12    1
    30    17    19   ar
    31    17    20   ar
    32    18    19   ar
    33    18    22   ar
    34    18    23    1
    35     9    10    1
    36     9    11    1
    37    10    12    1
    38    11     5    1
    39    33    34    1
    40    33    35    1
    41    34    36    1
    42    35    37    1
    43    36    42    1
    44    20    21   ar
    45    21    22   ar
@<TRIPOS>MOLECULE
*****
 43 45 0 0 0
SMALL
GASTEIGER

@<TRIPOS>ATOM
      1 P          22.4303   72.9346   -4.8257 P.3     1  UNL1        0.2189
      2 O          21.4695   74.2246   -4.6519 O.co2   1  UNL1       -0.4371
      3 O          23.8069   73.0873   -4.2487 O.2     1  UNL1       -0.5170
      4 O          22.3642   72.6117   -6.4098 O.3     1  UNL1       -0.3112
      5 C          21.3798   73.2646   -7.1924 C.3     1  UNL1        0.1811
      6 O          20.0514   71.2627   -7.2267 O.3     1  UNL1       -0.3308
      7 O          19.3894   71.9743  -10.0633 O.3     1  UNL1       -0.3794
      8 O          17.1613   72.7797   -8.7130 O.3     1  UNL1       -0.3779
      9 C          19.5815   72.8317   -8.9394 C.3     1  UNL1        0.1713
     10 C          18.3874   72.7570   -8.0109 C.3     1  UNL1        0.1895
     11 C          20.6904   72.2374   -8.0799 C.3     1  UNL1        0.1764
     12 C          18.6268   71.4385   -7.2951 C.3     1  UNL1        0.2383
     13 H          18.6860   72.3335  -10.6273 H       1  UNL1        0.2105
     14 H          17.0553   73.6386   -9.1511 H       1  UNL1        0.2106
     15 O          16.7144   69.5872   -6.3501 O.2     1  UNL1       -0.2464
     16 O          16.6454   71.5164   -2.1650 O.2     1  UNL1       -0.2670
     17 N          18.0919   71.4336   -5.9627 N.ar    1  UNL1       -0.2551
     18 N          16.6817   70.5492   -4.2670 N.ar    1  UNL1       -0.2743
     19 C          17.1351   70.4612   -5.5894 C.ar    1  UNL1        0.3323
     20 C          18.5165   72.3854   -5.0420 C.ar    1  UNL1        0.0869
     21 C          18.0735   72.4565   -3.7851 C.ar    1  UNL1        0.0795
     22 C          17.0724   71.4773   -3.3148 C.ar    1  UNL1        0.2626
     23 H          16.0145   69.8823   -3.9846 H       1  UNL1        0.1734
     24 O          21.5567   71.7404   -4.1748 O.3     1  UNL1       -0.2703
     25 P          21.9023   70.6966   -2.9899 P.3     1  UNL1        0.2208
     26 O          23.5073   70.5266   -3.1015 O.co2   1  UNL1       -0.4371
     27 O          21.1365   69.4073   -3.0628 O.2     1  UNL1       -0.5170
     28 O          21.6747   71.5336   -1.6288 O.3     1  UNL1       -0.2858
     29 O          23.2818   72.8980   -0.5460 O.3     1  UNL1       -0.3258
     30 O          21.1090   71.6935    2.7523 O.3     1  UNL1       -0.3794
     31 O          20.8745   74.3962    1.8097 O.3     1  UNL1       -0.3794
     32 O          21.6181   69.8276    0.5986 O.3     1  UNL1       -0.3775
     33 C          21.3010   72.0806    1.3890 C.3     1  UNL1        0.1715
     34 C          21.8860   73.4942    1.3697 C.3     1  UNL1        0.1694
     35 C          22.2564   71.0942    0.7199 C.3     1  UNL1        0.1967
     36 C          22.3669   73.8755   -0.0369 C.3     1  UNL1        0.1761
     37 C          22.7119   71.5920   -0.6530 C.3     1  UNL1        0.2704
     38 H          20.5030   72.3155    3.1829 H       1  UNL1        0.2105
     39 H          20.5792   74.1440    2.6987 H       1  UNL1        0.2105
     40 H          21.3347   69.5233    1.4743 H       1  UNL1        0.2106
     41 O          23.4616   75.5192   -1.3818 O.3     1  UNL1       -0.3794
     42 C          23.0960   75.2173   -0.0478 C.3     1  UNL1        0.1693
     43 H          23.9263   76.3708   -1.4042 H       1  UNL1        0.2105
@<TRIPOS>UNITY_ATOM_ATTR
2 1
charge -1
26 1
charge -1
@<TRIPOS>BOND
     1    25    28    1
     2    25    24    1
     3    25    26    1
     4    25    27    2
     5     1     4    1
     6     1    24    1
     7     1     2    1
     8     1     3    2
     9     6    11    1
    10     6    12    1
    11    29    36    1
    12    29    37    1
    13     7     9    1
    14     7    13    1
    15     8    10    1
    16     8    14    1
    17    28    37    1
    18     4     5    1
    19    30    33    1
    20    30    38    1
    21    31    34    1
    22    31    39    1
    23    32    35    1
    24    32    40    1
    25    41    42    1
    26    41    43    1
    27    15    19    2
    28    16    22    2
    29    17    12    1
    30    17    19   ar
    31    17    20   ar
    32    18    19   ar
    33    18    22   ar
    34    18    23    1
    35     9    10    1
    36     9    11    1
    37    10    12    1
    38    11     5    1
    39    33    34    1
    40    33    35    1
    41    34    36    1
    42    35    37    1
    43    36    42    1
    44    20    21   ar
    45    21    22   ar
@<TRIPOS>MOLECULE
*****
 43 45 0 0 0
SMALL
GASTEIGER

@<TRIPOS>ATOM
      1 P          18.7825   73.1758   -3.1102 P.3     1  UNL1        0.2189
      2 O          18.0535   74.6112   -3.2704 O.co2   1  UNL1       -0.4371
      3 O          18.6012   72.5185   -1.7736 O.2     1  UNL1       -0.5170
      4 O          20.3127   73.4662   -3.5486 O.3     1  UNL1       -0.3112
      5 C          21.2259   73.9118   -2.5610 C.3     1  UNL1        0.1811
      6 O          23.0651   73.0752   -1.2605 O.3     1  UNL1       -0.3308
      7 O          23.2463   70.8675   -3.2814 O.3     1  UNL1       -0.3794
      8 O          21.9424   69.6694   -1.2075 O.3     1  UNL1       -0.3779
      9 C          22.0907   71.5280   -2.7680 C.3     1  UNL1        0.1713
     10 C          21.8076   71.0685   -1.3529 C.3     1  UNL1        0.1895
     11 C          22.4423   72.9960   -2.5614 C.3     1  UNL1        0.1764
     12 C          22.8454   71.8417   -0.5571 C.3     1  UNL1        0.2383
     13 H          23.0460   69.9283   -3.4218 H       1  UNL1        0.2105
     14 H          21.2601   69.2225   -1.7324 H       1  UNL1        0.2106
     15 O          23.0914   70.0764    1.6341 O.2     1  UNL1       -0.2464
     16 O          21.1148   73.0834    4.5137 O.2     1  UNL1       -0.2670
     17 N          22.4038   72.1377    0.7766 N.ar    1  UNL1       -0.2551
     18 N          22.1072   71.5751    3.0662 N.ar    1  UNL1       -0.2743
     19 C          22.5732   71.1817    1.8052 C.ar    1  UNL1        0.3323
     20 C          21.8107   73.3646    1.0539 C.ar    1  UNL1        0.0869
     21 C          21.3705   73.7239    2.2616 C.ar    1  UNL1        0.0795
     22 C          21.5097   72.7826    3.3914 C.ar    1  UNL1        0.2626
     23 H          22.2142   70.9251    3.7981 H       1  UNL1        0.1734
     24 O          18.2007   72.3312   -4.3597 O.3     1  UNL1       -0.2703
     25 P          18.3935   70.7810   -4.7749 P.3     1  UNL1        0.2208
     26 O          16.8743   70.2425   -4.9144 O.co2   1  UNL1       -0.4371
     27 O          19.2458   69.9908   -3.8246 O.2     1  UNL1       -0.5170
     28 O          18.9493   70.8299   -6.2894 O.3     1  UNL1       -0.2858
     29 O          16.9355   71.2722   -7.4578 O.3     1  UNL1       -0.3258
     30 O          19.6156   71.7309  -10.5654 O.3     1  UNL1       -0.3794
     31 O          18.3358   74.0443   -9.4436 O.3     1  UNL1       -0.3794
     32 O          20.0316   69.6516   -8.5949 O.3     1  UNL1       -0.3775
     33 C          19.1651   71.8130   -9.2105 C.3     1  UNL1        0.1715
     34 C          17.9246   72.7076   -9.1710 C.3     1  UNL1        0.1694
     35 C          18.8317   70.4090   -8.7095 C.3     1  UNL1        0.1967
     36 C          17.2293   72.6304   -7.8050 C.3     1  UNL1        0.1761
     37 C          18.0989   70.4475   -7.3673 C.3     1  UNL1        0.2704
     38 H          19.8294   72.6191  -10.8895 H       1  UNL1        0.2105
     39 H          18.7737   74.0791  -10.3086 H       1  UNL1        0.2105
     40 H          20.4861   69.6345   -9.4511 H       1  UNL1        0.2106
     41 O          15.3696   73.3800   -9.1045 O.3     1  UNL1       -0.3794
     42 C          15.9047   73.3903   -7.7938 C.3     1  UNL1        0.1693
     43 H          14.5262   73.8599   -9.1125 H       1  UNL1        0.2105
@<TRIPOS>UNITY_ATOM_ATTR
2 1
charge -1
26 1
charge -1
@<TRIPOS>BOND
     1    25    28    1
     2    25    24    1
     3    25    26    1
     4    25    27    2
     5     1     4    1
     6     1    24    1
     7     1     2    1
     8     1     3    2
     9     6    11    1
    10     6    12    1
    11    29    36    1
    12    29    37    1
    13     7     9    1
    14     7    13    1
    15     8    10    1
    16     8    14    1
    17    28    37    1
    18     4     5    1
    19    30    33    1
    20    30    38    1
    21    31    34    1
    22    31    39    1
    23    32    35    1
    24    32    40    1
    25    41    42    1
    26    41    43    1
    27    15    19    2
    28    16    22    2
    29    17    12    1
    30    17    19   ar
    31    17    20   ar
    32    18    19   ar
    33    18    22   ar
    34    18    23    1
    35     9    10    1
    36     9    11    1
    37    10    12    1
    38    11     5    1
    39    33    34    1
    40    33    35    1
    41    34    36    1
    42    35    37    1
    43    36    42    1
    44    20    21   ar
    45    21    22   ar
@<TRIPOS>MOLECULE
*****
 43 45 0 0 0
SMALL
GASTEIGER

@<TRIPOS>ATOM
      1 P          19.7062   72.1883   -4.1838 P.3     1  UNL1        0.2189
      2 O          19.8295   70.9161   -3.1919 O.co2   1  UNL1       -0.4371
      3 O          18.9568   73.3602   -3.6213 O.2     1  UNL1       -0.5170
      4 O          19.1061   71.5599   -5.5487 O.3     1  UNL1       -0.3112
      5 C          19.7214   71.9023   -6.7783 C.3     1  UNL1        0.1811
      6 O          17.4925   71.4589   -7.5588 O.3     1  UNL1       -0.3308
      7 O          18.6919   71.2654  -10.3001 O.3     1  UNL1       -0.3794
      8 O          17.6100   73.7686  -10.2999 O.3     1  UNL1       -0.3779
      9 C          19.0439   72.1287   -9.2202 C.3     1  UNL1        0.1713
     10 C          18.0060   73.2198   -9.0595 C.3     1  UNL1        0.1895
     11 C          18.8857   71.3456   -7.9228 C.3     1  UNL1        0.1764
     12 C          16.8777   72.4808   -8.3602 C.3     1  UNL1        0.2383
     13 H          18.7854   71.7434  -11.1396 H       1  UNL1        0.2105
     14 H          18.3620   74.2281  -10.7052 H       1  UNL1        0.2106
     15 O          14.6515   73.9945   -9.2153 O.2     1  UNL1       -0.2464
     16 O          13.9923   75.7448   -5.0030 O.2     1  UNL1       -0.2670
     17 N          16.1055   73.3403   -7.5079 N.ar    1  UNL1       -0.2551
     18 N          14.3250   74.8646   -7.1172 N.ar    1  UNL1       -0.2743
     19 C          15.0070   74.0575   -8.0366 C.ar    1  UNL1        0.3323
     20 C          16.4397   73.4653   -6.1638 C.ar    1  UNL1        0.0869
     21 C          15.7799   74.2403   -5.3005 C.ar    1  UNL1        0.0795
     22 C          14.6194   75.0231   -5.7722 C.ar    1  UNL1        0.2626
     23 H          13.5563   75.3739   -7.4630 H       1  UNL1        0.1734
     24 O          21.2448   72.4971   -4.5717 O.3     1  UNL1       -0.2703
     25 P          22.4041   73.2868   -3.7685 P.3     1  UNL1        0.2208
     26 O          21.9844   74.8396   -3.9427 O.co2   1  UNL1       -0.4371
     27 O          23.7975   72.9669   -4.2266 O.2     1  UNL1       -0.5170
     28 O          22.1195   72.9596   -2.2138 O.3     1  UNL1       -0.2858
     29 O          23.4818   73.1608   -0.2851 O.3     1  UNL1       -0.3258
     30 O          21.5719   69.6142    0.6232 O.3     1  UNL1       -0.3794
     31 O          20.8759   72.0060    2.0525 O.3     1  UNL1       -0.3794
     32 O          22.3709   70.1668   -2.1037 O.3     1  UNL1       -0.3775
     33 C          21.6842   70.9304    0.0750 C.3     1  UNL1        0.1715
     34 C          22.0216   71.8964    1.2124 C.3     1  UNL1        0.1694
     35 C          22.7869   70.9384   -0.9821 C.3     1  UNL1        0.1967
     36 C          22.4192   73.2753    0.6685 C.3     1  UNL1        0.1761
     37 C          23.1401   72.3613   -1.4190 C.3     1  UNL1        0.2704
     38 H          20.8731   69.6021    1.2948 H       1  UNL1        0.2105
     39 H          20.6350   71.1285    2.3889 H       1  UNL1        0.2105
     40 H          22.1505   69.2683   -1.8140 H       1  UNL1        0.2106
     41 O          23.2289   73.4249    2.9115 O.3     1  UNL1       -0.3794
     42 C          22.9108   74.2063    1.7747 C.3     1  UNL1        0.1693
     43 H          23.5436   74.0042    3.6236 H       1  UNL1        0.2105
@<TRIPOS>UNITY_ATOM_ATTR
2 1
charge -1
26 1
charge -1
@<TRIPOS>BOND
     1    25    28    1
     2    25    24    1
     3    25    26    1
     4    25    27    2
     5     1     4    1
     6     1    24    1
     7     1     2    1
     8     1     3    2
     9     6    11    1
    10     6    12    1
    11    29    36    1
    12    29    37    1
    13     7     9    1
    14     7    13    1
    15     8    10    1
    16     8    14    1
    17    28    37    1
    18     4     5    1
    19    30    33    1
    20    30    38    1
    21    31    34    1
    22    31    39    1
    23    32    35    1
    24    32    40    1
    25    41    42    1
    26    41    43    1
    27    15    19    2
    28    16    22    2
    29    17    12    1
    30    17    19   ar
    31    17    20   ar
    32    18    19   ar
    33    18    22   ar
    34    18    23    1
    35     9    10    1
    36     9    11    1
    37    10    12    1
    38    11     5    1
    39    33    34    1
    40    33    35    1
    41    34    36    1
    42    35    37    1
    43    36    42    1
    44    20    21   ar
    45    21    22   ar
@<TRIPOS>MOLECULE
*****
 43 45 0 0 0
SMALL
GASTEIGER

@<TRIPOS>ATOM
      1 P          21.3727   70.3481   -0.8450 P.3     1  UNL1        0.2189
      2 O          22.6333   70.4755   -1.8510 O.co2   1  UNL1       -0.4371
      3 O          21.6496   69.6014    0.4266 O.2     1  UNL1       -0.5170
      4 O          20.1945   69.7418   -1.7735 O.3     1  UNL1       -0.3112
      5 C          20.0533   70.2347   -3.0945 C.3     1  UNL1        0.1811
      6 O          18.8917   72.1152   -4.0368 O.3     1  UNL1       -0.3308
      7 O          16.3702   70.5747   -3.5275 O.3     1  UNL1       -0.3794
      8 O          16.7781   70.1819   -6.1950 O.3     1  UNL1       -0.3779
      9 C          17.6535   70.0976   -3.9283 C.3     1  UNL1        0.1713
     10 C          17.9077   70.4315   -5.3835 C.3     1  UNL1        0.1895
     11 C          18.7088   70.9380   -3.2201 C.3     1  UNL1        0.1764
     12 C          18.2608   71.9074   -5.3111 C.3     1  UNL1        0.2383
     13 H          15.6797   70.0529   -3.9668 H       1  UNL1        0.2105
     14 H          16.5940   69.2297   -6.2091 H       1  UNL1        0.2106
     15 O          17.4740   72.6172   -7.9293 O.2     1  UNL1       -0.2464
     16 O          21.8265   73.4158   -9.2175 O.2     1  UNL1       -0.2670
     17 N          19.1675   72.3053   -6.3507 N.ar    1  UNL1       -0.2551
     18 N          19.6418   73.0144   -8.5685 N.ar    1  UNL1       -0.2743
     19 C          18.6700   72.6407   -7.6315 C.ar    1  UNL1        0.3323
     20 C          20.5334   72.3601   -6.0955 C.ar    1  UNL1        0.0869
     21 C          21.4472   72.7173   -7.0003 C.ar    1  UNL1        0.0795
     22 C          21.0107   73.0832   -8.3632 C.ar    1  UNL1        0.2626
     23 H          19.3186   73.2521   -9.4679 H       1  UNL1        0.1734
     24 O          20.9168   71.8850   -0.6371 O.3     1  UNL1       -0.2703
     25 P          21.7759   73.2092   -0.2888 P.3     1  UNL1        0.2208
     26 O          20.8079   74.4152   -0.7644 O.co2   1  UNL1       -0.4371
     27 O          23.1448   73.2343   -0.9047 O.2     1  UNL1       -0.5170
     28 O          21.7661   73.2902    1.3231 O.3     1  UNL1       -0.2858
     29 O          20.4996   74.7533    2.6913 O.3     1  UNL1       -0.3258
     30 O          23.8691   74.3947    5.0511 O.3     1  UNL1       -0.3794
     31 O          21.4329   73.1019    5.8521 O.3     1  UNL1       -0.3794
     32 O          24.1314   74.5393    2.1719 O.3     1  UNL1       -0.3775
     33 C          22.8668   73.9471    4.1344 C.3     1  UNL1        0.1715
     34 C          21.5025   74.0763    4.8148 C.3     1  UNL1        0.1694
     35 C          22.9227   74.8084    2.8740 C.3     1  UNL1        0.1967
     36 C          20.3608   73.8701    3.8104 C.3     1  UNL1        0.1761
     37 C          21.7161   74.5609    1.9668 C.3     1  UNL1        0.2704
     38 H          23.8393   73.8516    5.8534 H       1  UNL1        0.2105
     39 H          22.1595   73.2429    6.4792 H       1  UNL1        0.2105
     40 H          24.8876   74.7000    2.7569 H       1  UNL1        0.2106
     41 O          18.5003   72.9463    4.9913 O.3     1  UNL1       -0.3794
     42 C          18.9944   74.1496    4.4324 C.3     1  UNL1        0.1693
     43 H          17.6312   73.1091    5.3911 H       1  UNL1        0.2105
@<TRIPOS>UNITY_ATOM_ATTR
2 1
charge -1
26 1
charge -1
@<TRIPOS>BOND
     1    25    28    1
     2    25    24    1
     3    25    26    1
     4    25    27    2
     5     1     4    1
     6     1    24    1
     7     1     2    1
     8     1     3    2
     9     6    11    1
    10     6    12    1
    11    29    36    1
    12    29    37    1
    13     7     9    1
    14     7    13    1
    15     8    10    1
    16     8    14    1
    17    28    37    1
    18     4     5    1
    19    30    33    1
    20    30    38    1
    21    31    34    1
    22    31    39    1
    23    32    35    1
    24    32    40    1
    25    41    42    1
    26    41    43    1
    27    15    19    2
    28    16    22    2
    29    17    12    1
    30    17    19   ar
    31    17    20   ar
    32    18    19   ar
    33    18    22   ar
    34    18    23    1
    35     9    10    1
    36     9    11    1
    37    10    12    1
    38    11     5    1
    39    33    34    1
    40    33    35    1
    41    34    36    1
    42    35    37    1
    43    36    42    1
    44    20    21   ar
    45    21    22   ar
@<TRIPOS>MOLECULE
*****
 43 45 0 0 0
SMALL
GASTEIGER

@<TRIPOS>ATOM
      1 P          22.4417   73.1235   -4.5504 P.3     1  UNL1        0.2189
      2 O          22.7875   73.7767   -5.9896 O.co2   1  UNL1       -0.4371
      3 O          23.5659   72.3601   -3.9143 O.2     1  UNL1       -0.5170
      4 O          21.0861   72.2827   -4.8212 O.3     1  UNL1       -0.3112
      5 C          20.8598   71.1040   -4.0680 C.3     1  UNL1        0.1811
      6 O          18.7144   72.1846   -4.1252 O.3     1  UNL1       -0.3308
      7 O          17.7186   69.8799   -2.4859 O.3     1  UNL1       -0.3794
      8 O          16.8575   69.2417   -4.9935 O.3     1  UNL1       -0.3779
      9 C          18.6888   69.8905   -3.5318 C.3     1  UNL1        0.1713
     10 C          18.0107   70.0499   -4.8765 C.3     1  UNL1        0.1895
     11 C          19.4839   71.1855   -3.4211 C.3     1  UNL1        0.1764
     12 C          17.6883   71.5345   -4.8928 C.3     1  UNL1        0.2383
     13 H          17.1985   69.0619   -2.5359 H       1  UNL1        0.2105
     14 H          17.1149   68.3066   -4.9781 H       1  UNL1        0.2106
     15 O          15.8914   70.7591   -6.9295 O.2     1  UNL1       -0.2464
     16 O          17.7644   73.6918   -9.9514 O.2     1  UNL1       -0.2670
     17 N          17.6837   72.0794   -6.2211 N.ar    1  UNL1       -0.2551
     18 N          16.8254   72.2201   -8.4325 N.ar    1  UNL1       -0.2743
     19 C          16.7399   71.6206   -7.1694 C.ar    1  UNL1        0.3323
     20 C          18.6075   73.0578   -6.5720 C.ar    1  UNL1        0.0869
     21 C          18.6767   73.6185   -7.7811 C.ar    1  UNL1        0.0795
     22 C          17.7264   73.1953   -8.8299 C.ar    1  UNL1        0.2626
     23 H          16.1781   71.9159   -9.1094 H       1  UNL1        0.1734
     24 O          21.9185   74.3899   -3.6928 O.3     1  UNL1       -0.2703
     25 P          22.1972   74.8222   -2.1603 P.3     1  UNL1        0.2208
     26 O          20.9159   75.7400   -1.7949 O.co2   1  UNL1       -0.4371
     27 O          23.5222   75.4932   -1.9415 O.2     1  UNL1       -0.5170
     28 O          21.9846   73.4677   -1.3088 O.3     1  UNL1       -0.2858
     29 O          23.1749   73.6627    0.7313 O.3     1  UNL1       -0.3258
     30 O          21.8904   69.7545    1.0878 O.3     1  UNL1       -0.3794
     31 O          20.6915   71.7951    2.7147 O.3     1  UNL1       -0.3794
     32 O          22.7312   70.7687   -1.4898 O.3     1  UNL1       -0.3775
     33 C          21.7936   71.1276    0.6995 C.3     1  UNL1        0.1715
     34 C          21.8844   71.9899    1.9601 C.3     1  UNL1        0.1694
     35 C          22.9354   71.4566   -0.2604 C.3     1  UNL1        0.1967
     36 C          22.0561   73.4731    1.6054 C.3     1  UNL1        0.1761
     37 C          23.0493   72.9619   -0.5077 C.3     1  UNL1        0.2704
     38 H          21.1679   69.5390    1.6969 H       1  UNL1        0.2105
     39 H          20.5947   70.8545    2.9317 H       1  UNL1        0.2105
     40 H          22.6610   69.8168   -1.3198 H       1  UNL1        0.2106
     41 O          21.6462   73.7359    3.9446 O.3     1  UNL1       -0.3794
     42 C          22.3066   74.3318    2.8432 C.3     1  UNL1        0.1693
     43 H          21.7971   74.2715    4.7397 H       1  UNL1        0.2105
@<TRIPOS>UNITY_ATOM_ATTR
2 1
charge -1
26 1
charge -1
@<TRIPOS>BOND
     1    25    28    1
     2    25    24    1
     3    25    26    1
     4    25    27    2
     5     1     4    1
     6     1    24    1
     7     1     2    1
     8     1     3    2
     9     6    11    1
    10     6    12    1
    11    29    36    1
    12    29    37    1
    13     7     9    1
    14     7    13    1
    15     8    10    1
    16     8    14    1
    17    28    37    1
    18     4     5    1
    19    30    33    1
    20    30    38    1
    21    31    34    1
    22    31    39    1
    23    32    35    1
    24    32    40    1
    25    41    42    1
    26    41    43    1
    27    15    19    2
    28    16    22    2
    29    17    12    1
    30    17    19   ar
    31    17    20   ar
    32    18    19   ar
    33    18    22   ar
    34    18    23    1
    35     9    10    1
    36     9    11    1
    37    10    12    1
    38    11     5    1
    39    33    34    1
    40    33    35    1
    41    34    36    1
    42    35    37    1
    43    36    42    1
    44    20    21   ar
    45    21    22   ar
