@<TRIPOS>MOLECULE
UD2
 46 48 0 0 0
SMALL
GASTEIGER

@<TRIPOS>ATOM
      1 P          21.3464   71.6543   -2.9443 P.3     1  UNL1        0.2189
      2 O          22.7323   70.9129   -3.2924 O.3     1  UNL1       -0.4371
      3 O          21.2028   72.8571   -3.7938 O.2     1  UNL1       -0.5170
      4 O          20.1171   70.6515   -3.2216 O.3     1  UNL1       -0.3112
      5 C          18.9487   70.6087   -2.4004 C.3     1  UNL1        0.1811
      6 C          17.1828   70.5326   -5.5329 C.3     1  UNL1        0.2383
      7 C          17.0771   69.0846   -4.9906 C.3     1  UNL1        0.1895
      8 O          15.8608   68.4677   -5.4172 O.3     1  UNL1       -0.3779
      9 C          17.0744   69.3102   -3.4588 C.3     1  UNL1        0.1713
     10 C          17.7017   70.7063   -3.2828 C.3     1  UNL1        0.1764
     11 O          18.0636   71.1806   -4.5895 O.3     1  UNL1       -0.3308
     12 O          15.7378   69.2948   -2.9546 O.3     1  UNL1       -0.3794
     13 H          15.7488   67.5601   -5.1037 H       1  UNL1        0.2106
     14 H          15.2744   68.4577   -3.0921 H       1  UNL1        0.2105
     15 N          17.7689   70.5393   -6.8751 N.ar    1  UNL1       -0.2551
     16 C          16.9694   70.4379   -7.9518 C.ar    1  UNL1        0.3323
     17 N          17.4808   70.4411   -9.1971 N.ar    1  UNL1       -0.2743
     18 C          18.8120   70.5489   -9.3840 C.ar    1  UNL1        0.2626
     19 C          19.6652   70.6574   -8.2595 C.ar    1  UNL1        0.0795
     20 C          19.1249   70.6557   -7.0227 C.ar    1  UNL1        0.0869
     21 O          15.7672   70.3403   -7.7984 O.2     1  UNL1       -0.2464
     22 O          19.2760   70.5524  -10.5105 O.2     1  UNL1       -0.2670
     23 H          16.8902   70.3659   -9.9625 H       1  UNL1        0.1734
     24 O          21.3445   72.0887   -1.3937 O.3     1  UNL1       -0.2703
     25 P          22.0303   71.4917   -0.0647 P.3     1  UNL1        0.2208
     26 O          21.1440   70.2679    0.4925 O.3     1  UNL1       -0.4371
     27 O          23.3910   71.0084   -0.3859 O.2     1  UNL1       -0.5170
     28 O          22.1202   72.6438    1.0566 O.3     1  UNL1       -0.2865
     29 C          22.2324   72.3639    2.4531 C.3     1  UNL1        0.2611
     30 C          21.8898   73.6213    3.2557 C.3     1  UNL1        0.1582
     31 C          22.9004   74.7223    2.9194 C.3     1  UNL1        0.1625
     32 C          24.3131   74.2116    3.2157 C.3     1  UNL1        0.1686
     33 C          24.5623   72.9310    2.4144 C.3     1  UNL1        0.1760
     34 O          22.6323   75.8765    3.7190 O.3     1  UNL1       -0.3801
     35 O          24.4376   73.9339    4.6116 O.3     1  UNL1       -0.3794
     36 O          23.5702   71.9594    2.7515 O.3     1  UNL1       -0.3263
     37 H          23.2352   76.6151    3.5573 H       1  UNL1        0.2105
     38 H          25.3094   73.6048    4.8717 H       1  UNL1        0.2105
     39 C          19.6847   74.4523    3.8758 C.2     1  UNL1        0.2231
     40 C          18.2972   74.9161    3.5177 C.3     1  UNL1        0.0946
     41 N          20.5402   74.0721    2.9065 N.am    1  UNL1       -0.2994
     42 O          20.0329   74.4208    5.0377 O.2     1  UNL1       -0.2751
     43 H          20.2619   74.0962    1.9776 H       1  UNL1        0.1496
     44 C          25.9499   72.3814    2.7503 C.3     1  UNL1        0.1693
     45 O          26.0985   71.0797    2.1795 O.3     1  UNL1       -0.3794
     46 H          26.9567   70.6692    2.3530 H       1  UNL1        0.2105
@<TRIPOS>BOND
     1    29    30    1
     2    30    41    1
     3    30    31    1
     4    31    34    1
     5    31    32    1
     6    32    35    1
     7    32    33    1
     8    33    36    1
     9    33    44    1
    10    39    40    1
    11    39    42    2
    12    39    41   am
    13    41    43    1
    14    29    28    1
    15    34    37    1
    16    35    38    1
    17    29    36    1
    18    44    45    1
    19    45    46    1
    20    15     6    1
    21    15    16   ar
    22    16    21    2
    23    16    17   ar
    24    17    23    1
    25    17    18   ar
    26    18    19   ar
    27    19    20   ar
    28    15    20   ar
    29    18    22    2
    30     6     7    1
    31     6    11    1
    32     7     9    1
    33     7     8    1
    34     8    13    1
    35     9    10    1
    36     9    12    1
    37    10     5    1
    38    10    11    1
    39    12    14    1
    40     5     4    1
    41     4     1    1
    42     1     2    1
    43     1    24    1
    44     1     3    2
    45    24    25    1
    46    28    25    1
    47    25    26    1
    48    25    27    2
@<TRIPOS>MOLECULE
UD2
 46 48 0 0 0
SMALL
GASTEIGER

@<TRIPOS>ATOM
      1 P          20.5058   71.0500   -3.4093 P.3     1  UNL1        0.2189
      2 O          20.9908   69.7291   -4.1910 O.3     1  UNL1       -0.4371
      3 O          20.3267   72.1572   -4.3741 O.2     1  UNL1       -0.5170
      4 O          19.1071   70.7520   -2.6686 O.3     1  UNL1       -0.3112
      5 C          18.0116   71.6692   -2.6783 C.3     1  UNL1        0.1811
      6 C          16.7970   70.4698   -5.8442 C.3     1  UNL1        0.2383
      7 C          17.1397   69.1859   -5.0466 C.3     1  UNL1        0.1895
      8 O          16.2826   68.1068   -5.4242 O.3     1  UNL1       -0.3779
      9 C          16.8640   69.6259   -3.5879 C.3     1  UNL1        0.1713
     10 C          16.9325   71.1642   -3.6392 C.3     1  UNL1        0.1764
     11 O          17.2666   71.5328   -4.9868 O.3     1  UNL1       -0.3308
     12 O          15.5660   69.1961   -3.1740 O.3     1  UNL1       -0.3794
     13 H          16.4584   67.2812   -4.9530 H       1  UNL1        0.2106
     14 H          15.4481   68.2366   -3.1800 H       1  UNL1        0.2105
     15 N          17.5080   70.4870   -7.1245 N.ar    1  UNL1       -0.2551
     16 C          16.8108   70.5392   -8.2734 C.ar    1  UNL1        0.3323
     17 N          17.4381   70.5559   -9.4643 N.ar    1  UNL1       -0.2743
     18 C          18.7850   70.5220   -9.5226 C.ar    1  UNL1        0.2626
     19 C          19.5315   70.4680   -8.3209 C.ar    1  UNL1        0.0795
     20 C          18.8766   70.4567   -7.1409 C.ar    1  UNL1        0.0869
     21 O          15.5959   70.5703   -8.2360 O.2     1  UNL1       -0.2464
     22 O          19.3540   70.5375  -10.5998 O.2     1  UNL1       -0.2670
     23 H          16.9201   70.5924  -10.2832 H       1  UNL1        0.1734
     24 O          21.6134   71.4642   -2.3162 O.3     1  UNL1       -0.2703
     25 P          23.1059   72.0616   -2.4080 P.3     1  UNL1        0.2208
     26 O          24.0874   70.9564   -3.0476 O.3     1  UNL1       -0.4371
     27 O          23.1023   73.2700   -3.2613 O.2     1  UNL1       -0.5170
     28 O          23.6211   72.4477   -0.9322 O.3     1  UNL1       -0.2865
     29 C          22.9078   72.1023    0.2565 C.3     1  UNL1        0.2611
     30 C          22.4621   73.3785    0.9744 C.3     1  UNL1        0.1582
     31 C          23.7002   74.1786    1.3909 C.3     1  UNL1        0.1625
     32 C          24.5912   73.2983    2.2715 C.3     1  UNL1        0.1686
     33 C          24.9549   72.0248    1.5034 C.3     1  UNL1        0.1760
     34 O          23.2955   75.3355    2.1265 O.3     1  UNL1       -0.3801
     35 O          23.8887   72.9517    3.4664 O.3     1  UNL1       -0.3794
     36 O          23.7587   71.3443    1.1189 O.3     1  UNL1       -0.3263
     37 H          24.0305   75.8903    2.4218 H       1  UNL1        0.2105
     38 H          24.3944   72.3925    4.0726 H       1  UNL1        0.2105
     39 C          20.3335   73.8929   -0.0943 C.2     1  UNL1        0.2231
     40 C          19.4859   74.7226   -1.0227 C.3     1  UNL1        0.0946
     41 N          21.6384   74.1859    0.0709 N.am    1  UNL1       -0.2994
     42 O          19.8415   72.9599    0.5055 O.2     1  UNL1       -0.2751
     43 H          22.0324   74.9311   -0.4091 H       1  UNL1        0.1496
     44 C          25.7960   71.1125    2.3981 C.3     1  UNL1        0.1693
     45 O          25.0005   70.0093    2.8368 O.3     1  UNL1       -0.3794
     46 H          25.4704   69.3880    3.4097 H       1  UNL1        0.2105
@<TRIPOS>BOND
     1    29    30    1
     2    30    41    1
     3    30    31    1
     4    31    34    1
     5    31    32    1
     6    32    35    1
     7    32    33    1
     8    33    36    1
     9    33    44    1
    10    39    40    1
    11    39    42    2
    12    39    41   am
    13    41    43    1
    14    29    28    1
    15    34    37    1
    16    35    38    1
    17    29    36    1
    18    44    45    1
    19    45    46    1
    20    15     6    1
    21    15    16   ar
    22    16    21    2
    23    16    17   ar
    24    17    23    1
    25    17    18   ar
    26    18    19   ar
    27    19    20   ar
    28    15    20   ar
    29    18    22    2
    30     6     7    1
    31     6    11    1
    32     7     9    1
    33     7     8    1
    34     8    13    1
    35     9    10    1
    36     9    12    1
    37    10     5    1
    38    10    11    1
    39    12    14    1
    40     5     4    1
    41     4     1    1
    42     1     2    1
    43     1    24    1
    44     1     3    2
    45    24    25    1
    46    28    25    1
    47    25    26    1
    48    25    27    2
@<TRIPOS>MOLECULE
UD2
 46 48 0 0 0
SMALL
GASTEIGER

@<TRIPOS>ATOM
      1 P          20.7952   71.1052   -3.1273 P.3     1  UNL1        0.2189
      2 O          20.9855   70.5493   -1.6286 O.3     1  UNL1       -0.4371
      3 O          20.8323   69.9753   -4.0817 O.2     1  UNL1       -0.5170
      4 O          19.3771   71.8596   -3.2436 O.3     1  UNL1       -0.3112
      5 C          18.2237   71.4656   -2.4980 C.3     1  UNL1        0.1811
      6 C          16.8924   70.5077   -5.6991 C.3     1  UNL1        0.2383
      7 C          17.1767   69.1656   -4.9778 C.3     1  UNL1        0.1895
      8 O          16.2550   68.1568   -5.3957 O.3     1  UNL1       -0.3779
      9 C          16.9499   69.5401   -3.4927 C.3     1  UNL1        0.1713
     10 C          17.1025   71.0729   -3.4633 C.3     1  UNL1        0.1764
     11 O          17.4342   71.4954   -4.7955 O.3     1  UNL1       -0.3308
     12 O          15.6371   69.1597   -3.0772 O.3     1  UNL1       -0.3794
     13 H          16.3926   67.2985   -4.9726 H       1  UNL1        0.2106
     14 H          15.4661   68.2098   -3.1319 H       1  UNL1        0.2105
     15 N          17.5822   70.5556   -6.9902 N.ar    1  UNL1       -0.2551
     16 C          16.8679   70.5165   -8.1291 C.ar    1  UNL1        0.3323
     17 N          17.4755   70.5588   -9.3297 N.ar    1  UNL1       -0.2743
     18 C          18.8191   70.6434   -9.4078 C.ar    1  UNL1        0.2626
     19 C          19.5833   70.6864   -8.2169 C.ar    1  UNL1        0.0795
     20 C          18.9476   70.6467   -7.0270 C.ar    1  UNL1        0.0869
     21 O          15.6557   70.4405   -8.0738 O.2     1  UNL1       -0.2464
     22 O          19.3701   70.6821  -10.4938 O.2     1  UNL1       -0.2670
     23 H          16.9455   70.5285  -10.1411 H       1  UNL1        0.1734
     24 O          21.9816   72.1382   -3.4716 O.3     1  UNL1       -0.2703
     25 P          23.5652   72.1591   -3.1803 P.3     1  UNL1        0.2208
     26 O          24.1252   70.6494   -3.1525 O.3     1  UNL1       -0.4371
     27 O          24.2531   72.9203   -4.2460 O.2     1  UNL1       -0.5170
     28 O          23.8397   72.8601   -1.7569 O.3     1  UNL1       -0.2865
     29 C          22.9409   73.8005   -1.1660 C.3     1  UNL1        0.2611
     30 C          23.7396   74.8693   -0.4161 C.3     1  UNL1        0.1582
     31 C          24.5278   74.2043    0.7166 C.3     1  UNL1        0.1625
     32 C          23.5536   73.4584    1.6325 C.3     1  UNL1        0.1686
     33 C          22.7619   72.4437    0.8033 C.3     1  UNL1        0.1760
     34 O          25.2190   75.2047    1.4682 O.3     1  UNL1       -0.3801
     35 O          22.6534   74.3912    2.2333 O.3     1  UNL1       -0.3794
     36 O          22.0772   73.1231   -0.2509 O.3     1  UNL1       -0.3263
     37 H          25.7407   74.8536    2.2029 H       1  UNL1        0.2105
     38 H          22.0057   73.9869    2.8274 H       1  UNL1        0.2105
     39 C          24.8649   76.8556   -1.2682 C.2     1  UNL1        0.2231
     40 C          25.8201   77.5296   -2.2178 C.3     1  UNL1        0.0946
     41 N          24.6687   75.5242   -1.3403 N.am    1  UNL1       -0.2994
     42 O          24.2713   77.5112   -0.4375 O.2     1  UNL1       -0.2751
     43 H          25.1423   74.9998   -2.0049 H       1  UNL1        0.1496
     44 C          21.7443   71.7359    1.6999 C.3     1  UNL1        0.1693
     45 O          21.5494   70.3980    1.2367 O.3     1  UNL1       -0.3794
     46 H          20.9151   69.8887    1.7594 H       1  UNL1        0.2105
@<TRIPOS>BOND
     1    29    30    1
     2    30    41    1
     3    30    31    1
     4    31    34    1
     5    31    32    1
     6    32    35    1
     7    32    33    1
     8    33    36    1
     9    33    44    1
    10    39    40    1
    11    39    42    2
    12    39    41   am
    13    41    43    1
    14    29    28    1
    15    34    37    1
    16    35    38    1
    17    29    36    1
    18    44    45    1
    19    45    46    1
    20    15     6    1
    21    15    16   ar
    22    16    21    2
    23    16    17   ar
    24    17    23    1
    25    17    18   ar
    26    18    19   ar
    27    19    20   ar
    28    15    20   ar
    29    18    22    2
    30     6     7    1
    31     6    11    1
    32     7     9    1
    33     7     8    1
    34     8    13    1
    35     9    10    1
    36     9    12    1
    37    10     5    1
    38    10    11    1
    39    12    14    1
    40     5     4    1
    41     4     1    1
    42     1     2    1
    43     1    24    1
    44     1     3    2
    45    24    25    1
    46    28    25    1
    47    25    26    1
    48    25    27    2
@<TRIPOS>MOLECULE
UD2
 46 48 0 0 0
SMALL
GASTEIGER

@<TRIPOS>ATOM
      1 P          23.4206   72.0892   -3.2968 P.3     1  UNL1        0.2189
      2 O          24.1894   72.8900   -4.4626 O.3     1  UNL1       -0.4371
      3 O          24.1895   70.8765   -2.9406 O.2     1  UNL1       -0.5170
      4 O          23.2782   73.0345   -2.0006 O.3     1  UNL1       -0.3112
      5 C          22.0269   73.2938   -1.3615 C.3     1  UNL1        0.1811
      6 C          23.3436   72.1026    1.7664 C.3     1  UNL1        0.2383
      7 C          22.6082   73.4179    2.1287 C.3     1  UNL1        0.1895
      8 O          22.0831   73.3596    3.4564 O.3     1  UNL1       -0.3779
      9 C          21.4660   73.4504    1.0839 C.3     1  UNL1        0.1713
     10 C          21.9589   72.5213   -0.0418 C.3     1  UNL1        0.1764
     11 O          23.2702   72.0635    0.3246 O.3     1  UNL1       -0.3308
     12 O          20.2552   72.9491    1.6526 O.3     1  UNL1       -0.3794
     13 H          21.6145   74.1598    3.7298 H       1  UNL1        0.2106
     14 H          19.9307   73.4628    2.4045 H       1  UNL1        0.2105
     15 N          24.7381   72.1518    2.2113 N.ar    1  UNL1       -0.2551
     16 C          25.4563   71.0168    2.2795 C.ar    1  UNL1        0.3323
     17 N          26.7399   71.0325    2.6851 N.ar    1  UNL1       -0.2743
     18 C          27.3286   72.1957    3.0296 C.ar    1  UNL1        0.2626
     19 C          26.5847   73.3982    2.9616 C.ar    1  UNL1        0.0795
     20 C          25.3009   73.3536    2.5474 C.ar    1  UNL1        0.0869
     21 O          24.9384   69.9607    1.9717 O.2     1  UNL1       -0.2464
     22 O          28.4904   72.2113    3.3965 O.2     1  UNL1       -0.2670
     23 H          27.2430   70.2048    2.7296 H       1  UNL1        0.1734
     24 O          21.9558   71.6640   -3.8134 O.3     1  UNL1       -0.2703
     25 P          20.9786   72.2055   -4.9730 P.3     1  UNL1        0.2208
     26 O          20.9320   73.8147   -4.9268 O.3     1  UNL1       -0.4371
     27 O          21.4853   71.7650   -6.2912 O.2     1  UNL1       -0.5170
     28 O          19.4969   71.6185   -4.7436 O.3     1  UNL1       -0.2865
     29 C          19.1526   70.2546   -4.9936 C.3     1  UNL1        0.2611
     30 C          18.1475   70.1839   -6.1457 C.3     1  UNL1        0.1582
     31 C          16.8668   70.9201   -5.7405 C.3     1  UNL1        0.1625
     32 C          16.3188   70.2981   -4.4531 C.3     1  UNL1        0.1686
     33 C          17.3947   70.3645   -3.3659 C.3     1  UNL1        0.1760
     34 O          15.8954   70.7963   -6.7818 O.3     1  UNL1       -0.3801
     35 O          15.9659   68.9348   -4.6940 O.3     1  UNL1       -0.3794
     36 O          18.5692   69.6879   -3.8184 O.3     1  UNL1       -0.3263
     37 H          15.0576   71.2406   -6.5924 H       1  UNL1        0.2105
     38 H          15.6111   68.4768   -3.9191 H       1  UNL1        0.2105
     39 C          18.5850   70.2345   -8.5423 C.2     1  UNL1        0.2231
     40 C          19.1744   70.8860   -9.7657 C.3     1  UNL1        0.0946
     41 N          18.7213   70.8181   -7.3353 N.am    1  UNL1       -0.2994
     42 O          17.9870   69.1836   -8.6430 O.2     1  UNL1       -0.2751
     43 H          19.2002   71.6578   -7.2541 H       1  UNL1        0.1496
     44 C          16.8761   69.6913   -2.0938 C.3     1  UNL1        0.1693
     45 O          17.1969   68.2990   -2.1260 O.3     1  UNL1       -0.3794
     46 H          16.8975   67.8077   -1.3489 H       1  UNL1        0.2105
@<TRIPOS>BOND
     1    29    30    1
     2    30    41    1
     3    30    31    1
     4    31    34    1
     5    31    32    1
     6    32    35    1
     7    32    33    1
     8    33    36    1
     9    33    44    1
    10    39    40    1
    11    39    42    2
    12    39    41   am
    13    41    43    1
    14    29    28    1
    15    34    37    1
    16    35    38    1
    17    29    36    1
    18    44    45    1
    19    45    46    1
    20    15     6    1
    21    15    16   ar
    22    16    21    2
    23    16    17   ar
    24    17    23    1
    25    17    18   ar
    26    18    19   ar
    27    19    20   ar
    28    15    20   ar
    29    18    22    2
    30     6     7    1
    31     6    11    1
    32     7     9    1
    33     7     8    1
    34     8    13    1
    35     9    10    1
    36     9    12    1
    37    10     5    1
    38    10    11    1
    39    12    14    1
    40     5     4    1
    41     4     1    1
    42     1     2    1
    43     1    24    1
    44     1     3    2
    45    24    25    1
    46    28    25    1
    47    25    26    1
    48    25    27    2
@<TRIPOS>MOLECULE
UD2
 46 48 0 0 0
SMALL
GASTEIGER

@<TRIPOS>ATOM
      1 P          20.5274   70.7529   -3.2565 P.3     1  UNL1        0.2189
      2 O          20.7887   69.5358   -4.2771 O.3     1  UNL1       -0.4371
      3 O          20.4897   72.0274   -4.0069 O.2     1  UNL1       -0.5170
      4 O          19.1202   70.5305   -2.5054 O.3     1  UNL1       -0.3112
      5 C          18.0805   71.5105   -2.4966 C.3     1  UNL1        0.1811
      6 C          16.8165   70.5246   -5.7164 C.3     1  UNL1        0.2383
      7 C          17.1131   69.1889   -4.9885 C.3     1  UNL1        0.1895
      8 O          16.2160   68.1633   -5.4189 O.3     1  UNL1       -0.3779
      9 C          16.8566   69.5614   -3.5077 C.3     1  UNL1        0.1713
     10 C          16.9816   71.0966   -3.4785 C.3     1  UNL1        0.1764
     11 O          17.3266   71.5231   -4.8062 O.3     1  UNL1       -0.3308
     12 O          15.5444   69.1584   -3.1120 O.3     1  UNL1       -0.3794
     13 H          16.3621   67.3081   -4.9923 H       1  UNL1        0.2106
     14 H          15.3911   68.2056   -3.1678 H       1  UNL1        0.2105
     15 N          17.5253   70.5829   -6.9967 N.ar    1  UNL1       -0.2551
     16 C          16.8308   70.5162   -8.1465 C.ar    1  UNL1        0.3323
     17 N          17.4561   70.5671   -9.3375 N.ar    1  UNL1       -0.2743
     18 C          18.7980   70.6885   -9.3949 C.ar    1  UNL1        0.2626
     19 C          19.5415   70.7609   -8.1924 C.ar    1  UNL1        0.0795
     20 C          18.8881   70.7117   -7.0125 C.ar    1  UNL1        0.0869
     21 O          15.6204   70.4068   -8.1099 O.2     1  UNL1       -0.2464
     22 O          19.3652   70.7352  -10.4723 O.2     1  UNL1       -0.2670
     23 H          16.9403   70.5165  -10.1570 H       1  UNL1        0.1734
     24 O          21.7133   70.8053   -2.1683 O.3     1  UNL1       -0.2703
     25 P          23.1123   71.5974   -2.0768 P.3     1  UNL1        0.2208
     26 O          24.2422   70.7852   -2.8876 O.3     1  UNL1       -0.4371
     27 O          22.9559   72.9451   -2.6662 O.2     1  UNL1       -0.5170
     28 O          23.5518   71.7336   -0.5338 O.3     1  UNL1       -0.2865
     29 C          23.4721   72.9611    0.1929 C.3     1  UNL1        0.2611
     30 C          23.8031   72.7060    1.6653 C.3     1  UNL1        0.1582
     31 C          22.7632   71.7481    2.2549 C.3     1  UNL1        0.1625
     32 C          21.3675   72.3498    2.0695 C.3     1  UNL1        0.1686
     33 C          21.1304   72.6187    0.5811 C.3     1  UNL1        0.1760
     34 O          23.0218   71.5619    3.6484 O.3     1  UNL1       -0.3801
     35 O          21.2754   73.5757    2.7974 O.3     1  UNL1       -0.3794
     36 O          22.1491   73.4912    0.0881 O.3     1  UNL1       -0.3263
     37 H          22.4004   70.9646    4.0869 H       1  UNL1        0.2105
     38 H          20.4158   74.0137    2.7244 H       1  UNL1        0.2105
     39 C          25.9905   72.5271    2.7241 C.2     1  UNL1        0.2231
     40 C          27.3608   71.9116    2.8331 C.3     1  UNL1        0.0946
     41 N          25.1359   72.1068    1.7706 N.am    1  UNL1       -0.2994
     42 O          25.6553   73.4021    3.4950 O.2     1  UNL1       -0.2751
     43 H          25.4038   71.4080    1.1534 H       1  UNL1        0.1496
     44 C          19.7614   73.2752    0.3934 C.3     1  UNL1        0.1693
     45 O          19.8989   74.6956    0.4702 O.3     1  UNL1       -0.3794
     46 H          19.0684   75.1783    0.3597 H       1  UNL1        0.2105
@<TRIPOS>BOND
     1    29    30    1
     2    30    41    1
     3    30    31    1
     4    31    34    1
     5    31    32    1
     6    32    35    1
     7    32    33    1
     8    33    36    1
     9    33    44    1
    10    39    40    1
    11    39    42    2
    12    39    41   am
    13    41    43    1
    14    29    28    1
    15    34    37    1
    16    35    38    1
    17    29    36    1
    18    44    45    1
    19    45    46    1
    20    15     6    1
    21    15    16   ar
    22    16    21    2
    23    16    17   ar
    24    17    23    1
    25    17    18   ar
    26    18    19   ar
    27    19    20   ar
    28    15    20   ar
    29    18    22    2
    30     6     7    1
    31     6    11    1
    32     7     9    1
    33     7     8    1
    34     8    13    1
    35     9    10    1
    36     9    12    1
    37    10     5    1
    38    10    11    1
    39    12    14    1
    40     5     4    1
    41     4     1    1
    42     1     2    1
    43     1    24    1
    44     1     3    2
    45    24    25    1
    46    28    25    1
    47    25    26    1
    48    25    27    2
@<TRIPOS>MOLECULE
UD2
 46 48 0 0 0
SMALL
GASTEIGER

@<TRIPOS>ATOM
      1 P          22.9224   71.5473   -2.5231 P.3     1  UNL1        0.2189
      2 O          23.0970   73.1146   -2.8461 O.3     1  UNL1       -0.4371
      3 O          24.0998   70.8053   -3.0253 O.2     1  UNL1       -0.5170
      4 O          22.7954   71.3385   -0.9312 O.3     1  UNL1       -0.3112
      5 C          23.9287   71.2648   -0.0642 C.3     1  UNL1        0.1811
      6 C          25.0783   73.2727    2.6896 C.3     1  UNL1        0.2383
      7 C          25.1203   74.2258    1.4682 C.3     1  UNL1        0.1895
      8 O          24.8782   75.5765    1.8666 O.3     1  UNL1       -0.3779
      9 C          23.9576   73.6899    0.5973 C.3     1  UNL1        0.1713
     10 C          23.7479   72.2472    1.0956 C.3     1  UNL1        0.1764
     11 O          24.7361   71.9961    2.1074 O.3     1  UNL1       -0.3308
     12 O          22.7781   74.4682    0.8062 O.3     1  UNL1       -0.3794
     13 H          24.8949   76.2109    1.1373 H       1  UNL1        0.2106
     14 H          22.8724   75.3994    0.5645 H       1  UNL1        0.2105
     15 N          26.3892   73.2090    3.3395 N.ar    1  UNL1       -0.2551
     16 C          26.6984   74.0935    4.3043 C.ar    1  UNL1        0.3323
     17 N          27.8958   74.0585    4.9185 N.ar    1  UNL1       -0.2743
     18 C          28.8085   73.1276    4.5736 C.ar    1  UNL1        0.2626
     19 C          28.4960   72.1896    3.5604 C.ar    1  UNL1        0.0795
     20 C          27.2863   72.2454    2.9644 C.ar    1  UNL1        0.0869
     21 O          25.8851   74.9383    4.6256 O.2     1  UNL1       -0.2464
     22 O          29.8924   73.0945    5.1290 O.2     1  UNL1       -0.2670
     23 H          28.1029   74.7045    5.6112 H       1  UNL1        0.1734
     24 O          21.5923   70.9954   -3.2438 O.3     1  UNL1       -0.2703
     25 P          20.0161   71.2286   -3.0111 P.3     1  UNL1        0.2208
     26 O          19.5271   70.3619   -1.7448 O.3     1  UNL1       -0.4371
     27 O          19.7620   72.6630   -2.7541 O.2     1  UNL1       -0.5170
     28 O          19.2058   70.7663   -4.3235 O.3     1  UNL1       -0.2865
     29 C          18.4167   71.6631   -5.1073 C.3     1  UNL1        0.2611
     30 C          17.0136   71.0805   -5.2933 C.3     1  UNL1        0.1582
     31 C          17.1165   69.7590   -6.0610 C.3     1  UNL1        0.1625
     32 C          17.8222   70.0104   -7.3964 C.3     1  UNL1        0.1686
     33 C          19.1946   70.6343   -7.1292 C.3     1  UNL1        0.1760
     34 O          15.8050   69.2445   -6.3034 O.3     1  UNL1       -0.3801
     35 O          17.0380   70.9022   -8.1907 O.3     1  UNL1       -0.3794
     36 O          19.0297   71.8434   -6.3856 O.3     1  UNL1       -0.3263
     37 H          15.7947   68.4066   -6.7861 H       1  UNL1        0.2105
     38 H          17.4262   71.1070   -9.0528 H       1  UNL1        0.2105
     39 C          16.5051   69.6242   -3.4069 C.2     1  UNL1        0.2231
     40 C          15.8813   69.3751   -2.0588 C.3     1  UNL1        0.0946
     41 N          16.4064   70.8389   -3.9820 N.am    1  UNL1       -0.2994
     42 O          17.0969   68.7308   -3.9760 O.2     1  UNL1       -0.2751
     43 H          15.9324   71.5532   -3.5278 H       1  UNL1        0.1496
     44 C          19.8817   70.9437   -8.4606 C.3     1  UNL1        0.1693
     45 O          19.3299   70.1153   -9.4861 O.3     1  UNL1       -0.3794
     46 H          19.7195   70.2577  -10.3596 H       1  UNL1        0.2105
@<TRIPOS>BOND
     1    29    30    1
     2    30    41    1
     3    30    31    1
     4    31    34    1
     5    31    32    1
     6    32    35    1
     7    32    33    1
     8    33    36    1
     9    33    44    1
    10    39    40    1
    11    39    42    2
    12    39    41   am
    13    41    43    1
    14    29    28    1
    15    34    37    1
    16    35    38    1
    17    29    36    1
    18    44    45    1
    19    45    46    1
    20    15     6    1
    21    15    16   ar
    22    16    21    2
    23    16    17   ar
    24    17    23    1
    25    17    18   ar
    26    18    19   ar
    27    19    20   ar
    28    15    20   ar
    29    18    22    2
    30     6     7    1
    31     6    11    1
    32     7     9    1
    33     7     8    1
    34     8    13    1
    35     9    10    1
    36     9    12    1
    37    10     5    1
    38    10    11    1
    39    12    14    1
    40     5     4    1
    41     4     1    1
    42     1     2    1
    43     1    24    1
    44     1     3    2
    45    24    25    1
    46    28    25    1
    47    25    26    1
    48    25    27    2
@<TRIPOS>MOLECULE
UD2
 46 48 0 0 0
SMALL
GASTEIGER

@<TRIPOS>ATOM
      1 P          23.3162   72.2115   -3.2432 P.3     1  UNL1        0.2189
      2 O          24.1976   72.7931   -4.4582 O.3     1  UNL1       -0.4371
      3 O          23.7653   70.8394   -2.9199 O.2     1  UNL1       -0.5170
      4 O          23.4970   73.1541   -1.9500 O.3     1  UNL1       -0.3112
      5 C          22.6143   73.1111   -0.8274 C.3     1  UNL1        0.1811
      6 C          24.5616   71.9424    1.9617 C.3     1  UNL1        0.2383
      7 C          23.2029   72.3569    2.5814 C.3     1  UNL1        0.1895
      8 O          22.8979   71.5555    3.7245 O.3     1  UNL1       -0.3779
      9 C          22.2156   72.0672    1.4244 C.3     1  UNL1        0.1713
     10 C          23.1039   72.0543    0.1658 C.3     1  UNL1        0.1764
     11 O          24.4435   72.3605    0.5844 O.3     1  UNL1       -0.3308
     12 O          21.5902   70.7961    1.6088 O.3     1  UNL1       -0.3794
     13 H          22.0575   71.7773    4.1478 H       1  UNL1        0.2106
     14 H          21.0653   70.7288    2.4177 H       1  UNL1        0.2105
     15 N          25.6650   72.6439    2.6215 N.ar    1  UNL1       -0.2551
     16 C          26.8388   72.0142    2.8071 C.ar    1  UNL1        0.3323
     17 N          27.8699   72.6346    3.4106 N.ar    1  UNL1       -0.2743
     18 C          27.7398   73.9066    3.8393 C.ar    1  UNL1        0.2626
     19 C          26.5101   74.5818    3.6494 C.ar    1  UNL1        0.0795
     20 C          25.4946   73.9369    3.0375 C.ar    1  UNL1        0.0869
     21 O          26.9704   70.8673    2.4255 O.2     1  UNL1       -0.2464
     22 O          28.6724   74.4693    4.3853 O.2     1  UNL1       -0.2670
     23 H          28.7090   72.1656    3.5376 H       1  UNL1        0.1734
     24 O          21.7642   72.1816   -3.6719 O.3     1  UNL1       -0.2703
     25 P          20.5765   71.1086   -3.4966 P.3     1  UNL1        0.2208
     26 O          21.0823   69.6628   -3.9943 O.3     1  UNL1       -0.4371
     27 O          20.1880   71.0308   -2.0713 O.2     1  UNL1       -0.5170
     28 O          19.3068   71.5652   -4.3752 O.3     1  UNL1       -0.2865
     29 C          18.0956   70.8105   -4.4437 C.3     1  UNL1        0.2611
     30 C          17.3269   71.1913   -5.7113 C.3     1  UNL1        0.1582
     31 C          16.9479   72.6739   -5.6422 C.3     1  UNL1        0.1625
     32 C          16.1309   72.9222   -4.3713 C.3     1  UNL1        0.1686
     33 C          16.9459   72.4746   -3.1550 C.3     1  UNL1        0.1760
     34 O          16.1664   73.0205   -6.7877 O.3     1  UNL1       -0.3801
     35 O          14.9140   72.1760   -4.4323 O.3     1  UNL1       -0.3794
     36 O          17.2919   71.0954   -3.2968 O.3     1  UNL1       -0.3263
     37 H          15.8914   73.9474   -6.8099 H       1  UNL1        0.2105
     38 H          14.3455   72.2854   -3.6572 H       1  UNL1        0.2105
     39 C          17.6288   70.4745   -8.0205 C.2     1  UNL1        0.2231
     40 C          18.4964   70.2325   -9.2277 C.3     1  UNL1        0.0946
     41 N          18.1716   70.9561   -6.8850 N.am    1  UNL1       -0.2994
     42 O          16.4402   70.2357   -8.0699 O.2     1  UNL1       -0.2751
     43 H          19.1220   71.1462   -6.8448 H       1  UNL1        0.1496
     44 C          16.1133   72.6640   -1.8857 C.3     1  UNL1        0.1693
     45 O          15.4479   71.4406   -1.5646 O.3     1  UNL1       -0.3794
     46 H          14.9002   71.4872   -0.7691 H       1  UNL1        0.2105
@<TRIPOS>BOND
     1    29    30    1
     2    30    41    1
     3    30    31    1
     4    31    34    1
     5    31    32    1
     6    32    35    1
     7    32    33    1
     8    33    36    1
     9    33    44    1
    10    39    40    1
    11    39    42    2
    12    39    41   am
    13    41    43    1
    14    29    28    1
    15    34    37    1
    16    35    38    1
    17    29    36    1
    18    44    45    1
    19    45    46    1
    20    15     6    1
    21    15    16   ar
    22    16    21    2
    23    16    17   ar
    24    17    23    1
    25    17    18   ar
    26    18    19   ar
    27    19    20   ar
    28    15    20   ar
    29    18    22    2
    30     6     7    1
    31     6    11    1
    32     7     9    1
    33     7     8    1
    34     8    13    1
    35     9    10    1
    36     9    12    1
    37    10     5    1
    38    10    11    1
    39    12    14    1
    40     5     4    1
    41     4     1    1
    42     1     2    1
    43     1    24    1
    44     1     3    2
    45    24    25    1
    46    28    25    1
    47    25    26    1
    48    25    27    2
@<TRIPOS>MOLECULE
UD2
 46 48 0 0 0
SMALL
GASTEIGER

@<TRIPOS>ATOM
      1 P          22.4092   72.2580   -3.2954 P.3     1  UNL1        0.2189
      2 O          23.8897   71.8210   -3.7523 O.3     1  UNL1       -0.4371
      3 O          21.9978   73.4661   -4.0436 O.2     1  UNL1       -0.5170
      4 O          21.3777   71.0597   -3.6016 O.3     1  UNL1       -0.3112
      5 C          20.3951   70.6209   -2.6618 C.3     1  UNL1        0.1811
      6 C          17.9649   70.6644   -5.3130 C.3     1  UNL1        0.2383
      7 C          17.8339   69.2524   -4.6874 C.3     1  UNL1        0.1895
      8 O          16.4946   68.7672   -4.7995 O.3     1  UNL1       -0.3779
      9 C          18.2035   69.5169   -3.2072 C.3     1  UNL1        0.1713
     10 C          18.9974   70.8366   -3.2474 C.3     1  UNL1        0.1764
     11 O          19.1003   71.2323   -4.6245 O.3     1  UNL1       -0.3308
     12 O          17.0226   69.6670   -2.4174 O.3     1  UNL1       -0.3794
     13 H          16.3622   67.8867   -4.4229 H       1  UNL1        0.2106
     14 H          16.4548   68.8848   -2.4049 H       1  UNL1        0.2105
     15 N          18.2277   70.5692   -6.7507 N.ar    1  UNL1       -0.2551
     16 C          17.2031   70.6212   -7.6203 C.ar    1  UNL1        0.3323
     17 N          17.4152   70.5359   -8.9469 N.ar    1  UNL1       -0.2743
     18 C          18.6681   70.3979   -9.4264 C.ar    1  UNL1        0.2626
     19 C          19.7562   70.3428   -8.5224 C.ar    1  UNL1        0.0795
     20 C          19.5146   70.4350   -7.1978 C.ar    1  UNL1        0.0869
     21 O          16.0681   70.7456   -7.2022 O.2     1  UNL1       -0.2464
     22 O          18.8615   70.3211  -10.6269 O.2     1  UNL1       -0.2670
     23 H          16.6650   70.5739   -9.5600 H       1  UNL1        0.1734
     24 O          22.4067   72.5770   -1.7169 O.3     1  UNL1       -0.2703
     25 P          22.7374   73.8869   -0.8407 P.3     1  UNL1        0.2208
     26 O          24.3337   74.0569   -0.7119 O.3     1  UNL1       -0.4371
     27 O          22.1667   75.0805   -1.5025 O.2     1  UNL1       -0.5170
     28 O          22.0942   73.7273    0.6268 O.3     1  UNL1       -0.2865
     29 C          22.3522   74.6420    1.6935 C.3     1  UNL1        0.2611
     30 C          22.8611   73.8726    2.9149 C.3     1  UNL1        0.1582
     31 C          21.7730   72.9030    3.3865 C.3     1  UNL1        0.1625
     32 C          20.4966   73.6928    3.6885 C.3     1  UNL1        0.1686
     33 C          20.0787   74.4693    2.4370 C.3     1  UNL1        0.1760
     34 O          22.2115   72.2330    4.5706 O.3     1  UNL1       -0.3801
     35 O          20.7424   74.6070    4.7586 O.3     1  UNL1       -0.3794
     36 O          21.1462   75.3292    2.0334 O.3     1  UNL1       -0.3263
     37 H          21.5705   71.6016    4.9250 H       1  UNL1        0.2105
     38 H          19.9749   75.1427    5.0033 H       1  UNL1        0.2105
     39 C          23.9642   71.8292    2.1762 C.2     1  UNL1        0.2231
     40 C          25.2007   71.0544    1.8030 C.3     1  UNL1        0.0946
     41 N          24.0644   73.1194    2.5523 N.am    1  UNL1       -0.2994
     42 O          22.8770   71.2919    2.1385 O.2     1  UNL1       -0.2751
     43 H          24.9335   73.5491    2.5835 H       1  UNL1        0.1496
     44 C          18.8376   75.3079    2.7481 C.3     1  UNL1        0.1693
     45 O          18.0578   74.6524    3.7504 O.3     1  UNL1       -0.3794
     46 H          17.2535   75.1287    3.9978 H       1  UNL1        0.2105
@<TRIPOS>BOND
     1    29    30    1
     2    30    41    1
     3    30    31    1
     4    31    34    1
     5    31    32    1
     6    32    35    1
     7    32    33    1
     8    33    36    1
     9    33    44    1
    10    39    40    1
    11    39    42    2
    12    39    41   am
    13    41    43    1
    14    29    28    1
    15    34    37    1
    16    35    38    1
    17    29    36    1
    18    44    45    1
    19    45    46    1
    20    15     6    1
    21    15    16   ar
    22    16    21    2
    23    16    17   ar
    24    17    23    1
    25    17    18   ar
    26    18    19   ar
    27    19    20   ar
    28    15    20   ar
    29    18    22    2
    30     6     7    1
    31     6    11    1
    32     7     9    1
    33     7     8    1
    34     8    13    1
    35     9    10    1
    36     9    12    1
    37    10     5    1
    38    10    11    1
    39    12    14    1
    40     5     4    1
    41     4     1    1
    42     1     2    1
    43     1    24    1
    44     1     3    2
    45    24    25    1
    46    28    25    1
    47    25    26    1
    48    25    27    2
@<TRIPOS>MOLECULE
UD2
 46 48 0 0 0
SMALL
GASTEIGER

@<TRIPOS>ATOM
      1 P          15.2399   70.9241   -1.8794 P.3     1  UNL1        0.2189
      2 O          14.8580   71.6598   -3.2593 O.3     1  UNL1       -0.4371
      3 O          15.9119   71.8848   -0.9770 O.2     1  UNL1       -0.5170
      4 O          13.8995   70.3743   -1.1758 O.3     1  UNL1       -0.3112
      5 C          13.8427   69.1282   -0.4790 C.3     1  UNL1        0.1811
      6 C          10.6018   67.6129   -0.1091 C.3     1  UNL1        0.2383
      7 C          11.5077   66.8433    0.8856 C.3     1  UNL1        0.1895
      8 O          10.7575   66.3934    2.0155 O.3     1  UNL1       -0.3779
      9 C          12.5319   67.9283    1.2991 C.3     1  UNL1        0.1713
     10 C          12.4621   68.9650    0.1616 C.3     1  UNL1        0.1764
     11 O          11.5274   68.4709   -0.8109 O.3     1  UNL1       -0.3308
     12 O          12.1546   68.5227    2.5421 O.3     1  UNL1       -0.3794
     13 H          11.2804   65.9058    2.6662 H       1  UNL1        0.2106
     14 H          12.1243   67.9021    3.2826 H       1  UNL1        0.2105
     15 N           9.9515   66.6858   -1.0378 N.ar    1  UNL1       -0.2551
     16 C           8.6330   66.7985   -1.2779 C.ar    1  UNL1        0.3323
     17 N           8.0092   65.9601   -2.1266 N.ar    1  UNL1       -0.2743
     18 C           8.7033   64.9891   -2.7542 C.ar    1  UNL1        0.2626
     19 C          10.0920   64.8597   -2.5116 C.ar    1  UNL1        0.0795
     20 C          10.6923   65.7167   -1.6591 C.ar    1  UNL1        0.0869
     21 O           7.9945   67.6694   -0.7192 O.2     1  UNL1       -0.2464
     22 O           8.1400   64.2299   -3.5229 O.2     1  UNL1       -0.2670
     23 H           7.0577   66.0545   -2.2874 H       1  UNL1        0.1734
     24 O          16.2297   69.6910   -2.1843 O.3     1  UNL1       -0.2703
     25 P          17.6990   69.5707   -2.8320 P.3     1  UNL1        0.2208
     26 O          18.7994   70.0489   -1.7576 O.3     1  UNL1       -0.4371
     27 O          17.9582   68.1642   -3.2100 O.2     1  UNL1       -0.5170
     28 O          17.7861   70.5037   -4.1415 O.3     1  UNL1       -0.2865
     29 C          18.6235   70.2008   -5.2588 C.3     1  UNL1        0.2611
     30 C          19.6531   71.3181   -5.4438 C.3     1  UNL1        0.1582
     31 C          18.9219   72.6283   -5.7522 C.3     1  UNL1        0.1625
     32 C          18.0481   72.4327   -6.9942 C.3     1  UNL1        0.1686
     33 C          17.0801   71.2721   -6.7493 C.3     1  UNL1        0.1760
     34 O          19.8782   73.6617   -5.9990 O.3     1  UNL1       -0.3801
     35 O          18.8769   72.1348   -8.1192 O.3     1  UNL1       -0.3794
     36 O          17.8231   70.0919   -6.4377 O.3     1  UNL1       -0.3263
     37 H          19.4843   74.5216   -6.2008 H       1  UNL1        0.2105
     38 H          18.3885   71.9975   -8.9430 H       1  UNL1        0.2105
     39 C          21.7581   71.7182   -4.2835 C.2     1  UNL1        0.2231
     40 C          22.5627   71.8762   -3.0201 C.3     1  UNL1        0.0946
     41 N          20.4351   71.4714   -4.2144 N.am    1  UNL1       -0.2994
     42 O          22.3010   71.8130   -5.3644 O.2     1  UNL1       -0.2751
     43 H          20.0008   71.3945   -3.3504 H       1  UNL1        0.1496
     44 C          16.2440   71.0315   -8.0077 C.3     1  UNL1        0.1693
     45 O          17.0195   70.3062   -8.9642 O.3     1  UNL1       -0.3794
     46 H          16.5515   70.1177   -9.7891 H       1  UNL1        0.2105
@<TRIPOS>BOND
     1    29    30    1
     2    30    41    1
     3    30    31    1
     4    31    34    1
     5    31    32    1
     6    32    35    1
     7    32    33    1
     8    33    36    1
     9    33    44    1
    10    39    40    1
    11    39    42    2
    12    39    41   am
    13    41    43    1
    14    29    28    1
    15    34    37    1
    16    35    38    1
    17    29    36    1
    18    44    45    1
    19    45    46    1
    20    15     6    1
    21    15    16   ar
    22    16    21    2
    23    16    17   ar
    24    17    23    1
    25    17    18   ar
    26    18    19   ar
    27    19    20   ar
    28    15    20   ar
    29    18    22    2
    30     6     7    1
    31     6    11    1
    32     7     9    1
    33     7     8    1
    34     8    13    1
    35     9    10    1
    36     9    12    1
    37    10     5    1
    38    10    11    1
    39    12    14    1
    40     5     4    1
    41     4     1    1
    42     1     2    1
    43     1    24    1
    44     1     3    2
    45    24    25    1
    46    28    25    1
    47    25    26    1
    48    25    27    2
@<TRIPOS>MOLECULE
UD2
 46 48 0 0 0
SMALL
GASTEIGER

@<TRIPOS>ATOM
      1 P          16.3107   69.8032   -2.4963 P.3     1  UNL1        0.2189
      2 O          16.0380   68.9553   -3.8373 O.3     1  UNL1       -0.4371
      3 O          15.8498   71.1956   -2.6901 O.2     1  UNL1       -0.5170
      4 O          15.5083   69.1381   -1.2686 O.3     1  UNL1       -0.3112
      5 C          14.3853   69.7632   -0.6445 C.3     1  UNL1        0.1811
      6 C          12.0404   67.4489    0.7985 C.3     1  UNL1        0.2383
      7 C          11.3475   68.8302    0.9164 C.3     1  UNL1        0.1895
      8 O           9.9269   68.6963    0.8402 O.3     1  UNL1       -0.3779
      9 C          11.8991   69.5777   -0.3222 C.3     1  UNL1        0.1713
     10 C          13.1867   68.8118   -0.6816 C.3     1  UNL1        0.1764
     11 O          13.3553   67.7749    0.2980 O.3     1  UNL1       -0.3308
     12 O          10.9630   69.5164   -1.3996 O.3     1  UNL1       -0.3794
     13 H           9.4484   69.5335    0.9098 H       1  UNL1        0.2106
     14 H          10.1119   69.9321   -1.2063 H       1  UNL1        0.2105
     15 N          12.1325   66.8043    2.1104 N.ar    1  UNL1       -0.2551
     16 C          13.3393   66.5859    2.6624 C.ar    1  UNL1        0.3323
     17 N          13.4537   65.9953    3.8667 N.ar    1  UNL1       -0.2743
     18 C          12.3512   65.6130    4.5426 C.ar    1  UNL1        0.2626
     19 C          11.0744   65.8377    3.9739 C.ar    1  UNL1        0.0795
     20 C          10.9892   66.4356    2.7669 C.ar    1  UNL1        0.0869
     21 O          14.3420   66.9256    2.0643 O.2     1  UNL1       -0.2464
     22 O          12.4534   65.0787    5.6328 O.2     1  UNL1       -0.2670
     23 H          14.3316   65.8443    4.2497 H       1  UNL1        0.1734
     24 O          17.8878   69.8000   -2.1704 O.3     1  UNL1       -0.2703
     25 P          19.0200   70.9436   -2.1142 P.3     1  UNL1        0.2208
     26 O          18.4146   72.2636   -1.4179 O.3     1  UNL1       -0.4371
     27 O          20.1744   70.4570   -1.3275 O.2     1  UNL1       -0.5170
     28 O          19.5000   71.2974   -3.6099 O.3     1  UNL1       -0.2865
     29 C          20.5802   70.6254   -4.2602 C.3     1  UNL1        0.2611
     30 C          21.7992   71.5495   -4.3136 C.3     1  UNL1        0.1582
     31 C          21.4538   72.7884   -5.1456 C.3     1  UNL1        0.1625
     32 C          21.0007   72.3442   -6.5391 C.3     1  UNL1        0.1686
     33 C          19.8121   71.3892   -6.3998 C.3     1  UNL1        0.1760
     34 O          22.6090   73.6222   -5.2623 O.3     1  UNL1       -0.3801
     35 O          22.0762   71.6757   -7.2006 O.3     1  UNL1       -0.3794
     36 O          20.1911   70.2747   -5.5898 O.3     1  UNL1       -0.3263
     37 H          22.4620   74.4274   -5.7773 H       1  UNL1        0.2105
     38 H          21.8592   71.3653   -8.0908 H       1  UNL1        0.2105
     39 C          23.3413   71.5713   -2.4270 C.2     1  UNL1        0.2231
     40 C          23.7164   71.9913   -1.0301 C.3     1  UNL1        0.0946
     41 N          22.1632   71.9583   -2.9546 N.am    1  UNL1       -0.2994
     42 O          24.1000   70.8839   -3.0783 O.2     1  UNL1       -0.2751
     43 H          21.5559   72.5071   -2.4339 H       1  UNL1        0.1496
     44 C          19.3912   70.8939   -7.7847 C.3     1  UNL1        0.1693
     45 O          18.5014   71.8406   -8.3799 O.3     1  UNL1       -0.3794
     46 H          18.1930   71.5910   -9.2617 H       1  UNL1        0.2105
@<TRIPOS>BOND
     1    29    30    1
     2    30    41    1
     3    30    31    1
     4    31    34    1
     5    31    32    1
     6    32    35    1
     7    32    33    1
     8    33    36    1
     9    33    44    1
    10    39    40    1
    11    39    42    2
    12    39    41   am
    13    41    43    1
    14    29    28    1
    15    34    37    1
    16    35    38    1
    17    29    36    1
    18    44    45    1
    19    45    46    1
    20    15     6    1
    21    15    16   ar
    22    16    21    2
    23    16    17   ar
    24    17    23    1
    25    17    18   ar
    26    18    19   ar
    27    19    20   ar
    28    15    20   ar
    29    18    22    2
    30     6     7    1
    31     6    11    1
    32     7     9    1
    33     7     8    1
    34     8    13    1
    35     9    10    1
    36     9    12    1
    37    10     5    1
    38    10    11    1
    39    12    14    1
    40     5     4    1
    41     4     1    1
    42     1     2    1
    43     1    24    1
    44     1     3    2
    45    24    25    1
    46    28    25    1
    47    25    26    1
    48    25    27    2
@<TRIPOS>MOLECULE
UD2
 46 48 0 0 0
SMALL
GASTEIGER

@<TRIPOS>ATOM
      1 P          23.1817   71.7048   -1.8841 P.3     1  UNL1        0.2189
      2 O          24.0436   70.8518   -2.9428 O.3     1  UNL1       -0.4371
      3 O          23.4979   73.1423   -2.0339 O.2     1  UNL1       -0.5170
      4 O          21.6120   71.4693   -2.1565 O.3     1  UNL1       -0.3112
      5 C          20.7646   72.4665   -2.7300 C.3     1  UNL1        0.1811
      6 C          18.3764   70.8750   -4.8980 C.3     1  UNL1        0.2383
      7 C          19.0901   69.7030   -4.1774 C.3     1  UNL1        0.1895
      8 O          18.2086   68.5898   -4.0177 O.3     1  UNL1       -0.3779
      9 C          19.4417   70.3302   -2.8061 C.3     1  UNL1        0.1713
     10 C          19.4051   71.8484   -3.0659 C.3     1  UNL1        0.1764
     11 O          19.1135   72.0370   -4.4597 O.3     1  UNL1       -0.3308
     12 O          18.4676   69.9664   -1.8266 O.3     1  UNL1       -0.3794
     13 H          18.6095   67.8311   -3.5725 H       1  UNL1        0.2106
     14 H          18.4063   69.0151   -1.6662 H       1  UNL1        0.2105
     15 N          18.4713   70.7212   -6.3514 N.ar    1  UNL1       -0.2551
     16 C          17.4651   70.1381   -7.0269 C.ar    1  UNL1        0.3323
     17 N          17.5256   69.9835   -8.3628 N.ar    1  UNL1       -0.2743
     18 C          18.6035   70.4162   -9.0481 C.ar    1  UNL1        0.2626
     19 C          19.6695   71.0328   -8.3498 C.ar    1  UNL1        0.0795
     20 C          19.5802   71.1785   -7.0110 C.ar    1  UNL1        0.0869
     21 O          16.4870   69.7434   -6.4221 O.2     1  UNL1       -0.2464
     22 O          18.6593   70.2773  -10.2572 O.2     1  UNL1       -0.2670
     23 H          16.7918   69.5598   -8.8343 H       1  UNL1        0.1734
     24 O          23.5436   71.2282   -0.3890 O.3     1  UNL1       -0.2703
     25 P          22.7076   71.1199    0.9829 P.3     1  UNL1        0.2208
     26 O          21.5456   70.0171    0.8171 O.3     1  UNL1       -0.4371
     27 O          23.6129   70.7202    2.0824 O.2     1  UNL1       -0.5170
     28 O          22.0474   72.5486    1.3232 O.3     1  UNL1       -0.2865
     29 C          20.9935   72.7126    2.2738 C.3     1  UNL1        0.2611
     30 C          20.2430   74.0150    1.9854 C.3     1  UNL1        0.1582
     31 C          21.2052   75.1956    2.1495 C.3     1  UNL1        0.1625
     32 C          21.7958   75.1664    3.5619 C.3     1  UNL1        0.1686
     33 C          22.4867   73.8192    3.7894 C.3     1  UNL1        0.1760
     34 O          20.4951   76.4207    1.9540 O.3     1  UNL1       -0.3801
     35 O          20.7501   75.3355    4.5205 O.3     1  UNL1       -0.3794
     36 O          21.5446   72.7632    3.5914 O.3     1  UNL1       -0.3263
     37 H          21.0444   77.2116    2.0427 H       1  UNL1        0.2105
     38 H          21.0527   75.3264    5.4394 H       1  UNL1        0.2105
     39 C          18.4847   74.4384    0.3525 C.2     1  UNL1        0.2231
     40 C          17.9548   74.4131   -1.0572 C.3     1  UNL1        0.0946
     41 N          19.7283   73.9899    0.6140 N.am    1  UNL1       -0.2994
     42 O          17.7918   74.8628    1.2536 O.2     1  UNL1       -0.2751
     43 H          20.2822   73.6496   -0.1060 H       1  UNL1        0.1496
     44 C          23.0278   73.7589    5.2191 C.3     1  UNL1        0.1693
     45 O          22.4334   72.6570    5.9081 O.3     1  UNL1       -0.3794
     46 H          22.7310   72.5575    6.8227 H       1  UNL1        0.2105
@<TRIPOS>BOND
     1    29    30    1
     2    30    41    1
     3    30    31    1
     4    31    34    1
     5    31    32    1
     6    32    35    1
     7    32    33    1
     8    33    36    1
     9    33    44    1
    10    39    40    1
    11    39    42    2
    12    39    41   am
    13    41    43    1
    14    29    28    1
    15    34    37    1
    16    35    38    1
    17    29    36    1
    18    44    45    1
    19    45    46    1
    20    15     6    1
    21    15    16   ar
    22    16    21    2
    23    16    17   ar
    24    17    23    1
    25    17    18   ar
    26    18    19   ar
    27    19    20   ar
    28    15    20   ar
    29    18    22    2
    30     6     7    1
    31     6    11    1
    32     7     9    1
    33     7     8    1
    34     8    13    1
    35     9    10    1
    36     9    12    1
    37    10     5    1
    38    10    11    1
    39    12    14    1
    40     5     4    1
    41     4     1    1
    42     1     2    1
    43     1    24    1
    44     1     3    2
    45    24    25    1
    46    28    25    1
    47    25    26    1
    48    25    27    2
@<TRIPOS>MOLECULE
UD2
 46 48 0 0 0
SMALL
GASTEIGER

@<TRIPOS>ATOM
      1 P          23.5173   74.4877   -3.8907 P.3     1  UNL1        0.2189
      2 O          24.9735   73.8551   -4.1563 O.3     1  UNL1       -0.4371
      3 O          23.4932   75.8886   -4.3657 O.2     1  UNL1       -0.5170
      4 O          22.4078   73.6324   -4.6851 O.3     1  UNL1       -0.3112
      5 C          22.7299   72.7546   -5.7654 C.3     1  UNL1        0.1811
      6 C          19.4693   72.0083   -7.0876 C.3     1  UNL1        0.2383
      7 C          19.2937   73.3657   -6.3604 C.3     1  UNL1        0.1895
      8 O          18.2865   74.1570   -6.9938 O.3     1  UNL1       -0.3779
      9 C          20.6912   74.0098   -6.5319 C.3     1  UNL1        0.1713
     10 C          21.6227   72.8170   -6.8204 C.3     1  UNL1        0.1764
     11 O          20.8229   71.6253   -6.7607 O.3     1  UNL1       -0.3308
     12 O          20.6890   74.9209   -7.6322 O.3     1  UNL1       -0.3794
     13 H          18.1394   75.0158   -6.5748 H       1  UNL1        0.2106
     14 H          20.0756   75.6609   -7.5298 H       1  UNL1        0.2105
     15 N          18.5157   71.0216   -6.5756 N.ar    1  UNL1       -0.2551
     16 C          17.5650   70.5290   -7.3895 C.ar    1  UNL1        0.3323
     17 N          16.6753   69.6214   -6.9457 N.ar    1  UNL1       -0.2743
     18 C          16.7263   69.1887   -5.6695 C.ar    1  UNL1        0.2626
     19 C          17.7224   69.6981   -4.8021 C.ar    1  UNL1        0.0795
     20 C          18.6041   70.6040   -5.2749 C.ar    1  UNL1        0.0869
     21 O          17.5073   70.9100   -8.5427 O.2     1  UNL1       -0.2464
     22 O          15.9219   68.3669   -5.2667 O.2     1  UNL1       -0.2670
     23 H          15.9956   69.2774   -7.5455 H       1  UNL1        0.1734
     24 O          23.1950   74.4499   -2.3133 O.3     1  UNL1       -0.2703
     25 P          21.9139   74.8512   -1.4242 P.3     1  UNL1        0.2208
     26 O          21.9806   76.4197   -1.0650 O.3     1  UNL1       -0.4371
     27 O          20.6771   74.5725   -2.1865 O.2     1  UNL1       -0.5170
     28 O          21.9127   73.9885   -0.0647 O.3     1  UNL1       -0.2865
     29 C          23.0966   73.4188    0.4968 C.3     1  UNL1        0.2611
     30 C          23.0186   71.8925    0.4133 C.3     1  UNL1        0.1582
     31 C          21.8282   71.4044    1.2447 C.3     1  UNL1        0.1625
     32 C          21.9877   71.8996    2.6847 C.3     1  UNL1        0.1686
     33 C          22.1054   73.4261    2.6806 C.3     1  UNL1        0.1760
     34 O          21.7913   69.9755    1.2323 O.3     1  UNL1       -0.3801
     35 O          23.1665   71.3308    3.2576 O.3     1  UNL1       -0.3794
     36 O          23.2126   73.8147    1.8650 O.3     1  UNL1       -0.3263
     37 H          21.0603   69.5970    1.7397 H       1  UNL1        0.2105
     38 H          23.3310   71.6025    4.1715 H       1  UNL1        0.2105
     39 C          21.6022   71.2564   -1.4647 C.2     1  UNL1        0.2231
     40 C          21.4172   70.8400   -2.9003 C.3     1  UNL1        0.0946
     41 N          22.8395   71.4873   -0.9832 N.am    1  UNL1       -0.2994
     42 O          20.6369   71.3840   -0.7407 O.2     1  UNL1       -0.2751
     43 H          23.6116   71.3844   -1.5614 H       1  UNL1        0.1496
     44 C          22.3250   73.9243    4.1103 C.3     1  UNL1        0.1693
     45 O          23.7265   74.0307    4.3685 O.3     1  UNL1       -0.3794
     46 H          23.9405   74.3418    5.2587 H       1  UNL1        0.2105
@<TRIPOS>BOND
     1    29    30    1
     2    30    41    1
     3    30    31    1
     4    31    34    1
     5    31    32    1
     6    32    35    1
     7    32    33    1
     8    33    36    1
     9    33    44    1
    10    39    40    1
    11    39    42    2
    12    39    41   am
    13    41    43    1
    14    29    28    1
    15    34    37    1
    16    35    38    1
    17    29    36    1
    18    44    45    1
    19    45    46    1
    20    15     6    1
    21    15    16   ar
    22    16    21    2
    23    16    17   ar
    24    17    23    1
    25    17    18   ar
    26    18    19   ar
    27    19    20   ar
    28    15    20   ar
    29    18    22    2
    30     6     7    1
    31     6    11    1
    32     7     9    1
    33     7     8    1
    34     8    13    1
    35     9    10    1
    36     9    12    1
    37    10     5    1
    38    10    11    1
    39    12    14    1
    40     5     4    1
    41     4     1    1
    42     1     2    1
    43     1    24    1
    44     1     3    2
    45    24    25    1
    46    28    25    1
    47    25    26    1
    48    25    27    2
@<TRIPOS>MOLECULE
UD2
 46 48 0 0 0
SMALL
GASTEIGER

@<TRIPOS>ATOM
      1 P          20.6629   71.3827   -0.8717 P.3     1  UNL1        0.2189
      2 O          20.6667   72.9652   -0.5766 O.3     1  UNL1       -0.4371
      3 O          20.8276   70.6429    0.3989 O.2     1  UNL1       -0.5170
      4 O          19.2657   70.9682   -1.5570 O.3     1  UNL1       -0.3112
      5 C          19.1782   70.0559   -2.6532 C.3     1  UNL1        0.1811
      6 C          17.3234   70.3998   -5.7156 C.3     1  UNL1        0.2383
      7 C          17.0365   68.9507   -5.2468 C.3     1  UNL1        0.1895
      8 O          15.7345   68.5298   -5.6585 O.3     1  UNL1       -0.3779
      9 C          17.1118   69.0862   -3.7063 C.3     1  UNL1        0.1713
     10 C          17.9300   70.3720   -3.4810 C.3     1  UNL1        0.1764
     11 O          18.3134   70.8672   -4.7737 O.3     1  UNL1       -0.3308
     12 O          15.8019   69.2230   -3.1529 O.3     1  UNL1       -0.3794
     13 H          15.5086   67.6292   -5.3893 H       1  UNL1        0.2106
     14 H          15.2239   68.4657   -3.3165 H       1  UNL1        0.2105
     15 N          17.8634   70.4042   -7.0770 N.ar    1  UNL1       -0.2551
     16 C          17.0239   70.4482   -8.1268 C.ar    1  UNL1        0.3323
     17 N          17.4924   70.4531   -9.3888 N.ar    1  UNL1       -0.2743
     18 C          18.8205   70.4155   -9.6199 C.ar    1  UNL1        0.2626
     19 C          19.7157   70.3699   -8.5242 C.ar    1  UNL1        0.0795
     20 C          19.2184   70.3704   -7.2695 C.ar    1  UNL1        0.0869
     21 O          15.8240   70.4827   -7.9333 O.2     1  UNL1       -0.2464
     22 O          19.2458   70.4203  -10.7617 O.2     1  UNL1       -0.2670
     23 H          16.8732   70.4839  -10.1343 H       1  UNL1        0.1734
     24 O          21.8763   71.0189   -1.8661 O.3     1  UNL1       -0.2703
     25 P          23.4070   71.5041   -1.9860 P.3     1  UNL1        0.2208
     26 O          24.0965   71.4677   -0.5310 O.3     1  UNL1       -0.4371
     27 O          24.1403   70.6024   -2.9014 O.2     1  UNL1       -0.5170
     28 O          23.4501   73.0065   -2.5634 O.3     1  UNL1       -0.2865
     29 C          24.3193   73.4084   -3.6237 C.3     1  UNL1        0.2611
     30 C          24.4086   74.9360   -3.6604 C.3     1  UNL1        0.1582
     31 C          23.0202   75.5131   -3.9531 C.3     1  UNL1        0.1625
     32 C          22.5044   74.9300   -5.2716 C.3     1  UNL1        0.1686
     33 C          22.4884   73.4022   -5.1727 C.3     1  UNL1        0.1760
     34 O          23.1080   76.9356   -4.0620 O.3     1  UNL1       -0.3801
     35 O          23.3640   75.3310   -6.3400 O.3     1  UNL1       -0.3794
     36 O          23.8032   72.9324   -4.8685 O.3     1  UNL1       -0.3263
     37 H          22.2631   77.3685   -4.2464 H       1  UNL1        0.2105
     38 H          23.0971   74.9960   -7.2074 H       1  UNL1        0.2105
     39 C          23.9944   75.7449   -1.3995 C.2     1  UNL1        0.2231
     40 C          24.4790   76.2524   -0.0667 C.3     1  UNL1        0.0946
     41 N          24.8808   75.4297   -2.3643 N.am    1  UNL1       -0.2994
     42 O          22.8051   75.6197   -1.6051 O.2     1  UNL1       -0.2751
     43 H          25.8316   75.5307   -2.2007 H       1  UNL1        0.1496
     44 C          22.0308   72.8098   -6.5069 C.3     1  UNL1        0.1693
     45 O          23.1734   72.4791   -7.2990 O.3     1  UNL1       -0.3794
     46 H          22.9580   72.0976   -8.1611 H       1  UNL1        0.2105
@<TRIPOS>BOND
     1    29    30    1
     2    30    41    1
     3    30    31    1
     4    31    34    1
     5    31    32    1
     6    32    35    1
     7    32    33    1
     8    33    36    1
     9    33    44    1
    10    39    40    1
    11    39    42    2
    12    39    41   am
    13    41    43    1
    14    29    28    1
    15    34    37    1
    16    35    38    1
    17    29    36    1
    18    44    45    1
    19    45    46    1
    20    15     6    1
    21    15    16   ar
    22    16    21    2
    23    16    17   ar
    24    17    23    1
    25    17    18   ar
    26    18    19   ar
    27    19    20   ar
    28    15    20   ar
    29    18    22    2
    30     6     7    1
    31     6    11    1
    32     7     9    1
    33     7     8    1
    34     8    13    1
    35     9    10    1
    36     9    12    1
    37    10     5    1
    38    10    11    1
    39    12    14    1
    40     5     4    1
    41     4     1    1
    42     1     2    1
    43     1    24    1
    44     1     3    2
    45    24    25    1
    46    28    25    1
    47    25    26    1
    48    25    27    2
@<TRIPOS>MOLECULE
UD2
 46 48 0 0 0
SMALL
GASTEIGER

@<TRIPOS>ATOM
      1 P          22.6299   72.6440   -3.8708 P.3     1  UNL1        0.2189
      2 O          22.3397   74.2092   -3.6312 O.3     1  UNL1       -0.4371
      3 O          23.6990   72.4890   -4.8818 O.2     1  UNL1       -0.5170
      4 O          23.0981   71.9671   -2.4865 O.3     1  UNL1       -0.3112
      5 C          22.8593   72.5632   -1.2102 C.3     1  UNL1        0.1811
      6 C          24.5204   71.6333    1.8415 C.3     1  UNL1        0.2383
      7 C          23.0886   72.0305    2.2825 C.3     1  UNL1        0.1895
      8 O          22.6841   71.2854    3.4327 O.3     1  UNL1       -0.3779
      9 C          22.2460   71.6366    1.0447 C.3     1  UNL1        0.1713
     10 C          23.2688   71.5852   -0.1062 C.3     1  UNL1        0.1764
     11 O          24.5430   71.9663    0.4365 O.3     1  UNL1       -0.3308
     12 O          21.6447   70.3552    1.2378 O.3     1  UNL1       -0.3794
     13 H          21.7951   71.4988    3.7472 H       1  UNL1        0.2106
     14 H          21.0354   70.3147    1.9872 H       1  UNL1        0.2105
     15 N          25.5206   72.4137    2.5733 N.ar    1  UNL1       -0.2551
     16 C          26.7452   71.8985    2.7826 C.ar    1  UNL1        0.3323
     17 N          27.6840   72.5932    3.4520 N.ar    1  UNL1       -0.2743
     18 C          27.4082   73.8259    3.9243 C.ar    1  UNL1        0.2626
     19 C          26.1236   74.3809    3.7103 C.ar    1  UNL1        0.0795
     20 C          25.2031   73.6637    3.0322 C.ar    1  UNL1        0.0869
     21 O          27.0079   70.7882    2.3622 O.2     1  UNL1       -0.2464
     22 O          28.2571   74.4559    4.5300 O.2     1  UNL1       -0.2670
     23 H          28.5615   72.2064    3.5952 H       1  UNL1        0.1734
     24 O          21.2881   71.9229   -4.3932 O.3     1  UNL1       -0.2703
     25 P          19.8455   71.6363   -3.7378 P.3     1  UNL1        0.2208
     26 O          20.0106   70.6148   -2.5037 O.3     1  UNL1       -0.4371
     27 O          19.2630   72.9062   -3.2517 O.2     1  UNL1       -0.5170
     28 O          18.8724   70.9881   -4.8450 O.3     1  UNL1       -0.2865
     29 C          18.0114   71.7678   -5.6768 C.3     1  UNL1        0.2611
     30 C          16.6433   71.0886   -5.7754 C.3     1  UNL1        0.1582
     31 C          16.8105   69.7165   -6.4356 C.3     1  UNL1        0.1625
     32 C          17.4684   69.8982   -7.8062 C.3     1  UNL1        0.1686
     33 C          18.8051   70.6234   -7.6293 C.3     1  UNL1        0.1760
     34 O          15.5283   69.1059   -6.5985 O.3     1  UNL1       -0.3801
     35 O          16.6122   70.6722   -8.6482 O.3     1  UNL1       -0.3794
     36 O          18.5825   71.8779   -6.9822 O.3     1  UNL1       -0.3263
     37 H          15.5589   68.2318   -7.0109 H       1  UNL1        0.2105
     38 H          16.9672   70.8277   -9.5347 H       1  UNL1        0.2105
     39 C          16.2763   69.7689   -3.7601 C.2     1  UNL1        0.2231
     40 C          15.7002   69.5955   -2.3793 C.3     1  UNL1        0.0946
     41 N          16.0825   70.9207   -4.4324 N.am    1  UNL1       -0.2994
     42 O          16.9152   68.8711   -4.2681 O.2     1  UNL1       -0.2751
     43 H          15.5709   71.6383   -4.0270 H       1  UNL1        0.1496
     44 C          19.4410   70.8619   -9.0001 C.3     1  UNL1        0.1693
     45 O          20.5698   71.7268   -8.8584 O.3     1  UNL1       -0.3794
     46 H          21.0233   71.9220   -9.6898 H       1  UNL1        0.2105
@<TRIPOS>BOND
     1    29    30    1
     2    30    41    1
     3    30    31    1
     4    31    34    1
     5    31    32    1
     6    32    35    1
     7    32    33    1
     8    33    36    1
     9    33    44    1
    10    39    40    1
    11    39    42    2
    12    39    41   am
    13    41    43    1
    14    29    28    1
    15    34    37    1
    16    35    38    1
    17    29    36    1
    18    44    45    1
    19    45    46    1
    20    15     6    1
    21    15    16   ar
    22    16    21    2
    23    16    17   ar
    24    17    23    1
    25    17    18   ar
    26    18    19   ar
    27    19    20   ar
    28    15    20   ar
    29    18    22    2
    30     6     7    1
    31     6    11    1
    32     7     9    1
    33     7     8    1
    34     8    13    1
    35     9    10    1
    36     9    12    1
    37    10     5    1
    38    10    11    1
    39    12    14    1
    40     5     4    1
    41     4     1    1
    42     1     2    1
    43     1    24    1
    44     1     3    2
    45    24    25    1
    46    28    25    1
    47    25    26    1
    48    25    27    2
@<TRIPOS>MOLECULE
UD2
 46 48 0 0 0
SMALL
GASTEIGER

@<TRIPOS>ATOM
      1 P          22.4128   71.5592   -2.5338 P.3     1  UNL1        0.2189
      2 O          22.3418   73.1164   -2.9356 O.3     1  UNL1       -0.4371
      3 O          23.6767   70.9766   -3.0359 O.2     1  UNL1       -0.5170
      4 O          22.3552   71.4156   -0.9307 O.3     1  UNL1       -0.3112
      5 C          21.1531   71.5872   -0.1778 C.3     1  UNL1        0.1811
      6 C          23.2307   71.6910    2.7564 C.3     1  UNL1        0.2383
      7 C          22.4732   73.0431    2.7672 C.3     1  UNL1        0.1895
      8 O          22.2606   73.4980    4.1050 O.3     1  UNL1       -0.3779
      9 C          21.1314   72.6696    2.0910 C.3     1  UNL1        0.1713
     10 C          21.4495   71.3805    1.3096 C.3     1  UNL1        0.1764
     11 O          22.8462   71.1012    1.4955 O.3     1  UNL1       -0.3308
     12 O          20.1276   72.4226    3.0770 O.3     1  UNL1       -0.3794
     13 H          21.7908   74.3408    4.1641 H       1  UNL1        0.2106
     14 H          19.9297   73.1850    3.6375 H       1  UNL1        0.2105
     15 N          24.6780   71.9102    2.8039 N.ar    1  UNL1       -0.2551
     16 C          25.5151   70.8685    2.6521 C.ar    1  UNL1        0.3323
     17 N          26.8497   71.0407    2.6914 N.ar    1  UNL1       -0.2743
     18 C          27.3700   72.2700    2.8833 C.ar    1  UNL1        0.2626
     19 C          26.5005   73.3756    3.0435 C.ar    1  UNL1        0.0795
     20 C          25.1668   73.1745    2.9954 C.ar    1  UNL1        0.0869
     21 O          25.0599   69.7545    2.4782 O.2     1  UNL1       -0.2464
     22 O          28.5777   72.4272    2.9187 O.2     1  UNL1       -0.2670
     23 H          27.4389   70.2786    2.5814 H       1  UNL1        0.1734
     24 O          21.1648   70.7786   -3.1869 O.3     1  UNL1       -0.2703
     25 P          19.5705   71.0031   -3.1649 P.3     1  UNL1        0.2208
     26 O          18.9081   70.0365   -2.0601 O.3     1  UNL1       -0.4371
     27 O          19.2751   72.4127   -2.8269 O.2     1  UNL1       -0.5170
     28 O          18.9601   70.6591   -4.6147 O.3     1  UNL1       -0.2865
     29 C          18.2829   71.6232   -5.4229 C.3     1  UNL1        0.2611
     30 C          16.8497   71.1542   -5.6852 C.3     1  UNL1        0.1582
     31 C          16.8876   69.8369   -6.4661 C.3     1  UNL1        0.1625
     32 C          17.6761   70.0464   -7.7617 C.3     1  UNL1        0.1686
     33 C          19.0778   70.5582   -7.4193 C.3     1  UNL1        0.1760
     34 O          15.5538   69.4294   -6.7793 O.3     1  UNL1       -0.3801
     35 O          17.0038   71.0052   -8.5803 O.3     1  UNL1       -0.3794
     36 O          18.9707   71.7685   -6.6672 O.3     1  UNL1       -0.3263
     37 H          15.5023   68.6000   -7.2739 H       1  UNL1        0.2105
     38 H          17.4491   71.1881   -9.4195 H       1  UNL1        0.2105
     39 C          16.1487   69.7254   -3.8400 C.2     1  UNL1        0.2231
     40 C          15.4414   69.5117   -2.5275 C.3     1  UNL1        0.0946
     41 N          16.1613   70.9471   -4.4086 N.am    1  UNL1       -0.2994
     42 O          16.7077   68.7972   -4.3863 O.2     1  UNL1       -0.2751
     43 H          15.7137   71.6892   -3.9728 H       1  UNL1        0.1496
     44 C          19.8521   70.8269   -8.7111 C.3     1  UNL1        0.1693
     45 O          20.7633   71.9083   -8.5049 O.3     1  UNL1       -0.3794
     46 H          21.2892   72.1343   -9.2843 H       1  UNL1        0.2105
@<TRIPOS>BOND
     1    29    30    1
     2    30    41    1
     3    30    31    1
     4    31    34    1
     5    31    32    1
     6    32    35    1
     7    32    33    1
     8    33    36    1
     9    33    44    1
    10    39    40    1
    11    39    42    2
    12    39    41   am
    13    41    43    1
    14    29    28    1
    15    34    37    1
    16    35    38    1
    17    29    36    1
    18    44    45    1
    19    45    46    1
    20    15     6    1
    21    15    16   ar
    22    16    21    2
    23    16    17   ar
    24    17    23    1
    25    17    18   ar
    26    18    19   ar
    27    19    20   ar
    28    15    20   ar
    29    18    22    2
    30     6     7    1
    31     6    11    1
    32     7     9    1
    33     7     8    1
    34     8    13    1
    35     9    10    1
    36     9    12    1
    37    10     5    1
    38    10    11    1
    39    12    14    1
    40     5     4    1
    41     4     1    1
    42     1     2    1
    43     1    24    1
    44     1     3    2
    45    24    25    1
    46    28    25    1
    47    25    26    1
    48    25    27    2
@<TRIPOS>MOLECULE
UD2
 46 48 0 0 0
SMALL
GASTEIGER

@<TRIPOS>ATOM
      1 P          22.6708   72.7032   -3.5262 P.3     1  UNL1        0.2189
      2 O          24.2025   72.3951   -3.9138 O.3     1  UNL1       -0.4371
      3 O          22.1744   73.8366   -4.3372 O.2     1  UNL1       -0.5170
      4 O          21.7710   71.3998   -3.8178 O.3     1  UNL1       -0.3112
      5 C          20.8998   70.8230   -2.8433 C.3     1  UNL1        0.1811
      6 C          18.2489   70.6902   -5.2706 C.3     1  UNL1        0.2383
      7 C          18.2324   69.2936   -4.5987 C.3     1  UNL1        0.1895
      8 O          16.9101   68.7523   -4.5797 O.3     1  UNL1       -0.3779
      9 C          18.7176   69.6169   -3.1644 C.3     1  UNL1        0.1713
     10 C          19.4487   70.9653   -3.3092 C.3     1  UNL1        0.1764
     11 O          19.4147   71.3232   -4.7000 O.3     1  UNL1       -0.3308
     12 O          17.6046   69.7436   -2.2779 O.3     1  UNL1       -0.3794
     13 H          16.8482   67.8790   -4.1697 H       1  UNL1        0.2106
     14 H          17.0735   68.9402   -2.1948 H       1  UNL1        0.2105
     15 N          18.3895   70.5623   -6.7228 N.ar    1  UNL1       -0.2551
     16 C          17.2912   70.5262   -7.4981 C.ar    1  UNL1        0.3323
     17 N          17.3907   70.4090   -8.8355 N.ar    1  UNL1       -0.2743
     18 C          18.6026   70.3275   -9.4213 C.ar    1  UNL1        0.2626
     19 C          19.7673   70.3653   -8.6174 C.ar    1  UNL1        0.0795
     20 C          19.6380   70.4876   -7.2796 C.ar    1  UNL1        0.0869
     21 O          16.1919   70.5989   -6.9836 O.2     1  UNL1       -0.2464
     22 O          18.6941   70.2219  -10.6317 O.2     1  UNL1       -0.2670
     23 H          16.5886   70.3833   -9.3796 H       1  UNL1        0.1734
     24 O          22.5778   73.0799   -1.9632 O.3     1  UNL1       -0.2703
     25 P          22.9868   74.3759   -1.0994 P.3     1  UNL1        0.2208
     26 O          24.5374   74.7255   -1.3587 O.3     1  UNL1       -0.4371
     27 O          22.1481   75.5247   -1.5058 O.2     1  UNL1       -0.5170
     28 O          22.7592   74.0715    0.4652 O.3     1  UNL1       -0.2865
     29 C          23.0168   72.7962    1.0557 C.3     1  UNL1        0.2611
     30 C          21.7214   72.2364    1.6485 C.3     1  UNL1        0.1582
     31 C          21.2315   73.1722    2.7578 C.3     1  UNL1        0.1625
     32 C          22.3343   73.3210    3.8095 C.3     1  UNL1        0.1686
     33 C          23.6063   73.8392    3.1332 C.3     1  UNL1        0.1760
     34 O          20.0623   72.6193    3.3667 O.3     1  UNL1       -0.3801
     35 O          22.5956   72.0514    4.4105 O.3     1  UNL1       -0.3794
     36 O          23.9906   72.9394    2.0918 O.3     1  UNL1       -0.3263
     37 H          19.6967   73.1615    4.0792 H       1  UNL1        0.2105
     38 H          23.2862   72.0708    5.0879 H       1  UNL1        0.2105
     39 C          19.8322   73.1571    0.4153 C.2     1  UNL1        0.2231
     40 C          18.7848   73.0641   -0.6630 C.3     1  UNL1        0.0946
     41 N          20.7027   72.1450    0.5995 N.am    1  UNL1       -0.2994
     42 O          19.8927   74.1437    1.1190 O.2     1  UNL1       -0.2751
     43 H          20.6541   71.3556    0.0378 H       1  UNL1        0.1496
     44 C          24.7306   73.9340    4.1664 C.3     1  UNL1        0.1693
     45 O          24.1853   74.3151    5.4313 O.3     1  UNL1       -0.3794
     46 H          24.8428   74.3949    6.1358 H       1  UNL1        0.2105
@<TRIPOS>BOND
     1    29    30    1
     2    30    41    1
     3    30    31    1
     4    31    34    1
     5    31    32    1
     6    32    35    1
     7    32    33    1
     8    33    36    1
     9    33    44    1
    10    39    40    1
    11    39    42    2
    12    39    41   am
    13    41    43    1
    14    29    28    1
    15    34    37    1
    16    35    38    1
    17    29    36    1
    18    44    45    1
    19    45    46    1
    20    15     6    1
    21    15    16   ar
    22    16    21    2
    23    16    17   ar
    24    17    23    1
    25    17    18   ar
    26    18    19   ar
    27    19    20   ar
    28    15    20   ar
    29    18    22    2
    30     6     7    1
    31     6    11    1
    32     7     9    1
    33     7     8    1
    34     8    13    1
    35     9    10    1
    36     9    12    1
    37    10     5    1
    38    10    11    1
    39    12    14    1
    40     5     4    1
    41     4     1    1
    42     1     2    1
    43     1    24    1
    44     1     3    2
    45    24    25    1
    46    28    25    1
    47    25    26    1
    48    25    27    2
@<TRIPOS>MOLECULE
UD2
 46 48 0 0 0
SMALL
GASTEIGER

@<TRIPOS>ATOM
      1 P          20.4537   71.2187   -2.1055 P.3     1  UNL1        0.2189
      2 O          20.2326   70.5361   -0.6644 O.3     1  UNL1       -0.4371
      3 O          21.5735   70.5488   -2.8027 O.2     1  UNL1       -0.5170
      4 O          19.1104   71.0701   -2.9813 O.3     1  UNL1       -0.3112
      5 C          17.8374   71.5443   -2.5383 C.3     1  UNL1        0.1811
      6 C          16.6756   70.5805   -5.8029 C.3     1  UNL1        0.2383
      7 C          16.8913   69.2405   -5.0547 C.3     1  UNL1        0.1895
      8 O          15.9758   68.2453   -5.5167 O.3     1  UNL1       -0.3779
      9 C          16.5860   69.6338   -3.5886 C.3     1  UNL1        0.1713
     10 C          16.7667   71.1636   -3.5637 C.3     1  UNL1        0.1764
     11 O          17.1833   71.5666   -4.8780 O.3     1  UNL1       -0.3308
     12 O          15.2442   69.2825   -3.2468 O.3     1  UNL1       -0.3794
     13 H          16.0718   67.3887   -5.0789 H       1  UNL1        0.2106
     14 H          15.0582   68.3355   -3.3032 H       1  UNL1        0.2105
     15 N          17.4398   70.6026   -7.0521 N.ar    1  UNL1       -0.2551
     16 C          16.7915   70.5858   -8.2303 C.ar    1  UNL1        0.3323
     17 N          17.4683   70.6053   -9.3939 N.ar    1  UNL1       -0.2743
     18 C          18.8163   70.6440   -9.3944 C.ar    1  UNL1        0.2626
     19 C          19.5116   70.6631   -8.1614 C.ar    1  UNL1        0.0795
     20 C          18.8074   70.6472   -7.0101 C.ar    1  UNL1        0.0869
     21 O          15.5762   70.5511   -8.2450 O.2     1  UNL1       -0.2464
     22 O          19.4301   70.6620  -10.4467 O.2     1  UNL1       -0.2670
     23 H          16.9853   70.5915  -10.2345 H       1  UNL1        0.1734
     24 O          20.7981   72.7800   -1.9129 O.3     1  UNL1       -0.2703
     25 P          20.7789   73.7817   -0.6523 P.3     1  UNL1        0.2208
     26 O          19.2858   73.8622   -0.0541 O.3     1  UNL1       -0.4371
     27 O          21.7011   73.2808    0.3903 O.2     1  UNL1       -0.5170
     28 O          21.2480   75.2478   -1.1249 O.3     1  UNL1       -0.2865
     29 C          22.6174   75.5973   -1.3338 C.3     1  UNL1        0.2611
     30 C          23.4742   74.3290   -1.3353 C.3     1  UNL1        0.1582
     31 C          23.3708   73.6518    0.0348 C.3     1  UNL1        0.1625
     32 C          23.8049   74.6442    1.1169 C.3     1  UNL1        0.1686
     33 C          22.9351   75.9007    1.0239 C.3     1  UNL1        0.1760
     34 O          24.2255   72.5064    0.0666 O.3     1  UNL1       -0.3801
     35 O          25.1756   74.9960    0.9203 O.3     1  UNL1       -0.3794
     36 O          23.0529   76.4639   -0.2841 O.3     1  UNL1       -0.3263
     37 H          24.2094   72.0274    0.9066 H       1  UNL1        0.2105
     38 H          25.5185   75.6241    1.5714 H       1  UNL1        0.2105
     39 C          23.6039   73.3691   -3.5713 C.2     1  UNL1        0.2231
     40 C          23.1079   72.4279   -4.6374 C.3     1  UNL1        0.0946
     41 N          22.9910   73.4133   -2.3719 N.am    1  UNL1       -0.2994
     42 O          24.5558   74.0884   -3.7919 O.2     1  UNL1       -0.2751
     43 H          22.2293   72.8391   -2.1953 H       1  UNL1        0.1496
     44 C          23.4017   76.9218    2.0631 C.3     1  UNL1        0.1693
     45 O          24.4629   77.7076    1.5168 O.3     1  UNL1       -0.3794
     46 H          24.8090   78.3775    2.1222 H       1  UNL1        0.2105
@<TRIPOS>BOND
     1    29    30    1
     2    30    41    1
     3    30    31    1
     4    31    34    1
     5    31    32    1
     6    32    35    1
     7    32    33    1
     8    33    36    1
     9    33    44    1
    10    39    40    1
    11    39    42    2
    12    39    41   am
    13    41    43    1
    14    29    28    1
    15    34    37    1
    16    35    38    1
    17    29    36    1
    18    44    45    1
    19    45    46    1
    20    15     6    1
    21    15    16   ar
    22    16    21    2
    23    16    17   ar
    24    17    23    1
    25    17    18   ar
    26    18    19   ar
    27    19    20   ar
    28    15    20   ar
    29    18    22    2
    30     6     7    1
    31     6    11    1
    32     7     9    1
    33     7     8    1
    34     8    13    1
    35     9    10    1
    36     9    12    1
    37    10     5    1
    38    10    11    1
    39    12    14    1
    40     5     4    1
    41     4     1    1
    42     1     2    1
    43     1    24    1
    44     1     3    2
    45    24    25    1
    46    28    25    1
    47    25    26    1
    48    25    27    2
@<TRIPOS>MOLECULE
UD2
 46 48 0 0 0
SMALL
GASTEIGER

@<TRIPOS>ATOM
      1 P          14.9783   71.0580   -2.1637 P.3     1  UNL1        0.2189
      2 O          13.8984   72.0822   -2.7769 O.3     1  UNL1       -0.4371
      3 O          15.8782   71.7834   -1.2402 O.2     1  UNL1       -0.5170
      4 O          14.2140   69.8895   -1.3610 O.3     1  UNL1       -0.3112
      5 C          14.6572   69.3985   -0.0946 C.3     1  UNL1        0.1811
      6 C          13.1454   66.9691    2.0846 C.3     1  UNL1        0.2383
      7 C          11.9672   67.8626    1.6202 C.3     1  UNL1        0.1895
      8 O          10.7513   67.1141    1.5625 O.3     1  UNL1       -0.3779
      9 C          12.4213   68.2886    0.2025 C.3     1  UNL1        0.1713
     10 C          13.9475   68.0786    0.2170 C.3     1  UNL1        0.1764
     11 O          14.3052   67.6303    1.5340 O.3     1  UNL1       -0.3308
     12 O          11.8111   67.4586   -0.7872 O.3     1  UNL1       -0.3794
     13 H           9.9849   67.6298    1.2776 H       1  UNL1        0.2106
     14 H          10.8457   67.5066   -0.8011 H       1  UNL1        0.2105
     15 N          13.2185   66.9309    3.5469 N.ar    1  UNL1       -0.2551
     16 C          12.9027   65.7987    4.2005 C.ar    1  UNL1        0.3323
     17 N          12.9608   65.7351    5.5440 N.ar    1  UNL1       -0.2743
     18 C          13.3410   66.8136    6.2587 C.ar    1  UNL1        0.2626
     19 C          13.6772   68.0116    5.5835 C.ar    1  UNL1        0.0795
     20 C          13.6142   68.0457    4.2358 C.ar    1  UNL1        0.0869
     21 O          12.5584   64.8184    3.5690 O.2     1  UNL1       -0.2464
     22 O          13.3944   66.7573    7.4746 O.2     1  UNL1       -0.2670
     23 H          12.7286   64.9113    5.9995 H       1  UNL1        0.1734
     24 O          15.8429   70.4106   -3.3581 O.3     1  UNL1       -0.2703
     25 P          17.2810   69.6899   -3.4337 P.3     1  UNL1        0.2208
     26 O          17.7111   69.1958   -1.9625 O.3     1  UNL1       -0.4371
     27 O          17.2019   68.5244   -4.3413 O.2     1  UNL1       -0.5170
     28 O          18.3746   70.7318   -3.9915 O.3     1  UNL1       -0.2865
     29 C          19.3013   70.4066   -5.0292 C.3     1  UNL1        0.2611
     30 C          20.3878   71.4824   -5.0998 C.3     1  UNL1        0.1582
     31 C          19.7423   72.8250   -5.4566 C.3     1  UNL1        0.1625
     32 C          18.9831   72.6791   -6.7782 C.3     1  UNL1        0.1686
     33 C          17.9505   71.5569   -6.6427 C.3     1  UNL1        0.1760
     34 O          20.7584   73.8206   -5.5969 O.3     1  UNL1       -0.3801
     35 O          19.9022   72.3594   -7.8243 O.3     1  UNL1       -0.3794
     36 O          18.6126   70.3437   -6.2798 O.3     1  UNL1       -0.3263
     37 H          20.4202   74.6981   -5.8223 H       1  UNL1        0.2105
     38 H          19.4890   72.2513   -8.6924 H       1  UNL1        0.2105
     39 C          22.3739   71.8608   -3.7398 C.2     1  UNL1        0.2231
     40 C          23.0608   71.9718   -2.4040 C.3     1  UNL1        0.0946
     41 N          21.0552   71.5900   -3.8000 N.am    1  UNL1       -0.2994
     42 O          23.0079   72.0153   -4.7627 O.2     1  UNL1       -0.2751
     43 H          20.5481   71.4655   -2.9825 H       1  UNL1        0.1496
     44 C          17.2285   71.3646   -7.9777 C.3     1  UNL1        0.1693
     45 O          17.0671   72.6313   -8.6196 O.3     1  UNL1       -0.3794
     46 H          16.6157   72.5854   -9.4735 H       1  UNL1        0.2105
@<TRIPOS>BOND
     1    29    30    1
     2    30    41    1
     3    30    31    1
     4    31    34    1
     5    31    32    1
     6    32    35    1
     7    32    33    1
     8    33    36    1
     9    33    44    1
    10    39    40    1
    11    39    42    2
    12    39    41   am
    13    41    43    1
    14    29    28    1
    15    34    37    1
    16    35    38    1
    17    29    36    1
    18    44    45    1
    19    45    46    1
    20    15     6    1
    21    15    16   ar
    22    16    21    2
    23    16    17   ar
    24    17    23    1
    25    17    18   ar
    26    18    19   ar
    27    19    20   ar
    28    15    20   ar
    29    18    22    2
    30     6     7    1
    31     6    11    1
    32     7     9    1
    33     7     8    1
    34     8    13    1
    35     9    10    1
    36     9    12    1
    37    10     5    1
    38    10    11    1
    39    12    14    1
    40     5     4    1
    41     4     1    1
    42     1     2    1
    43     1    24    1
    44     1     3    2
    45    24    25    1
    46    28    25    1
    47    25    26    1
    48    25    27    2
@<TRIPOS>MOLECULE
UD2
 46 48 0 0 0
SMALL
GASTEIGER

@<TRIPOS>ATOM
      1 P          23.4620   72.1623   -3.3269 P.3     1  UNL1        0.2189
      2 O          24.4028   73.0651   -4.2709 O.3     1  UNL1       -0.4371
      3 O          24.1714   70.9135   -2.9719 O.2     1  UNL1       -0.5170
      4 O          23.1076   72.9785   -1.9846 O.3     1  UNL1       -0.3112
      5 C          21.7804   73.0826   -1.4658 C.3     1  UNL1        0.1811
      6 C          23.1242   72.1058    1.7242 C.3     1  UNL1        0.2383
      7 C          22.4269   73.4634    1.9943 C.3     1  UNL1        0.1895
      8 O          21.9244   73.5218    3.3306 O.3     1  UNL1       -0.3779
      9 C          21.2672   73.4431    0.9685 C.3     1  UNL1        0.1713
     10 C          21.7177   72.4171   -0.0888 C.3     1  UNL1        0.1764
     11 O          23.0241   71.9565    0.2913 O.3     1  UNL1       -0.3308
     12 O          20.0552   73.0181    1.5940 O.3     1  UNL1       -0.3794
     13 H          21.4799   74.3523    3.5480 H       1  UNL1        0.2106
     14 H          19.7566   73.5967    2.3085 H       1  UNL1        0.2105
     15 N          24.5272   72.1546    2.1415 N.ar    1  UNL1       -0.2551
     16 C          25.2384   71.0159    2.2224 C.ar    1  UNL1        0.3323
     17 N          26.5294   71.0310    2.6032 N.ar    1  UNL1       -0.2743
     18 C          27.1331   72.1973    2.9097 C.ar    1  UNL1        0.2626
     19 C          26.3967   73.4036    2.8279 C.ar    1  UNL1        0.0795
     20 C          25.1050   73.3594    2.4392 C.ar    1  UNL1        0.0869
     21 O          24.7071   69.9570    1.9488 O.2     1  UNL1       -0.2464
     22 O          28.3017   72.2124    3.2541 O.2     1  UNL1       -0.2670
     23 H          27.0273   70.2007    2.6574 H       1  UNL1        0.1734
     24 O          22.1018   71.8030   -4.1105 O.3     1  UNL1       -0.2703
     25 P          21.3425   72.4377   -5.3809 P.3     1  UNL1        0.2208
     26 O          21.0774   74.0045   -5.1192 O.3     1  UNL1       -0.4371
     27 O          22.1807   72.2748   -6.5889 O.2     1  UNL1       -0.5170
     28 O          19.9362   71.6838   -5.5971 O.3     1  UNL1       -0.2865
     29 C          18.8578   72.2477   -6.3457 C.3     1  UNL1        0.2611
     30 C          17.5271   71.7306   -5.7937 C.3     1  UNL1        0.1582
     31 C          17.4687   70.2098   -5.9673 C.3     1  UNL1        0.1625
     32 C          17.6548   69.8683   -7.4482 C.3     1  UNL1        0.1686
     33 C          18.9809   70.4572   -7.9365 C.3     1  UNL1        0.1760
     34 O          16.1991   69.7271   -5.5218 O.3     1  UNL1       -0.3801
     35 O          16.5776   70.4230   -8.2054 O.3     1  UNL1       -0.3794
     36 O          18.9822   71.8694   -7.7182 O.3     1  UNL1       -0.3263
     37 H          16.0926   68.7693   -5.6023 H       1  UNL1        0.2105
     38 H          16.6312   70.2458   -9.1550 H       1  UNL1        0.2105
     39 C          16.2487   72.4805   -3.8596 C.2     1  UNL1        0.2231
     40 C          16.1421   72.8246   -2.3971 C.3     1  UNL1        0.0946
     41 N          17.4243   72.0654   -4.3711 N.am    1  UNL1       -0.2994
     42 O          15.2757   72.5770   -4.5781 O.2     1  UNL1       -0.2751
     43 H          18.2027   71.9890   -3.7972 H       1  UNL1        0.1496
     44 C          19.1463   70.1716   -9.4303 C.3     1  UNL1        0.1693
     45 O          18.5092   71.2032  -10.1867 O.3     1  UNL1       -0.3794
     46 H          18.5742   71.0868  -11.1444 H       1  UNL1        0.2105
@<TRIPOS>BOND
     1    29    30    1
     2    30    41    1
     3    30    31    1
     4    31    34    1
     5    31    32    1
     6    32    35    1
     7    32    33    1
     8    33    36    1
     9    33    44    1
    10    39    40    1
    11    39    42    2
    12    39    41   am
    13    41    43    1
    14    29    28    1
    15    34    37    1
    16    35    38    1
    17    29    36    1
    18    44    45    1
    19    45    46    1
    20    15     6    1
    21    15    16   ar
    22    16    21    2
    23    16    17   ar
    24    17    23    1
    25    17    18   ar
    26    18    19   ar
    27    19    20   ar
    28    15    20   ar
    29    18    22    2
    30     6     7    1
    31     6    11    1
    32     7     9    1
    33     7     8    1
    34     8    13    1
    35     9    10    1
    36     9    12    1
    37    10     5    1
    38    10    11    1
    39    12    14    1
    40     5     4    1
    41     4     1    1
    42     1     2    1
    43     1    24    1
    44     1     3    2
    45    24    25    1
    46    28    25    1
    47    25    26    1
    48    25    27    2
@<TRIPOS>MOLECULE
UD2
 46 48 0 0 0
SMALL
GASTEIGER

@<TRIPOS>ATOM
      1 P          21.0551   71.9557   -2.7784 P.3     1  UNL1        0.2189
      2 O          21.6161   73.2412   -1.9882 O.3     1  UNL1       -0.4371
      3 O          21.8159   70.7543   -2.3702 O.2     1  UNL1       -0.5170
      4 O          19.4968   71.7488   -2.4285 O.3     1  UNL1       -0.3112
      5 C          18.8419   70.4821   -2.5171 C.3     1  UNL1        0.1811
      6 C          17.1211   70.4688   -5.6754 C.3     1  UNL1        0.2383
      7 C          16.9885   69.0156   -5.1533 C.3     1  UNL1        0.1895
      8 O          15.7705   68.4204   -5.6051 O.3     1  UNL1       -0.3779
      9 C          16.9664   69.2220   -3.6189 C.3     1  UNL1        0.1713
     10 C          17.6094   70.6073   -3.4160 C.3     1  UNL1        0.1764
     11 O          17.9964   71.0931   -4.7113 O.3     1  UNL1       -0.3308
     12 O          15.6226   69.2180   -3.1343 O.3     1  UNL1       -0.3794
     13 H          15.6421   67.5105   -5.3049 H       1  UNL1        0.2106
     14 H          15.1502   68.3889   -3.2891 H       1  UNL1        0.2105
     15 N          17.7267   70.4846   -7.0088 N.ar    1  UNL1       -0.2551
     16 C          16.9393   70.4565   -8.0988 C.ar    1  UNL1        0.3323
     17 N          17.4686   70.4698   -9.3364 N.ar    1  UNL1       -0.2743
     18 C          18.8063   70.5139   -9.5021 C.ar    1  UNL1        0.2626
     19 C          19.6470   70.5449   -8.3635 C.ar    1  UNL1        0.0795
     20 C          19.0889   70.5348   -7.1347 C.ar    1  UNL1        0.0869
     21 O          15.7315   70.4169   -7.9645 O.2     1  UNL1       -0.2464
     22 O          19.2866   70.5264  -10.6217 O.2     1  UNL1       -0.2670
     23 H          16.8865   70.4479  -10.1115 H       1  UNL1        0.1734
     24 O          21.2227   72.1846   -4.3636 O.3     1  UNL1       -0.2703
     25 P          22.3995   72.7772   -5.2892 P.3     1  UNL1        0.2208
     26 O          23.8049   72.6576   -4.5119 O.3     1  UNL1       -0.4371
     27 O          22.4681   72.0097   -6.5520 O.2     1  UNL1       -0.5170
     28 O          22.0969   74.3244   -5.6168 O.3     1  UNL1       -0.2865
     29 C          23.1036   75.3378   -5.5869 C.3     1  UNL1        0.2611
     30 C          22.4414   76.7173   -5.6193 C.3     1  UNL1        0.1582
     31 C          21.6656   76.8710   -6.9312 C.3     1  UNL1        0.1625
     32 C          22.6240   76.6594   -8.1064 C.3     1  UNL1        0.1686
     33 C          23.2792   75.2816   -7.9780 C.3     1  UNL1        0.1760
     34 O          21.1046   78.1838   -7.0028 O.3     1  UNL1       -0.3801
     35 O          23.6320   77.6717   -8.0890 O.3     1  UNL1       -0.3794
     36 O          23.9578   75.1937   -6.7235 O.3     1  UNL1       -0.3263
     37 H          20.5978   78.3510   -7.8093 H       1  UNL1        0.2105
     38 H          24.2761   77.5988   -8.8072 H       1  UNL1        0.2105
     39 C          20.2233   76.5066   -4.6329 C.2     1  UNL1        0.2231
     40 C          19.2752   76.6368   -3.4698 C.3     1  UNL1        0.0946
     41 N          21.5198   76.8444   -4.4876 N.am    1  UNL1       -0.2994
     42 O          19.8200   76.0975   -5.7017 O.2     1  UNL1       -0.2751
     43 H          21.8424   77.1725   -3.6336 H       1  UNL1        0.1496
     44 C          24.2829   75.0865   -9.1160 C.3     1  UNL1        0.1693
     45 O          25.5825   75.4913   -8.6805 O.3     1  UNL1       -0.3794
     46 H          26.2709   75.3949   -9.3526 H       1  UNL1        0.2105
@<TRIPOS>BOND
     1    29    30    1
     2    30    41    1
     3    30    31    1
     4    31    34    1
     5    31    32    1
     6    32    35    1
     7    32    33    1
     8    33    36    1
     9    33    44    1
    10    39    40    1
    11    39    42    2
    12    39    41   am
    13    41    43    1
    14    29    28    1
    15    34    37    1
    16    35    38    1
    17    29    36    1
    18    44    45    1
    19    45    46    1
    20    15     6    1
    21    15    16   ar
    22    16    21    2
    23    16    17   ar
    24    17    23    1
    25    17    18   ar
    26    18    19   ar
    27    19    20   ar
    28    15    20   ar
    29    18    22    2
    30     6     7    1
    31     6    11    1
    32     7     9    1
    33     7     8    1
    34     8    13    1
    35     9    10    1
    36     9    12    1
    37    10     5    1
    38    10    11    1
    39    12    14    1
    40     5     4    1
    41     4     1    1
    42     1     2    1
    43     1    24    1
    44     1     3    2
    45    24    25    1
    46    28    25    1
    47    25    26    1
    48    25    27    2
