@<TRIPOS>MOLECULE
GDU
 43 45 0 0 0
SMALL
GASTEIGER

@<TRIPOS>ATOM
      1 P          20.8366   71.5475   -2.1338 P.3     1  UNL1        0.2189
      2 O          21.7627   70.6502   -2.8596 O.2     1  UNL1       -0.5170
      3 O          21.5536   72.9669   -1.8800 O.3     1  UNL1       -0.4371
      4 O          19.5055   71.7677   -3.0093 O.3     1  UNL1       -0.3112
      5 C          18.5191   70.8715   -2.4950 C.3     1  UNL1        0.1811
      6 C          16.9525   70.5374   -5.7139 C.3     1  UNL1        0.2383
      7 C          16.9430   69.1032   -5.1258 C.3     1  UNL1        0.1895
      8 O          15.8124   68.3663   -5.5970 O.3     1  UNL1       -0.3779
      9 C          16.8293   69.3770   -3.6035 C.3     1  UNL1        0.1713
     10 C          17.3220   70.8276   -3.4464 C.3     1  UNL1        0.1764
     11 O          17.7161   71.2921   -4.7492 O.3     1  UNL1       -0.3308
     12 O          15.4722   69.2531   -3.1736 O.3     1  UNL1       -0.3794
     13 H          15.8657   67.4874   -5.1964 H       1  UNL1        0.2106
     14 H          15.2041   68.3415   -3.3518 H       1  UNL1        0.2105
     15 N          17.6104   70.5567   -7.0215 N.ar    1  UNL1       -0.2551
     16 C          16.8702   70.4818   -8.1416 C.ar    1  UNL1        0.3323
     17 N          17.4500   70.5011   -9.3562 N.ar    1  UNL1       -0.2743
     18 C          18.7895   70.5863   -9.4690 C.ar    1  UNL1        0.2626
     19 C          19.5823   70.6601   -8.2975 C.ar    1  UNL1        0.0795
     20 C          18.9748   70.6430   -7.0921 C.ar    1  UNL1        0.0869
     21 O          15.6607   70.4050   -8.0558 O.2     1  UNL1       -0.2464
     22 O          19.3156   70.5991  -10.5679 O.2     1  UNL1       -0.2670
     23 H          16.9001   70.4505  -10.1542 H       1  UNL1        0.1734
     24 O          20.4466   70.8844   -0.7194 O.3     1  UNL1       -0.2703
     25 P          21.7375   71.0212    0.2319 P.3     1  UNL1        0.2208
     26 O          21.7103   69.9540    1.2564 O.2     1  UNL1       -0.5170
     27 O          23.0746   70.8793   -0.6547 O.3     1  UNL1       -0.4371
     28 O          21.7237   72.4596    0.9535 O.3     1  UNL1       -0.2858
     29 C          21.7832   72.2189    2.3600 C.3     1  UNL1        0.2704
     30 C          21.5394   73.5286    3.1115 C.3     1  UNL1        0.1967
     31 C          22.6018   74.5493    2.6920 C.3     1  UNL1        0.1715
     32 C          23.9875   73.9271    2.8982 C.3     1  UNL1        0.1694
     33 C          24.0462   72.5871    2.1606 C.3     1  UNL1        0.1761
     34 O          20.2400   74.0291    2.7917 O.3     1  UNL1       -0.3775
     35 O          22.4780   75.7273    3.4917 O.3     1  UNL1       -0.3794
     36 O          24.2159   73.7207    4.2929 O.3     1  UNL1       -0.3794
     37 O          23.0670   71.6989    2.6975 O.3     1  UNL1       -0.3258
     38 H          19.6054   73.3530    3.0657 H       1  UNL1        0.2106
     39 H          21.5906   76.0765    3.3400 H       1  UNL1        0.2105
     40 H          24.1641   74.5876    4.7163 H       1  UNL1        0.2105
     41 C          25.4376   71.9733    2.3316 C.3     1  UNL1        0.1693
     42 O          25.5947   70.8887    1.4152 O.3     1  UNL1       -0.3794
     43 H          26.4824   70.5310    1.5544 H       1  UNL1        0.2105
@<TRIPOS>BOND
     1    15    16   ar
     2    15    20   ar
     3    15     6    1
     4    16    17   ar
     5    16    21    2
     6    17    18   ar
     7    17    23    1
     8    18    19   ar
     9    18    22    2
    10    19    20   ar
    11     6     7    1
    12     6    11    1
    13     7     8    1
    14     7     9    1
    15     8    13    1
    16     9    10    1
    17     9    12    1
    18    10    11    1
    19    10     5    1
    20    12    14    1
    21     5     4    1
    22     4     1    1
    23     1     2    2
    24     1     3    1
    25     1    24    1
    26    24    25    1
    27    25    26    2
    28    25    27    1
    29    25    28    1
    30    28    29    1
    31    29    30    1
    32    29    37    1
    33    30    31    1
    34    30    34    1
    35    31    32    1
    36    31    35    1
    37    32    33    1
    38    32    36    1
    39    33    41    1
    40    33    37    1
    41    41    42    1
    42    34    38    1
    43    35    39    1
    44    36    40    1
    45    42    43    1
@<TRIPOS>MOLECULE
GDU
 43 45 0 0 0
SMALL
GASTEIGER

@<TRIPOS>ATOM
      1 P          20.9456   70.8163   -3.5405 P.3     1  UNL1        0.2189
      2 O          20.4431   69.5299   -4.0718 O.2     1  UNL1       -0.5170
      3 O          21.9172   71.5023   -4.6259 O.3     1  UNL1       -0.4371
      4 O          19.7047   71.7936   -3.2375 O.3     1  UNL1       -0.3112
      5 C          18.6963   70.9998   -2.6101 C.3     1  UNL1        0.1811
      6 C          17.0214   70.5733   -5.7629 C.3     1  UNL1        0.2383
      7 C          17.0446   69.1542   -5.1396 C.3     1  UNL1        0.1895
      8 O          15.9046   68.3972   -5.5525 O.3     1  UNL1       -0.3779
      9 C          16.9817   69.4652   -3.6215 C.3     1  UNL1        0.1713
     10 C          17.4672   70.9229   -3.5176 C.3     1  UNL1        0.1764
     11 O          17.8118   71.3577   -4.8444 O.3     1  UNL1       -0.3308
     12 O          15.6415   69.3418   -3.1413 O.3     1  UNL1       -0.3794
     13 H          15.9793   67.5290   -5.1324 H       1  UNL1        0.2106
     14 H          15.3750   68.4240   -3.2875 H       1  UNL1        0.2105
     15 N          17.6333   70.5649   -7.0928 N.ar    1  UNL1       -0.2551
     16 C          16.8547   70.4622   -8.1844 C.ar    1  UNL1        0.3323
     17 N          17.3918   70.4557   -9.4186 N.ar    1  UNL1       -0.2743
     18 C          18.7261   70.5425   -9.5800 C.ar    1  UNL1        0.2626
     19 C          19.5591   70.6454   -8.4390 C.ar    1  UNL1        0.0795
     20 C          18.9941   70.6539   -7.2130 C.ar    1  UNL1        0.0869
     21 O          15.6493   70.3836   -8.0546 O.2     1  UNL1       -0.2464
     22 O          19.2135   70.5319  -10.6967 O.2     1  UNL1       -0.2670
     23 H          16.8145   70.3852  -10.1955 H       1  UNL1        0.1734
     24 O          21.7655   70.5505   -2.1805 O.3     1  UNL1       -0.2703
     25 P          22.9216   71.6676   -2.1067 P.3     1  UNL1        0.2208
     26 O          24.1985   71.0876   -2.5780 O.2     1  UNL1       -0.5170
     27 O          22.5218   72.9159   -3.0427 O.3     1  UNL1       -0.4371
     28 O          23.0878   72.1699   -0.5868 O.3     1  UNL1       -0.2858
     29 C          23.2350   71.0022    0.2224 C.3     1  UNL1        0.2704
     30 C          22.0230   70.8663    1.1454 C.3     1  UNL1        0.1967
     31 C          21.9186   72.1201    2.0191 C.3     1  UNL1        0.1715
     32 C          23.2594   72.3348    2.7304 C.3     1  UNL1        0.1694
     33 C          24.3782   72.3613    1.6861 C.3     1  UNL1        0.1761
     34 O          20.8370   70.7277    0.3609 O.3     1  UNL1       -0.3775
     35 O          20.8815   71.9460    2.9869 O.3     1  UNL1       -0.3794
     36 O          23.4864   71.2691    3.6539 O.3     1  UNL1       -0.3794
     37 O          24.4254   71.1115    0.9993 O.3     1  UNL1       -0.3258
     38 H          20.9497   69.9322   -0.1770 H       1  UNL1        0.2106
     39 H          20.0622   71.8027    2.4964 H       1  UNL1        0.2105
     40 H          22.7569   71.2873    4.2870 H       1  UNL1        0.2105
     41 C          25.7180   72.6095    2.3827 C.3     1  UNL1        0.1693
     42 O          25.5157   73.4581    3.5140 O.3     1  UNL1       -0.3794
     43 H          26.3817   73.5889    3.9242 H       1  UNL1        0.2105
@<TRIPOS>BOND
     1    15    16   ar
     2    15    20   ar
     3    15     6    1
     4    16    17   ar
     5    16    21    2
     6    17    18   ar
     7    17    23    1
     8    18    19   ar
     9    18    22    2
    10    19    20   ar
    11     6     7    1
    12     6    11    1
    13     7     8    1
    14     7     9    1
    15     8    13    1
    16     9    10    1
    17     9    12    1
    18    10    11    1
    19    10     5    1
    20    12    14    1
    21     5     4    1
    22     4     1    1
    23     1     2    2
    24     1     3    1
    25     1    24    1
    26    24    25    1
    27    25    26    2
    28    25    27    1
    29    25    28    1
    30    28    29    1
    31    29    30    1
    32    29    37    1
    33    30    31    1
    34    30    34    1
    35    31    32    1
    36    31    35    1
    37    32    33    1
    38    32    36    1
    39    33    41    1
    40    33    37    1
    41    41    42    1
    42    34    38    1
    43    35    39    1
    44    36    40    1
    45    42    43    1
@<TRIPOS>MOLECULE
GDU
 43 45 0 0 0
SMALL
GASTEIGER

@<TRIPOS>ATOM
      1 P          20.6047   71.3088   -1.0425 P.3     1  UNL1        0.2189
      2 O          20.3635   72.7532   -0.8308 O.2     1  UNL1       -0.5170
      3 O          20.6939   70.5652    0.3831 O.3     1  UNL1       -0.4371
      4 O          19.3966   70.6824   -1.8998 O.3     1  UNL1       -0.3112
      5 C          18.6897   71.7791   -2.4811 C.3     1  UNL1        0.1811
      6 C          17.1735   70.5562   -5.5032 C.3     1  UNL1        0.2383
      7 C          17.6278   69.2790   -4.7514 C.3     1  UNL1        0.1895
      8 O          16.7598   68.1809   -5.0409 O.3     1  UNL1       -0.3779
      9 C          17.4967   69.7114   -3.2677 C.3     1  UNL1        0.1713
     10 C          17.5267   71.2501   -3.3223 C.3     1  UNL1        0.1764
     11 O          17.7069   71.6288   -4.6979 O.3     1  UNL1       -0.3308
     12 O          16.2612   69.2475   -2.7195 O.3     1  UNL1       -0.3794
     13 H          17.0960   67.4213   -4.5451 H       1  UNL1        0.2106
     14 H          16.2786   68.2821   -2.7672 H       1  UNL1        0.2105
     15 N          17.7410   70.5926   -6.8521 N.ar    1  UNL1       -0.2551
     16 C          16.9381   70.4268   -7.9180 C.ar    1  UNL1        0.3323
     17 N          17.4340   70.4595   -9.1690 N.ar    1  UNL1       -0.2743
     18 C          18.7516   70.6501   -9.3734 C.ar    1  UNL1        0.2626
     19 C          19.6102   70.8204   -8.2598 C.ar    1  UNL1        0.0795
     20 C          19.0861   70.7876   -7.0162 C.ar    1  UNL1        0.0869
     21 O          15.7474   70.2544   -7.7494 O.2     1  UNL1       -0.2464
     22 O          19.2021   70.6750  -10.5051 O.2     1  UNL1       -0.2670
     23 H          16.8393   70.3422   -9.9268 H       1  UNL1        0.1734
     24 O          21.9898   71.1080   -1.8385 O.3     1  UNL1       -0.2703
     25 P          23.1315   71.8538   -0.9839 P.3     1  UNL1        0.2208
     26 O          24.2232   70.9016   -0.6827 O.2     1  UNL1       -0.5170
     27 O          23.7174   73.0894   -1.8348 O.3     1  UNL1       -0.4371
     28 O          22.5016   72.4021    0.3918 O.3     1  UNL1       -0.2858
     29 C          23.5720   72.9876    1.1341 C.3     1  UNL1        0.2704
     30 C          23.5927   72.4012    2.5466 C.3     1  UNL1        0.1967
     31 C          22.2477   72.6832    3.2232 C.3     1  UNL1        0.1715
     32 C          21.9661   74.1880    3.1457 C.3     1  UNL1        0.1694
     33 C          22.0670   74.6388    1.6864 C.3     1  UNL1        0.1761
     34 O          23.8083   70.9906    2.4761 O.3     1  UNL1       -0.3775
     35 O          22.3029   72.2725    4.5910 O.3     1  UNL1       -0.3794
     36 O          22.9231   74.8945    3.9363 O.3     1  UNL1       -0.3794
     37 O          23.3865   74.3997    1.1988 O.3     1  UNL1       -0.3258
     38 H          24.6602   70.8602    2.0379 H       1  UNL1        0.2106
     39 H          22.4932   71.3259    4.5914 H       1  UNL1        0.2105
     40 H          22.8275   74.5752    4.8430 H       1  UNL1        0.2105
     41 C          21.7537   76.1338    1.5934 C.3     1  UNL1        0.1693
     42 O          20.6575   76.4445    2.4552 O.3     1  UNL1       -0.3794
     43 H          20.4930   77.3935    2.3679 H       1  UNL1        0.2105
@<TRIPOS>BOND
     1    15    16   ar
     2    15    20   ar
     3    15     6    1
     4    16    17   ar
     5    16    21    2
     6    17    18   ar
     7    17    23    1
     8    18    19   ar
     9    18    22    2
    10    19    20   ar
    11     6     7    1
    12     6    11    1
    13     7     8    1
    14     7     9    1
    15     8    13    1
    16     9    10    1
    17     9    12    1
    18    10    11    1
    19    10     5    1
    20    12    14    1
    21     5     4    1
    22     4     1    1
    23     1     2    2
    24     1     3    1
    25     1    24    1
    26    24    25    1
    27    25    26    2
    28    25    27    1
    29    25    28    1
    30    28    29    1
    31    29    30    1
    32    29    37    1
    33    30    31    1
    34    30    34    1
    35    31    32    1
    36    31    35    1
    37    32    33    1
    38    32    36    1
    39    33    41    1
    40    33    37    1
    41    41    42    1
    42    34    38    1
    43    35    39    1
    44    36    40    1
    45    42    43    1
@<TRIPOS>MOLECULE
GDU
 43 45 0 0 0
SMALL
GASTEIGER

@<TRIPOS>ATOM
      1 P          20.6483   71.1872   -3.1068 P.3     1  UNL1        0.2189
      2 O          21.1863   71.0928   -4.4820 O.2     1  UNL1       -0.5170
      3 O          20.2365   72.7124   -2.7953 O.3     1  UNL1       -0.4371
      4 O          19.3532   70.2432   -2.9708 O.3     1  UNL1       -0.3112
      5 C          18.2745   71.0789   -2.5484 C.3     1  UNL1        0.1811
      6 C          16.8198   70.5751   -5.7976 C.3     1  UNL1        0.2383
      7 C          16.8696   69.1587   -5.1697 C.3     1  UNL1        0.1895
      8 O          15.7935   68.3498   -5.6502 O.3     1  UNL1       -0.3779
      9 C          16.6985   69.4667   -3.6594 C.3     1  UNL1        0.1713
     10 C          17.1089   70.9453   -3.5301 C.3     1  UNL1        0.1764
     11 O          17.5147   71.3953   -4.8343 O.3     1  UNL1       -0.3308
     12 O          15.3382   69.2816   -3.2628 O.3     1  UNL1       -0.3794
     13 H          15.8819   67.4860   -5.2236 H       1  UNL1        0.2106
     14 H          15.1238   68.3525   -3.4224 H       1  UNL1        0.2105
     15 N          17.5127   70.5947   -7.0870 N.ar    1  UNL1       -0.2551
     16 C          16.8016   70.5402   -8.2270 C.ar    1  UNL1        0.3323
     17 N          17.4140   70.5603   -9.4256 N.ar    1  UNL1       -0.2743
     18 C          18.7571   70.6258   -9.5019 C.ar    1  UNL1        0.2626
     19 C          19.5194   70.6780   -8.3092 C.ar    1  UNL1        0.0795
     20 C          18.8797   70.6607   -7.1206 C.ar    1  UNL1        0.0869
     21 O          15.5893   70.4813   -8.1740 O.2     1  UNL1       -0.2464
     22 O          19.3125   70.6393  -10.5863 O.2     1  UNL1       -0.2670
     23 H          16.8848   70.5245  -10.2383 H       1  UNL1        0.1734
     24 O          21.7732   70.7115   -2.0577 O.3     1  UNL1       -0.2703
     25 P          23.0582   71.6514   -2.2932 P.3     1  UNL1        0.2208
     26 O          24.1000   70.8900   -3.0171 O.2     1  UNL1       -0.5170
     27 O          22.6303   72.9364   -3.1648 O.3     1  UNL1       -0.4371
     28 O          23.6370   72.1370   -0.8722 O.3     1  UNL1       -0.2858
     29 C          22.7984   73.2030   -0.4249 C.3     1  UNL1        0.2704
     30 C          23.6577   74.4279   -0.1075 C.3     1  UNL1        0.1967
     31 C          24.6792   74.0543    0.9711 C.3     1  UNL1        0.1715
     32 C          23.9316   73.4543    2.1672 C.3     1  UNL1        0.1694
     33 C          23.0524   72.3011    1.6771 C.3     1  UNL1        0.1761
     34 O          24.3402   74.8528   -1.2886 O.3     1  UNL1       -0.3775
     35 O          25.3908   75.2230    1.3838 O.3     1  UNL1       -0.3794
     36 O          23.1168   74.4582    2.7739 O.3     1  UNL1       -0.3794
     37 O          22.0918   72.7916    0.7430 O.3     1  UNL1       -0.3258
     38 H          23.6602   75.0703   -1.9407 H       1  UNL1        0.2106
     39 H          25.8341   75.5720    0.6002 H       1  UNL1        0.2105
     40 H          23.7102   75.1644    3.0611 H       1  UNL1        0.2105
     41 C          22.3274   71.6725    2.8692 C.3     1  UNL1        0.1693
     42 O          20.9816   72.1500    2.9129 O.3     1  UNL1       -0.3794
     43 H          20.5604   71.7305    3.6757 H       1  UNL1        0.2105
@<TRIPOS>BOND
     1    15    16   ar
     2    15    20   ar
     3    15     6    1
     4    16    17   ar
     5    16    21    2
     6    17    18   ar
     7    17    23    1
     8    18    19   ar
     9    18    22    2
    10    19    20   ar
    11     6     7    1
    12     6    11    1
    13     7     8    1
    14     7     9    1
    15     8    13    1
    16     9    10    1
    17     9    12    1
    18    10    11    1
    19    10     5    1
    20    12    14    1
    21     5     4    1
    22     4     1    1
    23     1     2    2
    24     1     3    1
    25     1    24    1
    26    24    25    1
    27    25    26    2
    28    25    27    1
    29    25    28    1
    30    28    29    1
    31    29    30    1
    32    29    37    1
    33    30    31    1
    34    30    34    1
    35    31    32    1
    36    31    35    1
    37    32    33    1
    38    32    36    1
    39    33    41    1
    40    33    37    1
    41    41    42    1
    42    34    38    1
    43    35    39    1
    44    36    40    1
    45    42    43    1
@<TRIPOS>MOLECULE
GDU
 43 45 0 0 0
SMALL
GASTEIGER

@<TRIPOS>ATOM
      1 P          20.4183   71.0288   -2.1223 P.3     1  UNL1        0.2189
      2 O          20.3616   72.5005   -2.2648 O.2     1  UNL1       -0.5170
      3 O          20.5118   70.6441   -0.5614 O.3     1  UNL1       -0.4371
      4 O          19.0924   70.3763   -2.7572 O.3     1  UNL1       -0.3112
      5 C          18.0277   71.3019   -2.5333 C.3     1  UNL1        0.1811
      6 C          16.7250   70.5710   -5.8038 C.3     1  UNL1        0.2383
      7 C          16.8483   69.1873   -5.1159 C.3     1  UNL1        0.1895
      8 O          15.8467   68.2879   -5.5965 O.3     1  UNL1       -0.3779
      9 C          16.6039   69.5423   -3.6260 C.3     1  UNL1        0.1713
     10 C          16.9089   71.0496   -3.5455 C.3     1  UNL1        0.1764
     11 O          17.3288   71.4745   -4.8537 O.3     1  UNL1       -0.3308
     12 O          15.2461   69.2798   -3.2662 O.3     1  UNL1       -0.3794
     13 H          15.9782   67.4498   -5.1316 H       1  UNL1        0.2106
     14 H          15.1007   68.3326   -3.3936 H       1  UNL1        0.2105
     15 N          17.4597   70.5873   -7.0698 N.ar    1  UNL1       -0.2551
     16 C          16.7846   70.5817   -8.2327 C.ar    1  UNL1        0.3323
     17 N          17.4359   70.6000   -9.4105 N.ar    1  UNL1       -0.2743
     18 C          18.7824   70.6142   -9.4428 C.ar    1  UNL1        0.2626
     19 C          19.5068   70.6144   -8.2257 C.ar    1  UNL1        0.0795
     20 C          18.8286   70.6002   -7.0586 C.ar    1  UNL1        0.0869
     21 O          15.5698   70.5695   -8.2195 O.2     1  UNL1       -0.2464
     22 O          19.3729   70.6259  -10.5085 O.2     1  UNL1       -0.2670
     23 H          16.9325   70.6000  -10.2402 H       1  UNL1        0.1734
     24 O          21.7161   70.4657   -2.8910 O.3     1  UNL1       -0.2703
     25 P          22.9609   71.3783   -2.4353 P.3     1  UNL1        0.2208
     26 O          23.0126   71.4395   -0.9579 O.2     1  UNL1       -0.5170
     27 O          24.3289   70.7370   -2.9935 O.3     1  UNL1       -0.4371
     28 O          22.7846   72.8636   -3.0290 O.3     1  UNL1       -0.2858
     29 C          23.9320   73.1261   -3.8380 C.3     1  UNL1        0.2704
     30 C          24.3464   74.5892   -3.6745 C.3     1  UNL1        0.1967
     31 C          23.1766   75.4879   -4.0873 C.3     1  UNL1        0.1715
     32 C          22.7277   75.0908   -5.4981 C.3     1  UNL1        0.1694
     33 C          22.4340   73.5888   -5.5228 C.3     1  UNL1        0.1761
     34 O          24.6867   74.8407   -2.3099 O.3     1  UNL1       -0.3775
     35 O          23.5953   76.8543   -4.0808 O.3     1  UNL1       -0.3794
     36 O          23.7641   75.3953   -6.4326 O.3     1  UNL1       -0.3794
     37 O          23.6192   72.8612   -5.2035 O.3     1  UNL1       -0.3258
     38 H          25.4203   74.2498   -2.0919 H       1  UNL1        0.2106
     39 H          23.8790   77.0558   -3.1801 H       1  UNL1        0.2105
     40 H          23.9189   76.3473   -6.3786 H       1  UNL1        0.2105
     41 C          21.9519   73.1879   -6.9188 C.3     1  UNL1        0.1693
     42 O          23.0805   72.9203   -7.7529 O.3     1  UNL1       -0.3794
     43 H          22.7342   72.6712   -8.6209 H       1  UNL1        0.2105
@<TRIPOS>BOND
     1    15    16   ar
     2    15    20   ar
     3    15     6    1
     4    16    17   ar
     5    16    21    2
     6    17    18   ar
     7    17    23    1
     8    18    19   ar
     9    18    22    2
    10    19    20   ar
    11     6     7    1
    12     6    11    1
    13     7     8    1
    14     7     9    1
    15     8    13    1
    16     9    10    1
    17     9    12    1
    18    10    11    1
    19    10     5    1
    20    12    14    1
    21     5     4    1
    22     4     1    1
    23     1     2    2
    24     1     3    1
    25     1    24    1
    26    24    25    1
    27    25    26    2
    28    25    27    1
    29    25    28    1
    30    28    29    1
    31    29    30    1
    32    29    37    1
    33    30    31    1
    34    30    34    1
    35    31    32    1
    36    31    35    1
    37    32    33    1
    38    32    36    1
    39    33    41    1
    40    33    37    1
    41    41    42    1
    42    34    38    1
    43    35    39    1
    44    36    40    1
    45    42    43    1
@<TRIPOS>MOLECULE
GDU
 43 45 0 0 0
SMALL
GASTEIGER

@<TRIPOS>ATOM
      1 P          16.0106   69.6670   -2.4802 P.3     1  UNL1        0.2189
      2 O          16.8942   68.7276   -1.7548 O.2     1  UNL1       -0.5170
      3 O          15.8316   69.1693   -4.0011 O.3     1  UNL1       -0.4371
      4 O          14.5735   69.7177   -1.7596 O.3     1  UNL1       -0.3112
      5 C          14.7816   69.3492   -0.3952 C.3     1  UNL1        0.1811
      6 C          13.0230   67.1785    1.8681 C.3     1  UNL1        0.2383
      7 C          11.9811   68.2567    1.4745 C.3     1  UNL1        0.1895
      8 O          10.6577   67.7165    1.4897 O.3     1  UNL1       -0.3779
      9 C          12.4153   68.6159    0.0296 C.3     1  UNL1        0.1713
     10 C          13.8847   68.1609   -0.0437 C.3     1  UNL1        0.1764
     11 O          14.2412   67.6461    1.2510 O.3     1  UNL1       -0.3308
     12 O          11.6176   67.9088   -0.9221 O.3     1  UNL1       -0.3794
     13 H          10.0606   68.4346    1.2374 H       1  UNL1        0.2106
     14 H          10.7033   68.1923   -0.7870 H       1  UNL1        0.2105
     15 N          13.1745   67.1113    3.3225 N.ar    1  UNL1       -0.2551
     16 C          13.0258   65.9338    3.9547 C.ar    1  UNL1        0.3323
     17 N          13.1633   65.8440    5.2907 N.ar    1  UNL1       -0.2743
     18 C          13.4440   66.9406    6.0206 C.ar    1  UNL1        0.2626
     19 C          13.5977   68.1887    5.3689 C.ar    1  UNL1        0.0795
     20 C          13.4587   68.2499    4.0275 C.ar    1  UNL1        0.0869
     21 O          12.7729   64.9358    3.3096 O.2     1  UNL1       -0.2464
     22 O          13.5640   66.8612    7.2305 O.2     1  UNL1       -0.2670
     23 H          13.0568   64.9852    5.7300 H       1  UNL1        0.1734
     24 O          16.6688   71.1364   -2.4718 O.3     1  UNL1       -0.2703
     25 P          18.2186   70.9557   -2.8658 P.3     1  UNL1        0.2208
     26 O          19.0540   71.7942   -1.9781 O.2     1  UNL1       -0.5170
     27 O          18.6389   69.4103   -2.6951 O.3     1  UNL1       -0.4371
     28 O          18.4405   71.4051   -4.3952 O.3     1  UNL1       -0.2858
     29 C          18.8870   70.2499   -5.1065 C.3     1  UNL1        0.2704
     30 C          20.3526   70.4318   -5.5042 C.3     1  UNL1        0.1967
     31 C          20.4812   71.6859   -6.3743 C.3     1  UNL1        0.1715
     32 C          19.4969   71.5738   -7.5441 C.3     1  UNL1        0.1694
     33 C          18.0948   71.3071   -6.9910 C.3     1  UNL1        0.1761
     34 O          21.1527   70.5782   -4.3296 O.3     1  UNL1       -0.3775
     35 O          21.8159   71.7882   -6.8749 O.3     1  UNL1       -0.3794
     36 O          19.8910   70.4995   -8.3988 O.3     1  UNL1       -0.3794
     37 O          18.0870   70.0738   -6.2734 O.3     1  UNL1       -0.3258
     38 H          21.0357   69.7712   -3.8100 H       1  UNL1        0.2106
     39 H          22.3991   71.8441   -6.1074 H       1  UNL1        0.2105
     40 H          20.7789   70.7070   -8.7180 H       1  UNL1        0.2105
     41 C          17.0981   71.2275   -8.1495 C.3     1  UNL1        0.1693
     42 O          17.5720   72.0197   -9.2398 O.3     1  UNL1       -0.3794
     43 H          16.9175   71.9420   -9.9475 H       1  UNL1        0.2105
@<TRIPOS>BOND
     1    15    16   ar
     2    15    20   ar
     3    15     6    1
     4    16    17   ar
     5    16    21    2
     6    17    18   ar
     7    17    23    1
     8    18    19   ar
     9    18    22    2
    10    19    20   ar
    11     6     7    1
    12     6    11    1
    13     7     8    1
    14     7     9    1
    15     8    13    1
    16     9    10    1
    17     9    12    1
    18    10    11    1
    19    10     5    1
    20    12    14    1
    21     5     4    1
    22     4     1    1
    23     1     2    2
    24     1     3    1
    25     1    24    1
    26    24    25    1
    27    25    26    2
    28    25    27    1
    29    25    28    1
    30    28    29    1
    31    29    30    1
    32    29    37    1
    33    30    31    1
    34    30    34    1
    35    31    32    1
    36    31    35    1
    37    32    33    1
    38    32    36    1
    39    33    41    1
    40    33    37    1
    41    41    42    1
    42    34    38    1
    43    35    39    1
    44    36    40    1
    45    42    43    1
@<TRIPOS>MOLECULE
GDU
 43 45 0 0 0
SMALL
GASTEIGER

@<TRIPOS>ATOM
      1 P          20.8870   71.3924   -1.7199 P.3     1  UNL1        0.2189
      2 O          21.5214   70.5893   -2.7886 O.2     1  UNL1       -0.5170
      3 O          21.5669   72.8513   -1.6697 O.3     1  UNL1       -0.4371
      4 O          19.3147   71.5434   -2.0231 O.3     1  UNL1       -0.3112
      5 C          18.8627   70.2767   -2.5046 C.3     1  UNL1        0.1811
      6 C          17.1351   70.4337   -5.6539 C.3     1  UNL1        0.2383
      7 C          16.9511   68.9687   -5.1818 C.3     1  UNL1        0.1895
      8 O          15.7112   68.4338   -5.6505 O.3     1  UNL1       -0.3779
      9 C          16.9386   69.1238   -3.6387 C.3     1  UNL1        0.1713
     10 C          17.6332   70.4760   -3.3928 C.3     1  UNL1        0.1764
     11 O          18.0344   70.9932   -4.6733 O.3     1  UNL1       -0.3308
     12 O          15.5961   69.1472   -3.1499 O.3     1  UNL1       -0.3794
     13 H          15.6587   67.5246   -5.3242 H       1  UNL1        0.2106
     14 H          15.1973   68.2987   -3.3857 H       1  UNL1        0.2105
     15 N          17.7355   70.4764   -6.9882 N.ar    1  UNL1       -0.2551
     16 C          16.9448   70.4689   -8.0759 C.ar    1  UNL1        0.3323
     17 N          17.4714   70.5110   -9.3139 N.ar    1  UNL1       -0.2743
     18 C          18.8069   70.5516   -9.4838 C.ar    1  UNL1        0.2626
     19 C          19.6523   70.5542   -8.3474 C.ar    1  UNL1        0.0795
     20 C          19.0978   70.5157   -7.1171 C.ar    1  UNL1        0.0869
     21 O          15.7382   70.4329   -7.9384 O.2     1  UNL1       -0.2464
     22 O          19.2846   70.5850  -10.6042 O.2     1  UNL1       -0.2670
     23 H          16.8855   70.5092  -10.0876 H       1  UNL1        0.1734
     24 O          21.0934   70.6566   -0.3027 O.3     1  UNL1       -0.2703
     25 P          22.4782   71.2025    0.3092 P.3     1  UNL1        0.2208
     26 O          23.0352   70.1978    1.2416 O.2     1  UNL1       -0.5170
     27 O          23.5262   71.4643   -0.8855 O.3     1  UNL1       -0.4371
     28 O          22.2115   72.5793    1.0988 O.3     1  UNL1       -0.2858
     29 C          21.1361   72.3355    2.0063 C.3     1  UNL1        0.2704
     30 C          20.0822   73.4334    1.8536 C.3     1  UNL1        0.1967
     31 C          20.7321   74.7913    2.1372 C.3     1  UNL1        0.1715
     32 C          21.4166   74.7303    3.5074 C.3     1  UNL1        0.1694
     33 C          22.3715   73.5342    3.5339 C.3     1  UNL1        0.1761
     34 O          19.5642   73.4178    0.5222 O.3     1  UNL1       -0.3775
     35 O          19.7307   75.8109    2.1431 O.3     1  UNL1       -0.3794
     36 O          20.4292   74.5823    4.5287 O.3     1  UNL1       -0.3794
     37 O          21.6360   72.3267    3.3415 O.3     1  UNL1       -0.3258
     38 H          19.1723   72.5446    0.3856 H       1  UNL1        0.2106
     39 H          19.3202   75.8050    1.2692 H       1  UNL1        0.2105
     40 H          19.8489   75.3524    4.4706 H       1  UNL1        0.2105
     41 C          23.0861   73.4841    4.8863 C.3     1  UNL1        0.1693
     42 O          22.2295   72.8758    5.8544 O.3     1  UNL1       -0.3794
     43 H          22.7163   72.8630    6.6900 H       1  UNL1        0.2105
@<TRIPOS>BOND
     1    15    16   ar
     2    15    20   ar
     3    15     6    1
     4    16    17   ar
     5    16    21    2
     6    17    18   ar
     7    17    23    1
     8    18    19   ar
     9    18    22    2
    10    19    20   ar
    11     6     7    1
    12     6    11    1
    13     7     8    1
    14     7     9    1
    15     8    13    1
    16     9    10    1
    17     9    12    1
    18    10    11    1
    19    10     5    1
    20    12    14    1
    21     5     4    1
    22     4     1    1
    23     1     2    2
    24     1     3    1
    25     1    24    1
    26    24    25    1
    27    25    26    2
    28    25    27    1
    29    25    28    1
    30    28    29    1
    31    29    30    1
    32    29    37    1
    33    30    31    1
    34    30    34    1
    35    31    32    1
    36    31    35    1
    37    32    33    1
    38    32    36    1
    39    33    41    1
    40    33    37    1
    41    41    42    1
    42    34    38    1
    43    35    39    1
    44    36    40    1
    45    42    43    1
@<TRIPOS>MOLECULE
GDU
 43 45 0 0 0
SMALL
GASTEIGER

@<TRIPOS>ATOM
      1 P          21.3027   71.0803   -0.3653 P.3     1  UNL1        0.2189
      2 O          21.5169   70.2441    0.8365 O.2     1  UNL1       -0.5170
      3 O          22.5379   70.8875   -1.3802 O.3     1  UNL1       -0.4371
      4 O          19.9375   70.6376   -1.0912 O.3     1  UNL1       -0.3112
      5 C          20.0603   71.0086   -2.4652 C.3     1  UNL1        0.1811
      6 C          17.7657   70.7034   -5.2164 C.3     1  UNL1        0.2383
      7 C          17.7811   69.2970   -4.5647 C.3     1  UNL1        0.1895
      8 O          16.5177   68.6475   -4.7236 O.3     1  UNL1       -0.3779
      9 C          18.0470   69.6325   -3.0741 C.3     1  UNL1        0.1713
     10 C          18.6748   71.0382   -3.1131 C.3     1  UNL1        0.1764
     11 O          18.7897   71.4203   -4.4947 O.3     1  UNL1       -0.3308
     12 O          16.8220   69.6446   -2.3385 O.3     1  UNL1       -0.3794
     13 H          16.5939   67.7817   -4.2987 H       1  UNL1        0.2106
     14 H          16.4491   68.7548   -2.4008 H       1  UNL1        0.2105
     15 N          18.1004   70.6188   -6.6390 N.ar    1  UNL1       -0.2551
     16 C          17.1171   70.5145   -7.5503 C.ar    1  UNL1        0.3323
     17 N          17.3976   70.4387   -8.8646 N.ar    1  UNL1       -0.2743
     18 C          18.6757   70.4564   -9.2892 C.ar    1  UNL1        0.2626
     19 C          19.7221   70.5601   -8.3402 C.ar    1  UNL1        0.0795
     20 C          19.4126   70.6389   -7.0285 C.ar    1  UNL1        0.0869
     21 O          15.9593   70.4978   -7.1824 O.2     1  UNL1       -0.2464
     22 O          18.9308   70.3830  -10.4784 O.2     1  UNL1       -0.2670
     23 H          16.6752   70.3682   -9.5088 H       1  UNL1        0.1734
     24 O          21.2036   72.6275    0.0693 O.3     1  UNL1       -0.2703
     25 P          22.6944   73.1030    0.4452 P.3     1  UNL1        0.2208
     26 O          23.5931   71.9282    0.4781 O.2     1  UNL1       -0.5170
     27 O          23.2191   74.1485   -0.6621 O.3     1  UNL1       -0.4371
     28 O          22.6844   73.8129    1.8894 O.3     1  UNL1       -0.2858
     29 C          23.0212   72.8089    2.8477 C.3     1  UNL1        0.2704
     30 C          21.8534   72.6178    3.8167 C.3     1  UNL1        0.1967
     31 C          21.5584   73.9509    4.5111 C.3     1  UNL1        0.1715
     32 C          22.8537   74.4703    5.1451 C.3     1  UNL1        0.1694
     33 C          23.9459   74.5229    4.0739 C.3     1  UNL1        0.1761
     34 O          20.6982   72.1864    3.0950 O.3     1  UNL1       -0.3775
     35 O          20.5696   73.7560    5.5244 O.3     1  UNL1       -0.3794
     36 O          23.2540   73.5946    6.2000 O.3     1  UNL1       -0.3794
     37 O          24.1852   73.2112    3.5658 O.3     1  UNL1       -0.3258
     38 H          20.9314   71.3501    2.6694 H       1  UNL1        0.2106
     39 H          19.7796   73.4188    5.0834 H       1  UNL1        0.2105
     40 H          22.5359   73.5883    6.8462 H       1  UNL1        0.2105
     41 C          25.2349   75.0729    4.6888 C.3     1  UNL1        0.1693
     42 O          26.3274   74.2186    4.3460 O.3     1  UNL1       -0.3794
     43 H          27.1186   74.5998    4.7511 H       1  UNL1        0.2105
@<TRIPOS>BOND
     1    15    16   ar
     2    15    20   ar
     3    15     6    1
     4    16    17   ar
     5    16    21    2
     6    17    18   ar
     7    17    23    1
     8    18    19   ar
     9    18    22    2
    10    19    20   ar
    11     6     7    1
    12     6    11    1
    13     7     8    1
    14     7     9    1
    15     8    13    1
    16     9    10    1
    17     9    12    1
    18    10    11    1
    19    10     5    1
    20    12    14    1
    21     5     4    1
    22     4     1    1
    23     1     2    2
    24     1     3    1
    25     1    24    1
    26    24    25    1
    27    25    26    2
    28    25    27    1
    29    25    28    1
    30    28    29    1
    31    29    30    1
    32    29    37    1
    33    30    31    1
    34    30    34    1
    35    31    32    1
    36    31    35    1
    37    32    33    1
    38    32    36    1
    39    33    41    1
    40    33    37    1
    41    41    42    1
    42    34    38    1
    43    35    39    1
    44    36    40    1
    45    42    43    1
@<TRIPOS>MOLECULE
GDU
 43 45 0 0 0
SMALL
GASTEIGER

@<TRIPOS>ATOM
      1 P          16.5050   69.8554   -2.8177 P.3     1  UNL1        0.2189
      2 O          16.1882   69.0986   -4.0491 O.2     1  UNL1       -0.5170
      3 O          15.9556   71.3626   -2.9580 O.3     1  UNL1       -0.4371
      4 O          15.8058   69.1447   -1.5556 O.3     1  UNL1       -0.3112
      5 C          14.8837   70.0882   -1.0078 C.3     1  UNL1        0.1811
      6 C          12.4791   68.1626    0.8462 C.3     1  UNL1        0.2383
      7 C          12.1615   69.6357    1.2096 C.3     1  UNL1        0.1895
      8 O          10.7689   69.8041    1.4847 O.3     1  UNL1       -0.3779
      9 C          12.5634   70.3843   -0.0878 C.3     1  UNL1        0.1713
     10 C          13.5268   69.4141   -0.7965 C.3     1  UNL1        0.1764
     11 O          13.6801   68.2630    0.0519 O.3     1  UNL1       -0.3308
     12 O          11.4124   70.6364   -0.8962 O.3     1  UNL1       -0.3794
     13 H          10.6387   70.7375    1.7030 H       1  UNL1        0.2106
     14 H          10.8227   71.1991   -0.3761 H       1  UNL1        0.2105
     15 N          12.7241   67.3724    2.0539 N.ar    1  UNL1       -0.2551
     16 C          12.5396   66.0407    2.0283 C.ar    1  UNL1        0.3323
     17 N          12.7612   65.2907    3.1239 N.ar    1  UNL1       -0.2743
     18 C          13.1640   65.8673    4.2726 C.ar    1  UNL1        0.2626
     19 C          13.3568   67.2699    4.3159 C.ar    1  UNL1        0.0795
     20 C          13.1315   67.9978    3.2015 C.ar    1  UNL1        0.0869
     21 O          12.1769   65.5063    0.9993 O.2     1  UNL1       -0.2464
     22 O          13.3602   65.1899    5.2661 O.2     1  UNL1       -0.2670
     23 H          12.6271   64.3303    3.0863 H       1  UNL1        0.1734
     24 O          18.1004   69.8852   -2.6027 O.3     1  UNL1       -0.2703
     25 P          18.7108   70.8144   -3.7662 P.3     1  UNL1        0.2208
     26 O          18.5251   72.2380   -3.4087 O.2     1  UNL1       -0.5170
     27 O          20.2826   70.5038   -3.9315 O.3     1  UNL1       -0.4371
     28 O          17.9553   70.5053   -5.1532 O.3     1  UNL1       -0.2858
     29 C          17.8766   71.7399   -5.8669 C.3     1  UNL1        0.2704
     30 C          16.6102   71.7524   -6.7245 C.3     1  UNL1        0.1967
     31 C          16.6537   70.5683   -7.6952 C.3     1  UNL1        0.1715
     32 C          17.9712   70.6234   -8.4767 C.3     1  UNL1        0.1694
     33 C          19.1354   70.6946   -7.4853 C.3     1  UNL1        0.1761
     34 O          15.4611   71.6413   -5.8828 O.3     1  UNL1       -0.3775
     35 O          15.5515   70.6495   -8.6014 O.3     1  UNL1       -0.3794
     36 O          17.9809   71.7789   -9.3161 O.3     1  UNL1       -0.3794
     37 O          19.0259   71.8800   -6.6987 O.3     1  UNL1       -0.3258
     38 H          15.4784   72.4012   -5.2853 H       1  UNL1        0.2106
     39 H          14.7476   70.6235   -8.0672 H       1  UNL1        0.2105
     40 H          17.2299   71.6940   -9.9179 H       1  UNL1        0.2105
     41 C          20.4579   70.7154   -8.2550 C.3     1  UNL1        0.1693
     42 O          21.2222   69.5563   -7.9185 O.3     1  UNL1       -0.3794
     43 H          22.0452   69.6073   -8.4238 H       1  UNL1        0.2105
@<TRIPOS>BOND
     1    15    16   ar
     2    15    20   ar
     3    15     6    1
     4    16    17   ar
     5    16    21    2
     6    17    18   ar
     7    17    23    1
     8    18    19   ar
     9    18    22    2
    10    19    20   ar
    11     6     7    1
    12     6    11    1
    13     7     8    1
    14     7     9    1
    15     8    13    1
    16     9    10    1
    17     9    12    1
    18    10    11    1
    19    10     5    1
    20    12    14    1
    21     5     4    1
    22     4     1    1
    23     1     2    2
    24     1     3    1
    25     1    24    1
    26    24    25    1
    27    25    26    2
    28    25    27    1
    29    25    28    1
    30    28    29    1
    31    29    30    1
    32    29    37    1
    33    30    31    1
    34    30    34    1
    35    31    32    1
    36    31    35    1
    37    32    33    1
    38    32    36    1
    39    33    41    1
    40    33    37    1
    41    41    42    1
    42    34    38    1
    43    35    39    1
    44    36    40    1
    45    42    43    1
@<TRIPOS>MOLECULE
GDU
 43 45 0 0 0
SMALL
GASTEIGER

@<TRIPOS>ATOM
      1 P          16.5183   69.9534   -2.5640 P.3     1  UNL1        0.2189
      2 O          17.6403   69.1961   -1.9662 O.2     1  UNL1       -0.5170
      3 O          15.8519   69.0832   -3.7437 O.3     1  UNL1       -0.4371
      4 O          15.4152   70.2601   -1.4345 O.3     1  UNL1       -0.3112
      5 C          15.1203   69.0168   -0.7958 C.3     1  UNL1        0.1811
      6 C          12.2149   68.0246    1.0755 C.3     1  UNL1        0.2383
      7 C          12.5299   69.4573    1.5766 C.3     1  UNL1        0.1895
      8 O          11.3338   70.1352    1.9677 O.3     1  UNL1       -0.3779
      9 C          13.1506   70.1133    0.3158 C.3     1  UNL1        0.1713
     10 C          13.6157   68.9186   -0.5372 C.3     1  UNL1        0.1764
     11 O          13.3247   67.7210    0.2038 O.3     1  UNL1       -0.3308
     12 O          12.1689   70.8826   -0.3816 O.3     1  UNL1       -0.3794
     13 H          11.5980   71.0160    2.2680 H       1  UNL1        0.2106
     14 H          11.8749   71.5766    0.2238 H       1  UNL1        0.2105
     15 N          12.1662   67.0831    2.1954 N.ar    1  UNL1       -0.2551
     16 C          13.3100   66.5911    2.7033 C.ar    1  UNL1        0.3323
     17 N          13.2930   65.7268    3.7351 N.ar    1  UNL1       -0.2743
     18 C          12.1226   65.3314    4.2717 C.ar    1  UNL1        0.2626
     19 C          10.9096   65.8370    3.7433 C.ar    1  UNL1        0.0795
     20 C          10.9554   66.7058    2.7110 C.ar    1  UNL1        0.0869
     21 O          14.3735   66.9389    2.2299 O.2     1  UNL1       -0.2464
     22 O          12.1061   64.5455    5.2026 O.2     1  UNL1       -0.2670
     23 H          14.1283   65.3851    4.0919 H       1  UNL1        0.1734
     24 O          17.0698   71.3403   -3.1680 O.3     1  UNL1       -0.2703
     25 P          17.5506   71.0353   -4.6733 P.3     1  UNL1        0.2208
     26 O          17.9351   69.6113   -4.7891 O.2     1  UNL1       -0.5170
     27 O          16.3462   71.3502   -5.6953 O.3     1  UNL1       -0.4371
     28 O          18.8145   71.9645   -5.0327 O.3     1  UNL1       -0.2858
     29 C          19.9861   71.1910   -4.7704 C.3     1  UNL1        0.2704
     30 C          20.8710   71.9316   -3.7666 C.3     1  UNL1        0.1967
     31 C          21.2445   73.2997   -4.3456 C.3     1  UNL1        0.1715
     32 C          21.8638   73.0924   -5.7324 C.3     1  UNL1        0.1694
     33 C          20.9019   72.2647   -6.5884 C.3     1  UNL1        0.1761
     34 O          20.1597   72.1074   -2.5400 O.3     1  UNL1       -0.3775
     35 O          22.1886   73.9430   -3.4868 O.3     1  UNL1       -0.3794
     36 O          23.1083   72.4036   -5.6018 O.3     1  UNL1       -0.3794
     37 O          20.7007   70.9865   -5.9870 O.3     1  UNL1       -0.3258
     38 H          19.9393   71.2234   -2.2163 H       1  UNL1        0.2106
     39 H          21.7622   74.0416   -2.6262 H       1  UNL1        0.2105
     40 H          23.6782   72.9572   -5.0523 H       1  UNL1        0.2105
     41 C          21.4957   72.0809   -7.9868 C.3     1  UNL1        0.1693
     42 O          22.5226   73.0512   -8.1987 O.3     1  UNL1       -0.3794
     43 H          22.8704   72.9010   -9.0885 H       1  UNL1        0.2105
@<TRIPOS>BOND
     1    15    16   ar
     2    15    20   ar
     3    15     6    1
     4    16    17   ar
     5    16    21    2
     6    17    18   ar
     7    17    23    1
     8    18    19   ar
     9    18    22    2
    10    19    20   ar
    11     6     7    1
    12     6    11    1
    13     7     8    1
    14     7     9    1
    15     8    13    1
    16     9    10    1
    17     9    12    1
    18    10    11    1
    19    10     5    1
    20    12    14    1
    21     5     4    1
    22     4     1    1
    23     1     2    2
    24     1     3    1
    25     1    24    1
    26    24    25    1
    27    25    26    2
    28    25    27    1
    29    25    28    1
    30    28    29    1
    31    29    30    1
    32    29    37    1
    33    30    31    1
    34    30    34    1
    35    31    32    1
    36    31    35    1
    37    32    33    1
    38    32    36    1
    39    33    41    1
    40    33    37    1
    41    41    42    1
    42    34    38    1
    43    35    39    1
    44    36    40    1
    45    42    43    1
@<TRIPOS>MOLECULE
GDU
 43 45 0 0 0
SMALL
GASTEIGER

@<TRIPOS>ATOM
      1 P          20.3154   72.1684   -3.1832 P.3     1  UNL1        0.2189
      2 O          19.8765   73.0124   -4.3166 O.2     1  UNL1       -0.5170
      3 O          20.0843   72.9627   -1.8017 O.3     1  UNL1       -0.4371
      4 O          19.4626   70.8048   -3.1673 O.3     1  UNL1       -0.3112
      5 C          18.2323   71.0939   -2.5014 C.3     1  UNL1        0.1811
      6 C          16.7919   70.5819   -5.7557 C.3     1  UNL1        0.2383
      7 C          16.8600   69.1641   -5.1329 C.3     1  UNL1        0.1895
      8 O          15.7963   68.3421   -5.6188 O.3     1  UNL1       -0.3779
      9 C          16.6813   69.4640   -3.6219 C.3     1  UNL1        0.1713
     10 C          17.0708   70.9477   -3.4862 C.3     1  UNL1        0.1764
     11 O          17.4732   71.4081   -4.7879 O.3     1  UNL1       -0.3308
     12 O          15.3228   69.2586   -3.2291 O.3     1  UNL1       -0.3794
     13 H          15.8958   67.4780   -5.1952 H       1  UNL1        0.2106
     14 H          15.1217   68.3272   -3.3926 H       1  UNL1        0.2105
     15 N          17.4873   70.6160   -7.0434 N.ar    1  UNL1       -0.2551
     16 C          16.7879   70.4724   -8.1830 C.ar    1  UNL1        0.3323
     17 N          17.4025   70.5034   -9.3801 N.ar    1  UNL1       -0.2743
     18 C          18.7370   70.6699   -9.4552 C.ar    1  UNL1        0.2626
     19 C          19.4874   70.8167   -8.2629 C.ar    1  UNL1        0.0795
     20 C          18.8453   70.7860   -7.0758 C.ar    1  UNL1        0.0869
     21 O          15.5835   70.3219   -8.1311 O.2     1  UNL1       -0.2464
     22 O          19.2948   70.6934  -10.5382 O.2     1  UNL1       -0.2670
     23 H          16.8815   70.4025  -10.1926 H       1  UNL1        0.1734
     24 O          21.8794   71.8228   -3.3467 O.3     1  UNL1       -0.2703
     25 P          22.5655   72.0751   -1.9129 P.3     1  UNL1        0.2208
     26 O          21.5562   71.8987   -0.8456 O.2     1  UNL1       -0.5170
     27 O          23.7630   71.0197   -1.6981 O.3     1  UNL1       -0.4371
     28 O          23.1540   73.5718   -1.8543 O.3     1  UNL1       -0.2858
     29 C          22.9106   74.1638   -3.1311 C.3     1  UNL1        0.2704
     30 C          24.1744   74.0660   -3.9869 C.3     1  UNL1        0.1967
     31 C          25.3205   74.7839   -3.2676 C.3     1  UNL1        0.1715
     32 C          24.8703   76.2096   -2.9297 C.3     1  UNL1        0.1694
     33 C          23.5536   76.1446   -2.1517 C.3     1  UNL1        0.1761
     34 O          24.5155   72.6923   -4.1817 O.3     1  UNL1       -0.3775
     35 O          26.4679   74.8291   -4.1184 O.3     1  UNL1       -0.3794
     36 O          24.6816   76.9498   -4.1366 O.3     1  UNL1       -0.3794
     37 O          22.5482   75.5316   -2.9574 O.3     1  UNL1       -0.3258
     38 H          23.7648   72.2793   -4.6298 H       1  UNL1        0.2106
     39 H          26.7076   73.9144   -4.3139 H       1  UNL1        0.2105
     40 H          25.5321   76.9595   -4.5948 H       1  UNL1        0.2105
     41 C          23.1127   77.5620   -1.7794 C.3     1  UNL1        0.1693
     42 O          22.9049   77.6401   -0.3681 O.3     1  UNL1       -0.3794
     43 H          22.6296   78.5469   -0.1755 H       1  UNL1        0.2105
@<TRIPOS>BOND
     1    15    16   ar
     2    15    20   ar
     3    15     6    1
     4    16    17   ar
     5    16    21    2
     6    17    18   ar
     7    17    23    1
     8    18    19   ar
     9    18    22    2
    10    19    20   ar
    11     6     7    1
    12     6    11    1
    13     7     8    1
    14     7     9    1
    15     8    13    1
    16     9    10    1
    17     9    12    1
    18    10    11    1
    19    10     5    1
    20    12    14    1
    21     5     4    1
    22     4     1    1
    23     1     2    2
    24     1     3    1
    25     1    24    1
    26    24    25    1
    27    25    26    2
    28    25    27    1
    29    25    28    1
    30    28    29    1
    31    29    30    1
    32    29    37    1
    33    30    31    1
    34    30    34    1
    35    31    32    1
    36    31    35    1
    37    32    33    1
    38    32    36    1
    39    33    41    1
    40    33    37    1
    41    41    42    1
    42    34    38    1
    43    35    39    1
    44    36    40    1
    45    42    43    1
@<TRIPOS>MOLECULE
GDU
 43 45 0 0 0
SMALL
GASTEIGER

@<TRIPOS>ATOM
      1 P          20.8703   71.4715   -1.9399 P.3     1  UNL1        0.2189
      2 O          20.5909   70.8479   -0.6274 O.2     1  UNL1       -0.5170
      3 O          21.7876   70.4825   -2.8194 O.3     1  UNL1       -0.4371
      4 O          19.4852   71.7456   -2.7101 O.3     1  UNL1       -0.3112
      5 C          18.6385   70.6248   -2.4504 C.3     1  UNL1        0.1811
      6 C          17.0050   70.4876   -5.6504 C.3     1  UNL1        0.2383
      7 C          16.9366   69.0341   -5.1159 C.3     1  UNL1        0.1895
      8 O          15.7645   68.3698   -5.5935 O.3     1  UNL1       -0.3779
      9 C          16.8612   69.2549   -3.5827 C.3     1  UNL1        0.1713
     10 C          17.4252   70.6736   -3.3807 C.3     1  UNL1        0.1764
     11 O          17.8196   71.1682   -4.6723 O.3     1  UNL1       -0.3308
     12 O          15.5070   69.1790   -3.1330 O.3     1  UNL1       -0.3794
     13 H          15.7823   67.4747   -5.2268 H       1  UNL1        0.2106
     14 H          15.1926   68.2885   -3.3401 H       1  UNL1        0.2105
     15 N          17.6415   70.5255   -6.9680 N.ar    1  UNL1       -0.2551
     16 C          16.8824   70.4781   -8.0770 C.ar    1  UNL1        0.3323
     17 N          17.4424   70.5150   -9.3004 N.ar    1  UNL1       -0.2743
     18 C          18.7805   70.5904   -9.4338 C.ar    1  UNL1        0.2626
     19 C          19.5931   70.6352   -8.2745 C.ar    1  UNL1        0.0795
     20 C          19.0054   70.6010   -7.0597 C.ar    1  UNL1        0.0869
     21 O          15.6738   70.4105   -7.9725 O.2     1  UNL1       -0.2464
     22 O          19.2886   70.6190  -10.5408 O.2     1  UNL1       -0.2670
     23 H          16.8789   70.4842  -10.0900 H       1  UNL1        0.1734
     24 O          21.6465   72.8644   -1.7168 O.3     1  UNL1       -0.2703
     25 P          21.0994   73.4878   -0.3376 P.3     1  UNL1        0.2208
     26 O          21.2022   74.9629   -0.3882 O.2     1  UNL1       -0.5170
     27 O          19.5591   73.0646   -0.1315 O.3     1  UNL1       -0.4371
     28 O          21.9770   72.9295    0.8904 O.3     1  UNL1       -0.2858
     29 C          23.3467   73.1673    0.5635 C.3     1  UNL1        0.2704
     30 C          24.1388   71.8674    0.7121 C.3     1  UNL1        0.1967
     31 C          24.0060   71.3645    2.1529 C.3     1  UNL1        0.1715
     32 C          24.4188   72.4923    3.1055 C.3     1  UNL1        0.1694
     33 C          23.6034   73.7453    2.7764 C.3     1  UNL1        0.1761
     34 O          23.6215   70.8862   -0.1884 O.3     1  UNL1       -0.3775
     35 O          24.8575   70.2332    2.3470 O.3     1  UNL1       -0.3794
     36 O          25.8113   72.7670    2.9458 O.3     1  UNL1       -0.3794
     37 O          23.8770   74.1600    1.4388 O.3     1  UNL1       -0.3258
     38 H          23.7186   71.2471   -1.0801 H       1  UNL1        0.2106
     39 H          24.5701   69.5561    1.7215 H       1  UNL1        0.2105
     40 H          26.2835   71.9512    3.1572 H       1  UNL1        0.2105
     41 C          23.9834   74.8679    3.7445 C.3     1  UNL1        0.1693
     42 O          24.5417   74.3030    4.9320 O.3     1  UNL1       -0.3794
     43 H          24.7678   75.0417    5.5138 H       1  UNL1        0.2105
@<TRIPOS>BOND
     1    15    16   ar
     2    15    20   ar
     3    15     6    1
     4    16    17   ar
     5    16    21    2
     6    17    18   ar
     7    17    23    1
     8    18    19   ar
     9    18    22    2
    10    19    20   ar
    11     6     7    1
    12     6    11    1
    13     7     8    1
    14     7     9    1
    15     8    13    1
    16     9    10    1
    17     9    12    1
    18    10    11    1
    19    10     5    1
    20    12    14    1
    21     5     4    1
    22     4     1    1
    23     1     2    2
    24     1     3    1
    25     1    24    1
    26    24    25    1
    27    25    26    2
    28    25    27    1
    29    25    28    1
    30    28    29    1
    31    29    30    1
    32    29    37    1
    33    30    31    1
    34    30    34    1
    35    31    32    1
    36    31    35    1
    37    32    33    1
    38    32    36    1
    39    33    41    1
    40    33    37    1
    41    41    42    1
    42    34    38    1
    43    35    39    1
    44    36    40    1
    45    42    43    1
@<TRIPOS>MOLECULE
GDU
 43 45 0 0 0
SMALL
GASTEIGER

@<TRIPOS>ATOM
      1 P          16.4080   70.3352   -2.4263 P.3     1  UNL1        0.2189
      2 O          17.2488   71.1899   -1.5591 O.2     1  UNL1       -0.5170
      3 O          16.3847   68.8353   -1.8410 O.3     1  UNL1       -0.4371
      4 O          14.9099   70.9192   -2.4658 O.3     1  UNL1       -0.3112
      5 C          14.3826   70.7952   -1.1440 C.3     1  UNL1        0.1811
      6 C          12.3365   68.2321    0.3295 C.3     1  UNL1        0.2383
      7 C          11.5791   69.5521    0.6244 C.3     1  UNL1        0.1895
      8 O          10.1681   69.3296    0.6766 O.3     1  UNL1       -0.3779
      9 C          11.9566   70.4240   -0.6013 C.3     1  UNL1        0.1713
     10 C          13.2439   69.7737   -1.1410 C.3     1  UNL1        0.1764
     11 O          13.5721   68.6790   -0.2680 O.3     1  UNL1       -0.3308
     12 O          10.9183   70.3833   -1.5822 O.3     1  UNL1       -0.3794
     13 H           9.7575   70.1855    0.8628 H       1  UNL1        0.2106
     14 H          10.1256   70.7485   -1.1663 H       1  UNL1        0.2105
     15 N          12.5988   67.4975    1.5683 N.ar    1  UNL1       -0.2551
     16 C          12.3689   66.1736    1.6200 C.ar    1  UNL1        0.3323
     17 N          12.6050   65.4742    2.7455 N.ar    1  UNL1       -0.2743
     18 C          13.0687   66.0950    3.8472 C.ar    1  UNL1        0.2626
     19 C          13.3100   67.4902    3.8092 C.ar    1  UNL1        0.0795
     20 C          13.0687   68.1668    2.6662 C.ar    1  UNL1        0.0869
     21 O          11.9510   65.5998    0.6340 O.2     1  UNL1       -0.2464
     22 O          13.2781   65.4635    4.8680 O.2     1  UNL1       -0.2670
     23 H          12.4374   64.5185    2.7636 H       1  UNL1        0.1734
     24 O          17.0184   70.3189   -3.9161 O.3     1  UNL1       -0.2703
     25 P          17.1609   71.8537   -4.3789 P.3     1  UNL1        0.2208
     26 O          15.8705   72.3247   -4.9286 O.2     1  UNL1       -0.5170
     27 O          17.5666   72.7607   -3.1112 O.3     1  UNL1       -0.4371
     28 O          18.3014   71.9712   -5.5082 O.3     1  UNL1       -0.2858
     29 C          18.9174   70.6868   -5.6112 C.3     1  UNL1        0.2704
     30 C          20.4381   70.8476   -5.5814 C.3     1  UNL1        0.1967
     31 C          20.8671   71.7479   -6.7441 C.3     1  UNL1        0.1715
     32 C          20.2974   71.1724   -8.0456 C.3     1  UNL1        0.1694
     33 C          18.7858   70.9888   -7.8889 C.3     1  UNL1        0.1761
     34 O          20.8325   71.4416   -4.3434 O.3     1  UNL1       -0.3775
     35 O          22.2937   71.7889   -6.8185 O.3     1  UNL1       -0.3794
     36 O          20.9108   69.9120   -8.3196 O.3     1  UNL1       -0.3794
     37 O          18.5198   70.0675   -6.8322 O.3     1  UNL1       -0.3258
     38 H          20.5366   70.8461   -3.6414 H       1  UNL1        0.2106
     39 H          22.6077   72.1447   -5.9776 H       1  UNL1        0.2105
     40 H          21.8593   70.0749   -8.4043 H       1  UNL1        0.2105
     41 C          18.2015   70.4465   -9.1952 C.3     1  UNL1        0.1693
     42 O          18.8056   71.1189  -10.3015 O.3     1  UNL1       -0.3794
     43 H          18.4116   70.7485  -11.1033 H       1  UNL1        0.2105
@<TRIPOS>BOND
     1    15    16   ar
     2    15    20   ar
     3    15     6    1
     4    16    17   ar
     5    16    21    2
     6    17    18   ar
     7    17    23    1
     8    18    19   ar
     9    18    22    2
    10    19    20   ar
    11     6     7    1
    12     6    11    1
    13     7     8    1
    14     7     9    1
    15     8    13    1
    16     9    10    1
    17     9    12    1
    18    10    11    1
    19    10     5    1
    20    12    14    1
    21     5     4    1
    22     4     1    1
    23     1     2    2
    24     1     3    1
    25     1    24    1
    26    24    25    1
    27    25    26    2
    28    25    27    1
    29    25    28    1
    30    28    29    1
    31    29    30    1
    32    29    37    1
    33    30    31    1
    34    30    34    1
    35    31    32    1
    36    31    35    1
    37    32    33    1
    38    32    36    1
    39    33    41    1
    40    33    37    1
    41    41    42    1
    42    34    38    1
    43    35    39    1
    44    36    40    1
    45    42    43    1
@<TRIPOS>MOLECULE
GDU
 43 45 0 0 0
SMALL
GASTEIGER

@<TRIPOS>ATOM
      1 P          21.8849   72.3336   -6.2671 P.3     1  UNL1        0.2189
      2 O          23.2917   72.6465   -6.6024 O.2     1  UNL1       -0.5170
      3 O          20.9425   73.5637   -6.7053 O.3     1  UNL1       -0.4371
      4 O          21.4295   71.0038   -7.0488 O.3     1  UNL1       -0.3112
      5 C          20.5388   71.4180   -8.0859 C.3     1  UNL1        0.1811
      6 C          17.3941   70.1564   -6.8830 C.3     1  UNL1        0.2383
      7 C          17.0071   71.2216   -7.9406 C.3     1  UNL1        0.1895
      8 O          15.7752   70.8808   -8.5805 O.3     1  UNL1       -0.3779
      9 C          18.1913   71.1341   -8.9383 C.3     1  UNL1        0.1713
     10 C          19.3241   70.4886   -8.1188 C.3     1  UNL1        0.1764
     11 O          18.8284   70.2854   -6.7842 O.3     1  UNL1       -0.3308
     12 O          17.8435   70.3143  -10.0558 O.3     1  UNL1       -0.3794
     13 H          15.5920   71.5801   -9.2233 H       1  UNL1        0.2106
     14 H          17.0930   70.7396  -10.4924 H       1  UNL1        0.2105
     15 N          16.7601   70.4496   -5.5966 N.ar    1  UNL1       -0.2551
     16 C          16.4043   69.4397   -4.7830 C.ar    1  UNL1        0.3323
     17 N          15.8230   69.6821   -3.5934 N.ar    1  UNL1       -0.2743
     18 C          15.5781   70.9473   -3.2014 C.ar    1  UNL1        0.2626
     19 C          15.9422   72.0208   -4.0506 C.ar    1  UNL1        0.0795
     20 C          16.5277   71.7497   -5.2365 C.ar    1  UNL1        0.0869
     21 O          16.6192   68.2932   -5.1228 O.2     1  UNL1       -0.2464
     22 O          15.0477   71.1675   -2.1269 O.2     1  UNL1       -0.2670
     23 H          15.5767   68.9413   -3.0170 H       1  UNL1        0.1734
     24 O          21.7523   72.0967   -4.6800 O.3     1  UNL1       -0.2703
     25 P          22.8359   73.0540   -3.9733 P.3     1  UNL1        0.2208
     26 O          24.1938   72.5104   -4.1960 O.2     1  UNL1       -0.5170
     27 O          22.7396   74.5320   -4.6061 O.3     1  UNL1       -0.4371
     28 O          22.5388   73.1278   -2.3933 O.3     1  UNL1       -0.2858
     29 C          21.9054   71.8996   -2.0324 C.3     1  UNL1        0.2704
     30 C          20.5310   72.1936   -1.4293 C.3     1  UNL1        0.1967
     31 C          20.7071   73.0925   -0.2015 C.3     1  UNL1        0.1715
     32 C          21.7092   72.4304    0.7508 C.3     1  UNL1        0.1694
     33 C          22.9961   72.1201   -0.0178 C.3     1  UNL1        0.1761
     34 O          19.7156   72.8569   -2.3970 O.3     1  UNL1       -0.3775
     35 O          19.4499   73.2559    0.4583 O.3     1  UNL1       -0.3794
     36 O          21.1513   71.2208    1.2661 O.3     1  UNL1       -0.3794
     37 O          22.7143   71.2114   -1.0812 O.3     1  UNL1       -0.3258
     38 H          19.6379   72.2592   -3.1530 H       1  UNL1        0.2106
     39 H          18.8500   73.6629   -0.1794 H       1  UNL1        0.2105
     40 H          20.3426   71.4634    1.7357 H       1  UNL1        0.2105
     41 C          24.0164   71.4897    0.9327 C.3     1  UNL1        0.1693
     42 O          23.5877   70.1733    1.2854 O.3     1  UNL1       -0.3794
     43 H          24.2567   69.8118    1.8830 H       1  UNL1        0.2105
@<TRIPOS>BOND
     1    15    16   ar
     2    15    20   ar
     3    15     6    1
     4    16    17   ar
     5    16    21    2
     6    17    18   ar
     7    17    23    1
     8    18    19   ar
     9    18    22    2
    10    19    20   ar
    11     6     7    1
    12     6    11    1
    13     7     8    1
    14     7     9    1
    15     8    13    1
    16     9    10    1
    17     9    12    1
    18    10    11    1
    19    10     5    1
    20    12    14    1
    21     5     4    1
    22     4     1    1
    23     1     2    2
    24     1     3    1
    25     1    24    1
    26    24    25    1
    27    25    26    2
    28    25    27    1
    29    25    28    1
    30    28    29    1
    31    29    30    1
    32    29    37    1
    33    30    31    1
    34    30    34    1
    35    31    32    1
    36    31    35    1
    37    32    33    1
    38    32    36    1
    39    33    41    1
    40    33    37    1
    41    41    42    1
    42    34    38    1
    43    35    39    1
    44    36    40    1
    45    42    43    1
@<TRIPOS>MOLECULE
GDU
 43 45 0 0 0
SMALL
GASTEIGER

@<TRIPOS>ATOM
      1 P          22.5693   73.3234   -4.7398 P.3     1  UNL1        0.2189
      2 O          23.0116   74.3895   -5.6657 O.2     1  UNL1       -0.5170
      3 O          21.1146   73.6903   -4.1548 O.3     1  UNL1       -0.4371
      4 O          22.4930   71.9241   -5.5291 O.3     1  UNL1       -0.3112
      5 C          21.9572   72.2073   -6.8226 C.3     1  UNL1        0.1811
      6 C          18.8780   70.4148   -6.3403 C.3     1  UNL1        0.2383
      7 C          18.5061   71.5770   -7.2963 C.3     1  UNL1        0.1895
      8 O          17.4428   71.1961   -8.1724 O.3     1  UNL1       -0.3779
      9 C          19.8254   71.7838   -8.0849 C.3     1  UNL1        0.1713
     10 C          20.9037   71.1577   -7.1812 C.3     1  UNL1        0.1764
     11 O          20.2493   70.6948   -5.9872 O.3     1  UNL1       -0.3308
     12 O          19.7656   71.1106   -9.3439 O.3     1  UNL1       -0.3794
     13 H          17.2603   71.9596   -8.7378 H       1  UNL1        0.2106
     14 H          19.0358   71.5067   -9.8390 H       1  UNL1        0.2105
     15 N          18.0256   70.4299   -5.1503 N.ar    1  UNL1       -0.2551
     16 C          16.8955   69.7013   -5.1302 C.ar    1  UNL1        0.3323
     17 N          16.0960   69.6950   -4.0474 N.ar    1  UNL1       -0.2743
     18 C          16.4123   70.4305   -2.9643 C.ar    1  UNL1        0.2626
     19 C          17.5967   71.2074   -2.9734 C.ar    1  UNL1        0.0795
     20 C          18.3827   71.1923   -4.0708 C.ar    1  UNL1        0.0869
     21 O          16.5973   69.0324   -6.0996 O.2     1  UNL1       -0.2464
     22 O          15.6868   70.4292   -1.9854 O.2     1  UNL1       -0.2670
     23 H          15.2864   69.1599   -4.0486 H       1  UNL1        0.1734
     24 O          23.6190   73.1993   -3.5251 O.3     1  UNL1       -0.2703
     25 P          23.2032   71.8940   -2.6806 P.3     1  UNL1        0.2208
     26 O          21.8736   71.4217   -3.1256 O.2     1  UNL1       -0.5170
     27 O          24.2924   70.7316   -2.9189 O.3     1  UNL1       -0.4371
     28 O          23.1468   72.2620   -1.1149 O.3     1  UNL1       -0.2858
     29 C          23.2037   71.0289   -0.3965 C.3     1  UNL1        0.2704
     30 C          21.9420   70.8770    0.4547 C.3     1  UNL1        0.1967
     31 C          21.8467   72.0619    1.4208 C.3     1  UNL1        0.1715
     32 C          23.1578   72.1581    2.2091 C.3     1  UNL1        0.1694
     33 C          24.3279   72.2149    1.2239 C.3     1  UNL1        0.1761
     34 O          20.7923   70.8551   -0.3932 O.3     1  UNL1       -0.3775
     35 O          20.7557   71.8603    2.3216 O.3     1  UNL1       -0.3794
     36 O          23.2928   71.0140    3.0533 O.3     1  UNL1       -0.3794
     37 O          24.3569   71.0220    0.4417 O.3     1  UNL1       -0.3258
     38 H          20.8983   70.0998   -0.9875 H       1  UNL1        0.2106
     39 H          19.9569   71.7938    1.7833 H       1  UNL1        0.2105
     40 H          22.5338   71.0160    3.6510 H       1  UNL1        0.2105
     41 C          25.6402   72.3457    2.0004 C.3     1  UNL1        0.1693
     42 O          26.1294   71.0446    2.3299 O.3     1  UNL1       -0.3794
     43 H          26.9556   71.1711    2.8165 H       1  UNL1        0.2105
@<TRIPOS>BOND
     1    15    16   ar
     2    15    20   ar
     3    15     6    1
     4    16    17   ar
     5    16    21    2
     6    17    18   ar
     7    17    23    1
     8    18    19   ar
     9    18    22    2
    10    19    20   ar
    11     6     7    1
    12     6    11    1
    13     7     8    1
    14     7     9    1
    15     8    13    1
    16     9    10    1
    17     9    12    1
    18    10    11    1
    19    10     5    1
    20    12    14    1
    21     5     4    1
    22     4     1    1
    23     1     2    2
    24     1     3    1
    25     1    24    1
    26    24    25    1
    27    25    26    2
    28    25    27    1
    29    25    28    1
    30    28    29    1
    31    29    30    1
    32    29    37    1
    33    30    31    1
    34    30    34    1
    35    31    32    1
    36    31    35    1
    37    32    33    1
    38    32    36    1
    39    33    41    1
    40    33    37    1
    41    41    42    1
    42    34    38    1
    43    35    39    1
    44    36    40    1
    45    42    43    1
@<TRIPOS>MOLECULE
GDU
 43 45 0 0 0
SMALL
GASTEIGER

@<TRIPOS>ATOM
      1 P          16.1933   70.5659   -2.4180 P.3     1  UNL1        0.2189
      2 O          16.9684   71.3338   -1.4185 O.2     1  UNL1       -0.5170
      3 O          16.2380   69.0002   -2.0441 O.3     1  UNL1       -0.4371
      4 O          14.6673   71.0738   -2.4199 O.3     1  UNL1       -0.3112
      5 C          14.1629   70.8735   -1.0985 C.3     1  UNL1        0.1811
      6 C          12.2925   68.1567    0.3325 C.3     1  UNL1        0.2383
      7 C          11.4353   69.4150    0.6236 C.3     1  UNL1        0.1895
      8 O          10.0441   69.0883    0.6547 O.3     1  UNL1       -0.3779
      9 C          11.7639   70.3203   -0.5921 C.3     1  UNL1        0.1713
     10 C          13.1032   69.7704   -1.1170 C.3     1  UNL1        0.1764
     11 O          13.4996   68.6976   -0.2452 O.3     1  UNL1       -0.3308
     12 O          10.7450   70.2089   -1.5877 O.3     1  UNL1       -0.3794
     13 H           9.5687   69.9103    0.8396 H       1  UNL1        0.2106
     14 H           9.9218   70.5118   -1.1812 H       1  UNL1        0.2105
     15 N          12.5915   67.4358    1.5709 N.ar    1  UNL1       -0.2551
     16 C          12.4277   66.1021    1.6223 C.ar    1  UNL1        0.3323
     17 N          12.6988   65.4149    2.7476 N.ar    1  UNL1       -0.2743
     18 C          13.1315   66.0578    3.8493 C.ar    1  UNL1        0.2626
     19 C          13.3032   67.4632    3.8115 C.ar    1  UNL1        0.0795
     20 C          13.0281   68.1273    2.6688 C.ar    1  UNL1        0.0869
     21 O          12.0385   65.5084    0.6364 O.2     1  UNL1       -0.2464
     22 O          13.3726   65.4373    4.8698 O.2     1  UNL1       -0.2670
     23 H          12.5790   64.4521    2.7656 H       1  UNL1        0.1734
     24 O          16.8354   70.7860   -3.8781 O.3     1  UNL1       -0.2703
     25 P          17.6994   69.4698   -4.2111 P.3     1  UNL1        0.2208
     26 O          18.2472   68.9090   -2.9563 O.2     1  UNL1       -0.5170
     27 O          16.7560   68.3743   -4.9211 O.3     1  UNL1       -0.4371
     28 O          18.9087   69.8564   -5.2001 O.3     1  UNL1       -0.2858
     29 C          18.5780   71.1155   -5.7876 C.3     1  UNL1        0.2704
     30 C          18.3638   70.9352   -7.2912 C.3     1  UNL1        0.1967
     31 C          19.6437   70.3680   -7.9127 C.3     1  UNL1        0.1715
     32 C          20.8191   71.2723   -7.5251 C.3     1  UNL1        0.1694
     33 C          20.8483   71.4255   -6.0024 C.3     1  UNL1        0.1761
     34 O          17.2800   70.0317   -7.5153 O.3     1  UNL1       -0.3775
     35 O          19.5115   70.3318   -9.3353 O.3     1  UNL1       -0.3794
     36 O          20.6582   72.5533   -8.1360 O.3     1  UNL1       -0.3794
     37 O          19.6395   72.0390   -5.5571 O.3     1  UNL1       -0.3258
     38 H          16.4991   70.4247   -7.1021 H       1  UNL1        0.2106
     39 H          18.7560   69.7635   -9.5317 H       1  UNL1        0.2105
     40 H          20.6395   72.4077   -9.0908 H       1  UNL1        0.2105
     41 C          22.0392   72.2992   -5.6021 C.3     1  UNL1        0.1693
     42 O          23.0280   72.2563   -6.6324 O.3     1  UNL1       -0.3794
     43 H          23.7592   72.8188   -6.3421 H       1  UNL1        0.2105
@<TRIPOS>BOND
     1    15    16   ar
     2    15    20   ar
     3    15     6    1
     4    16    17   ar
     5    16    21    2
     6    17    18   ar
     7    17    23    1
     8    18    19   ar
     9    18    22    2
    10    19    20   ar
    11     6     7    1
    12     6    11    1
    13     7     8    1
    14     7     9    1
    15     8    13    1
    16     9    10    1
    17     9    12    1
    18    10    11    1
    19    10     5    1
    20    12    14    1
    21     5     4    1
    22     4     1    1
    23     1     2    2
    24     1     3    1
    25     1    24    1
    26    24    25    1
    27    25    26    2
    28    25    27    1
    29    25    28    1
    30    28    29    1
    31    29    30    1
    32    29    37    1
    33    30    31    1
    34    30    34    1
    35    31    32    1
    36    31    35    1
    37    32    33    1
    38    32    36    1
    39    33    41    1
    40    33    37    1
    41    41    42    1
    42    34    38    1
    43    35    39    1
    44    36    40    1
    45    42    43    1
@<TRIPOS>MOLECULE
GDU
 43 45 0 0 0
SMALL
GASTEIGER

@<TRIPOS>ATOM
      1 P          23.0280   73.9466   -4.5039 P.3     1  UNL1        0.2189
      2 O          23.5449   74.8162   -5.5838 O.2     1  UNL1       -0.5170
      3 O          23.8078   72.5379   -4.5298 O.3     1  UNL1       -0.4371
      4 O          23.2587   74.6616   -3.0818 O.3     1  UNL1       -0.3112
      5 C          22.2063   74.2216   -2.2219 C.3     1  UNL1        0.1811
      6 C          22.5709   72.2999    0.7949 C.3     1  UNL1        0.2383
      7 C          21.2868   71.7409    0.1303 C.3     1  UNL1        0.1895
      8 O          21.1132   70.3565    0.4409 O.3     1  UNL1       -0.3779
      9 C          21.5907   71.9354   -1.3781 C.3     1  UNL1        0.1713
     10 C          22.6829   73.0208   -1.4029 C.3     1  UNL1        0.1764
     11 O          22.9229   73.4215   -0.0427 O.3     1  UNL1       -0.3308
     12 O          22.0721   70.7185   -1.9517 O.3     1  UNL1       -0.3794
     13 H          20.3007   70.0715   -0.0003 H       1  UNL1        0.2106
     14 H          21.3672   70.0642   -1.8529 H       1  UNL1        0.2105
     15 N          22.2952   72.7438    2.1623 N.ar    1  UNL1       -0.2551
     16 C          21.0487   73.1145    2.5045 C.ar    1  UNL1        0.3323
     17 N          20.7678   73.5233    3.7558 N.ar    1  UNL1       -0.2743
     18 C          21.7388   73.5770    4.6877 C.ar    1  UNL1        0.2626
     19 C          23.0577   73.1950    4.3400 C.ar    1  UNL1        0.0795
     20 C          23.3110   72.7850    3.0790 C.ar    1  UNL1        0.0869
     21 O          20.1622   73.0709    1.6748 O.2     1  UNL1       -0.2464
     22 O          21.4865   73.9515    5.8194 O.2     1  UNL1       -0.2670
     23 H          19.8616   73.7831    3.9865 H       1  UNL1        0.1734
     24 O          21.4542   73.6914   -4.7287 O.3     1  UNL1       -0.2703
     25 P          21.2216   73.5816   -6.3174 P.3     1  UNL1        0.2208
     26 O          21.2944   74.9306   -6.9208 O.2     1  UNL1       -0.5170
     27 O          22.3606   72.6434   -6.9627 O.3     1  UNL1       -0.4371
     28 O          19.7736   72.9411   -6.6058 O.3     1  UNL1       -0.2858
     29 C          19.9406   71.5227   -6.6099 C.3     1  UNL1        0.2704
     30 C          19.3984   70.9500   -7.9204 C.3     1  UNL1        0.1967
     31 C          17.9179   71.3206   -8.0517 C.3     1  UNL1        0.1715
     32 C          17.1839   70.8624   -6.7864 C.3     1  UNL1        0.1694
     33 C          17.8935   71.4439   -5.5612 C.3     1  UNL1        0.1761
     34 O          20.1294   71.4957   -9.0199 O.3     1  UNL1       -0.3775
     35 O          17.3599   70.6704   -9.1955 O.3     1  UNL1       -0.3794
     36 O          17.1942   69.4358   -6.7182 O.3     1  UNL1       -0.3794
     37 O          19.2346   70.9596   -5.5067 O.3     1  UNL1       -0.3258
     38 H          21.0543   71.2444   -8.8923 H       1  UNL1        0.2106
     39 H          17.8581   70.9781   -9.9632 H       1  UNL1        0.2105
     40 H          16.7436   69.1145   -7.5101 H       1  UNL1        0.2105
     41 C          17.1482   71.0204   -4.2935 C.3     1  UNL1        0.1693
     42 O          15.8390   70.5663   -4.6410 O.3     1  UNL1       -0.3794
     43 H          15.4040   70.3088   -3.8165 H       1  UNL1        0.2105
@<TRIPOS>BOND
     1    15    16   ar
     2    15    20   ar
     3    15     6    1
     4    16    17   ar
     5    16    21    2
     6    17    18   ar
     7    17    23    1
     8    18    19   ar
     9    18    22    2
    10    19    20   ar
    11     6     7    1
    12     6    11    1
    13     7     8    1
    14     7     9    1
    15     8    13    1
    16     9    10    1
    17     9    12    1
    18    10    11    1
    19    10     5    1
    20    12    14    1
    21     5     4    1
    22     4     1    1
    23     1     2    2
    24     1     3    1
    25     1    24    1
    26    24    25    1
    27    25    26    2
    28    25    27    1
    29    25    28    1
    30    28    29    1
    31    29    30    1
    32    29    37    1
    33    30    31    1
    34    30    34    1
    35    31    32    1
    36    31    35    1
    37    32    33    1
    38    32    36    1
    39    33    41    1
    40    33    37    1
    41    41    42    1
    42    34    38    1
    43    35    39    1
    44    36    40    1
    45    42    43    1
@<TRIPOS>MOLECULE
GDU
 43 45 0 0 0
SMALL
GASTEIGER

@<TRIPOS>ATOM
      1 P          19.8670   72.0200   -2.2842 P.3     1  UNL1        0.2189
      2 O          20.5383   70.7015   -2.2659 O.2     1  UNL1       -0.5170
      3 O          18.7425   72.0657   -1.1325 O.3     1  UNL1       -0.4371
      4 O          20.9514   73.1784   -2.0216 O.3     1  UNL1       -0.3112
      5 C          22.1504   72.5328   -1.5902 C.3     1  UNL1        0.1811
      6 C          23.3735   72.1549    1.7696 C.3     1  UNL1        0.2383
      7 C          22.7276   73.5639    1.7468 C.3     1  UNL1        0.1895
      8 O          22.1966   73.9023    3.0301 O.3     1  UNL1       -0.3779
      9 C          21.5905   73.3833    0.7078 C.3     1  UNL1        0.1713
     10 C          22.0253   72.1550   -0.1131 C.3     1  UNL1        0.1764
     11 O          23.3028   71.7295    0.3921 O.3     1  UNL1       -0.3308
     12 O          20.3463   73.1383    1.3664 O.3     1  UNL1       -0.3794
     13 H          21.8115   74.7860    2.9483 H       1  UNL1        0.2106
     14 H          20.1585   73.9163    1.9087 H       1  UNL1        0.2105
     15 N          24.7658   72.2305    2.2153 N.ar    1  UNL1       -0.2551
     16 C          25.4901   71.1038    2.3340 C.ar    1  UNL1        0.3323
     17 N          26.7733   71.1460    2.7383 N.ar    1  UNL1       -0.2743
     18 C          27.3524   72.3237    3.0415 C.ar    1  UNL1        0.2626
     19 C          26.5998   73.5181    2.9266 C.ar    1  UNL1        0.0795
     20 C          25.3161   73.4477    2.5148 C.ar    1  UNL1        0.0869
     21 O          24.9816   70.0340    2.0636 O.2     1  UNL1       -0.2464
     22 O          28.5124   72.3624    3.4121 O.2     1  UNL1       -0.2670
     23 H          27.2825   70.3233    2.8142 H       1  UNL1        0.1734
     24 O          19.1732   72.2480   -3.7191 O.3     1  UNL1       -0.2703
     25 P          20.1649   71.6227   -4.8216 P.3     1  UNL1        0.2208
     26 O          21.4622   72.3327   -4.7770 O.2     1  UNL1       -0.5170
     27 O          20.3979   70.0601   -4.5088 O.3     1  UNL1       -0.4371
     28 O          19.5135   71.7846   -6.2843 O.3     1  UNL1       -0.2858
     29 C          18.7301   70.6142   -6.5215 C.3     1  UNL1        0.2704
     30 C          18.8697   70.1963   -7.9862 C.3     1  UNL1        0.1967
     31 C          18.4036   71.3495   -8.8803 C.3     1  UNL1        0.1715
     32 C          16.9909   71.7619   -8.4514 C.3     1  UNL1        0.1694
     33 C          16.9944   72.0632   -6.9507 C.3     1  UNL1        0.1761
     34 O          20.2367   69.8919   -8.2689 O.3     1  UNL1       -0.3775
     35 O          18.3887   70.9236  -10.2444 O.3     1  UNL1       -0.3794
     36 O          16.0781   70.6989   -8.7282 O.3     1  UNL1       -0.3794
     37 O          17.3633   70.8912   -6.2253 O.3     1  UNL1       -0.3258
     38 H          20.4888   69.1678   -7.6799 H       1  UNL1        0.2106
     39 H          19.2917   70.6633  -10.4662 H       1  UNL1        0.2105
     40 H          16.1135   70.5403   -9.6805 H       1  UNL1        0.2105
     41 C          15.5957   72.5093   -6.5186 C.3     1  UNL1        0.1693
     42 O          15.2642   71.8940   -5.2726 O.3     1  UNL1       -0.3794
     43 H          14.3781   72.2009   -5.0359 H       1  UNL1        0.2105
@<TRIPOS>BOND
     1    15    16   ar
     2    15    20   ar
     3    15     6    1
     4    16    17   ar
     5    16    21    2
     6    17    18   ar
     7    17    23    1
     8    18    19   ar
     9    18    22    2
    10    19    20   ar
    11     6     7    1
    12     6    11    1
    13     7     8    1
    14     7     9    1
    15     8    13    1
    16     9    10    1
    17     9    12    1
    18    10    11    1
    19    10     5    1
    20    12    14    1
    21     5     4    1
    22     4     1    1
    23     1     2    2
    24     1     3    1
    25     1    24    1
    26    24    25    1
    27    25    26    2
    28    25    27    1
    29    25    28    1
    30    28    29    1
    31    29    30    1
    32    29    37    1
    33    30    31    1
    34    30    34    1
    35    31    32    1
    36    31    35    1
    37    32    33    1
    38    32    36    1
    39    33    41    1
    40    33    37    1
    41    41    42    1
    42    34    38    1
    43    35    39    1
    44    36    40    1
    45    42    43    1
@<TRIPOS>MOLECULE
GDU
 43 45 0 0 0
SMALL
GASTEIGER

@<TRIPOS>ATOM
      1 P          20.9999   71.2660   -3.2784 P.3     1  UNL1        0.2189
      2 O          21.6694   69.9473   -3.2323 O.2     1  UNL1       -0.5170
      3 O          19.4121   71.0682   -3.0975 O.3     1  UNL1       -0.4371
      4 O          21.5632   72.1961   -2.0934 O.3     1  UNL1       -0.3112
      5 C          22.9278   71.8259   -1.8900 C.3     1  UNL1        0.1811
      6 C          24.0763   71.5821    1.5084 C.3     1  UNL1        0.2383
      7 C          22.6615   72.2056    1.6196 C.3     1  UNL1        0.1895
      8 O          22.0316   71.8255    2.8452 O.3     1  UNL1       -0.3779
      9 C          21.9324   71.5756    0.4044 C.3     1  UNL1        0.1713
     10 C          23.0743   71.1380   -0.5315 C.3     1  UNL1        0.1764
     11 O          24.3120   71.5332    0.0852 O.3     1  UNL1       -0.3308
     12 O          21.1552   70.4496    0.8169 O.3     1  UNL1       -0.3794
     13 H          21.1597   72.2445    2.8523 H       1  UNL1        0.2106
     14 H          20.4976   70.7781    1.4448 H       1  UNL1        0.2105
     15 N          25.0700   72.4318    2.1668 N.ar    1  UNL1       -0.2551
     16 C          26.2247   71.8952    2.5992 C.ar    1  UNL1        0.3323
     17 N          27.1565   72.6551    3.2045 N.ar    1  UNL1       -0.2743
     18 C          26.9411   73.9708    3.3964 C.ar    1  UNL1        0.2626
     19 C          25.7269   74.5486    2.9513 C.ar    1  UNL1        0.0795
     20 C          24.8114   73.7645    2.3435 C.ar    1  UNL1        0.0869
     21 O          26.4333   70.7100    2.4327 O.2     1  UNL1       -0.2464
     22 O          27.7819   74.6585    3.9485 O.2     1  UNL1       -0.2670
     23 H          27.9860   72.2520    3.5064 H       1  UNL1        0.1734
     24 O          21.2936   71.9665   -4.6981 O.3     1  UNL1       -0.2703
     25 P          20.0857   72.9946   -4.9699 P.3     1  UNL1        0.2208
     26 O          19.3453   73.2295   -3.7106 O.2     1  UNL1       -0.5170
     27 O          20.6806   74.3904   -5.5103 O.3     1  UNL1       -0.4371
     28 O          19.0896   72.3748   -6.0716 O.3     1  UNL1       -0.2858
     29 C          19.6751   71.1513   -6.5188 C.3     1  UNL1        0.2704
     30 C          19.8634   71.2015   -8.0358 C.3     1  UNL1        0.1967
     31 C          18.5011   71.4238   -8.7002 C.3     1  UNL1        0.1715
     32 C          17.5301   70.3490   -8.1986 C.3     1  UNL1        0.1694
     33 C          17.5174   70.3649   -6.6680 C.3     1  UNL1        0.1761
     34 O          20.7432   72.2753   -8.3737 O.3     1  UNL1       -0.3775
     35 O          18.6375   71.3264  -10.1195 O.3     1  UNL1       -0.3794
     36 O          17.9541   69.0671   -8.6644 O.3     1  UNL1       -0.3794
     37 O          18.8211   70.0634   -6.1727 O.3     1  UNL1       -0.3258
     38 H          21.5834   72.0978   -7.9293 H       1  UNL1        0.2106
     39 H          19.2638   72.0104  -10.3880 H       1  UNL1        0.2105
     40 H          17.9524   69.1055   -9.6297 H       1  UNL1        0.2105
     41 C          16.5248   69.3181   -6.1571 C.3     1  UNL1        0.1693
     42 O          16.9944   68.7821   -4.9188 O.3     1  UNL1       -0.3794
     43 H          16.3420   68.1288   -4.6313 H       1  UNL1        0.2105
@<TRIPOS>BOND
     1    15    16   ar
     2    15    20   ar
     3    15     6    1
     4    16    17   ar
     5    16    21    2
     6    17    18   ar
     7    17    23    1
     8    18    19   ar
     9    18    22    2
    10    19    20   ar
    11     6     7    1
    12     6    11    1
    13     7     8    1
    14     7     9    1
    15     8    13    1
    16     9    10    1
    17     9    12    1
    18    10    11    1
    19    10     5    1
    20    12    14    1
    21     5     4    1
    22     4     1    1
    23     1     2    2
    24     1     3    1
    25     1    24    1
    26    24    25    1
    27    25    26    2
    28    25    27    1
    29    25    28    1
    30    28    29    1
    31    29    30    1
    32    29    37    1
    33    30    31    1
    34    30    34    1
    35    31    32    1
    36    31    35    1
    37    32    33    1
    38    32    36    1
    39    33    41    1
    40    33    37    1
    41    41    42    1
    42    34    38    1
    43    35    39    1
    44    36    40    1
    45    42    43    1
@<TRIPOS>MOLECULE
GDU
 43 45 0 0 0
SMALL
GASTEIGER

@<TRIPOS>ATOM
      1 P          22.7793   72.4018   -3.8281 P.3     1  UNL1        0.2189
      2 O          22.0435   73.5960   -3.3571 O.2     1  UNL1       -0.5170
      3 O          24.2368   72.8418   -4.3524 O.3     1  UNL1       -0.4371
      4 O          22.9379   71.3562   -2.6164 O.3     1  UNL1       -0.3112
      5 C          23.0705   72.1259   -1.4203 C.3     1  UNL1        0.1811
      6 C          24.6238   71.2179    1.6926 C.3     1  UNL1        0.2383
      7 C          23.2725   71.8567    2.1037 C.3     1  UNL1        0.1895
      8 O          22.7820   71.2770    3.3148 O.3     1  UNL1       -0.3779
      9 C          22.3606   71.4876    0.9048 C.3     1  UNL1        0.1713
     10 C          23.3479   71.1934   -0.2398 C.3     1  UNL1        0.1764
     11 O          24.6743   71.4260    0.2651 O.3     1  UNL1       -0.3308
     12 O          21.5785   70.3311    1.2095 O.3     1  UNL1       -0.3794
     13 H          21.9435   71.7162    3.5145 H       1  UNL1        0.2106
     14 H          21.0255   70.5591    1.9691 H       1  UNL1        0.2105
     15 N          25.7399   71.8972    2.3526 N.ar    1  UNL1       -0.2551
     16 C          25.6154   73.1860    2.7157 C.ar    1  UNL1        0.3323
     17 N          26.6252   73.8327    3.3272 N.ar    1  UNL1       -0.2743
     18 C          27.7866   73.1981    3.5774 C.ar    1  UNL1        0.2626
     19 C          27.9341   71.8422    3.1953 C.ar    1  UNL1        0.0795
     20 C          26.9041   71.2162    2.5874 C.ar    1  UNL1        0.0869
     21 O          24.5736   73.7715    2.4971 O.2     1  UNL1       -0.2464
     22 O          28.7029   73.7841    4.1266 O.2     1  UNL1       -0.2670
     23 H          26.5164   74.7616    3.5862 H       1  UNL1        0.1734
     24 O          21.9637   71.7104   -5.0320 O.3     1  UNL1       -0.2703
     25 P          20.4705   71.4462   -4.4928 P.3     1  UNL1        0.2208
     26 O          20.5291   70.6387   -3.2544 O.2     1  UNL1       -0.5170
     27 O          19.7559   72.8555   -4.1806 O.3     1  UNL1       -0.4371
     28 O          19.6270   70.6544   -5.6115 O.3     1  UNL1       -0.2858
     29 C          18.6925   71.5839   -6.1617 C.3     1  UNL1        0.2704
     30 C          17.2688   71.1143   -5.8585 C.3     1  UNL1        0.1967
     31 C          17.0645   69.7209   -6.4612 C.3     1  UNL1        0.1715
     32 C          17.4318   69.7716   -7.9485 C.3     1  UNL1        0.1694
     33 C          18.8450   70.3417   -8.0931 C.3     1  UNL1        0.1761
     34 O          17.0741   71.0589   -4.4442 O.3     1  UNL1       -0.3775
     35 O          15.6976   69.3302   -6.3148 O.3     1  UNL1       -0.3794
     36 O          16.5020   70.6049   -8.6421 O.3     1  UNL1       -0.3794
     37 O          18.8841   71.6693   -7.5719 O.3     1  UNL1       -0.3258
     38 H          17.2194   71.9535   -4.1074 H       1  UNL1        0.2106
     39 H          15.5083   69.3236   -5.3680 H       1  UNL1        0.2105
     40 H          15.6281   70.2119   -8.5192 H       1  UNL1        0.2105
     41 C          19.2349   70.3647   -9.5727 C.3     1  UNL1        0.1693
     42 O          18.5863   71.4617  -10.2184 O.3     1  UNL1       -0.3794
     43 H          18.8583   71.4409  -11.1462 H       1  UNL1        0.2105
@<TRIPOS>BOND
     1    15    16   ar
     2    15    20   ar
     3    15     6    1
     4    16    17   ar
     5    16    21    2
     6    17    18   ar
     7    17    23    1
     8    18    19   ar
     9    18    22    2
    10    19    20   ar
    11     6     7    1
    12     6    11    1
    13     7     8    1
    14     7     9    1
    15     8    13    1
    16     9    10    1
    17     9    12    1
    18    10    11    1
    19    10     5    1
    20    12    14    1
    21     5     4    1
    22     4     1    1
    23     1     2    2
    24     1     3    1
    25     1    24    1
    26    24    25    1
    27    25    26    2
    28    25    27    1
    29    25    28    1
    30    28    29    1
    31    29    30    1
    32    29    37    1
    33    30    31    1
    34    30    34    1
    35    31    32    1
    36    31    35    1
    37    32    33    1
    38    32    36    1
    39    33    41    1
    40    33    37    1
    41    41    42    1
    42    34    38    1
    43    35    39    1
    44    36    40    1
    45    42    43    1
