@<TRIPOS>MOLECULE
*****
 43 45 0 0 0
SMALL
GASTEIGER

@<TRIPOS>ATOM
      1 P          21.7249   73.8791   -5.7994 P.3     1  UNL1        0.2189
      2 O          20.6408   74.5357   -4.7933 O.co2   1  UNL1       -0.4371
      3 O          22.8569   74.7837   -6.1892 O.2     1  UNL1       -0.5170
      4 O          20.8277   73.3104   -7.0199 O.3     1  UNL1       -0.3112
      5 C          21.4242   72.4101   -7.9354 C.3     1  UNL1        0.1811
      6 O          19.8521   70.6094   -8.1874 O.3     1  UNL1       -0.3308
      7 O          18.4613   72.3518  -10.1928 O.3     1  UNL1       -0.3794
      8 O          16.9207   72.6615   -7.9642 O.3     1  UNL1       -0.3779
      9 C          19.1271   72.7190   -8.9843 C.3     1  UNL1        0.1713
     10 C          18.2841   72.3395   -7.7853 C.3     1  UNL1        0.1895
     11 C          20.3391   71.8120   -8.8214 C.3     1  UNL1        0.1764
     12 C          18.5239   70.8423   -7.6922 C.3     1  UNL1        0.2383
     13 H          17.6832   72.9178  -10.3184 H       1  UNL1        0.2105
     14 H          16.8204   73.6254   -8.0173 H       1  UNL1        0.2106
     15 O          16.1700   69.8147   -6.5177 O.2     1  UNL1       -0.2464
     16 O          18.3036   69.0047   -2.5132 O.2     1  UNL1       -0.2670
     17 N          18.4362   70.3560   -6.3444 N.ar    1  UNL1       -0.2551
     18 N          17.2347   69.4132   -4.5240 N.ar    1  UNL1       -0.2743
     19 C          17.2059   69.8606   -5.8514 C.ar    1  UNL1        0.3323
     20 C          19.5599   70.3711   -5.5271 C.ar    1  UNL1        0.0869
     21 C          19.5719   69.9411   -4.2639 C.ar    1  UNL1        0.0795
     22 C          18.3271   69.4088   -3.6718 C.ar    1  UNL1        0.2626
     23 H          16.3894   69.0657   -4.1579 H       1  UNL1        0.1734
     24 O          22.1742   72.5350   -5.0218 O.3     1  UNL1       -0.2703
     25 P          23.0629   72.3276   -3.6873 P.3     1  UNL1        0.2208
     26 O          24.3380   73.2926   -3.9385 O.co2   1  UNL1       -0.4371
     27 O          23.4169   70.8974   -3.3994 O.2     1  UNL1       -0.5170
     28 O          22.2235   73.0578   -2.5191 O.3     1  UNL1       -0.2858
     29 O          21.4335   71.2298   -1.2371 O.3     1  UNL1       -0.3226
     30 O          20.3561   74.4422    1.1266 O.3     1  UNL1       -0.3794
     31 O          19.9987   74.5499   -1.7708 O.3     1  UNL1       -0.3775
     32 O          22.6404   72.7973    1.8529 O.3     1  UNL1       -0.3792
     33 C          21.1616   73.7242    0.1919 C.3     1  UNL1        0.1718
     34 C          20.3266   73.3739   -1.0400 C.3     1  UNL1        0.1968
     35 C          21.6594   72.4499    0.8775 C.3     1  UNL1        0.1723
     36 C          21.0824   72.4118   -1.9576 C.3     1  UNL1        0.2706
     37 C          22.2885   71.4871   -0.1254 C.3     1  UNL1        0.1830
     38 H          20.0284   75.2563    0.7130 H       1  UNL1        0.2105
     39 H          19.5192   75.1650   -1.1945 H       1  UNL1        0.2106
     40 H          22.2528   73.4100    2.4973 H       1  UNL1        0.2106
     41 O          23.7611   69.9368    0.8387 O.co2   1  UNL1       -0.5466
     42 O          21.5779   69.3108    0.6364 O.co2   1  UNL1       -0.5466
     43 C          22.4682   70.1330    0.4801 C.2     1  UNL1        0.0799
@<TRIPOS>UNITY_ATOM_ATTR
2 1
charge -1
26 1
charge -1
41 1
charge -1
@<TRIPOS>BOND
     1     1     4    1
     2     1    24    1
     3     1     2    1
     4     1     3    2
     5    25    28    1
     6    25    24    1
     7    25    26    1
     8    25    27    2
     9     6    11    1
    10     6    12    1
    11    29    36    1
    12    29    37    1
    13     7     9    1
    14     7    13    1
    15     8    10    1
    16     8    14    1
    17     4     5    1
    18    28    36    1
    19    30    33    1
    20    30    38    1
    21    31    34    1
    22    31    39    1
    23    32    35    1
    24    32    40    1
    25    41    43   ar
    26    15    19    2
    27    42    43   ar
    28    16    22    2
    29    17    12    1
    30    17    19   ar
    31    17    20   ar
    32    18    19   ar
    33    18    22   ar
    34    18    23    1
    35     9    10    1
    36     9    11    1
    37    10    12    1
    38    11     5    1
    39    33    34    1
    40    33    35    1
    41    34    36    1
    42    35    37    1
    43    37    43    1
    44    20    21   ar
    45    21    22   ar
@<TRIPOS>MOLECULE
*****
 43 45 0 0 0
SMALL
GASTEIGER

@<TRIPOS>ATOM
      1 P          22.9565   71.6534   -2.8362 P.3     1  UNL1        0.2189
      2 O          23.7766   72.9685   -3.3018 O.co2   1  UNL1       -0.4371
      3 O          23.5777   70.3461   -3.2322 O.2     1  UNL1       -0.5170
      4 O          21.4579   71.9148   -3.3874 O.3     1  UNL1       -0.3112
      5 C          20.5833   70.8091   -3.5186 C.3     1  UNL1        0.1811
      6 O          18.7577   71.9093   -4.6297 O.3     1  UNL1       -0.3308
      7 O          16.9980   70.7249   -2.5102 O.3     1  UNL1       -0.3794
      8 O          16.5753   69.0647   -4.6318 O.3     1  UNL1       -0.3779
      9 C          18.1501   70.1678   -3.1434 C.3     1  UNL1        0.1713
     10 C          17.8151   69.7368   -4.5556 C.3     1  UNL1        0.1895
     11 C          19.1459   71.2946   -3.3820 C.3     1  UNL1        0.1764
     12 C          17.8079   71.0629   -5.2968 C.3     1  UNL1        0.2383
     13 H          16.3473   70.0237   -2.3476 H       1  UNL1        0.2105
     14 H          16.6313   68.2269   -4.1451 H       1  UNL1        0.2106
     15 O          16.0363   70.3743   -7.3857 O.2     1  UNL1       -0.2464
     16 O          19.3932   70.5567  -10.5387 O.2     1  UNL1       -0.2670
     17 N          18.1924   70.9236   -6.6729 N.ar    1  UNL1       -0.2551
     18 N          17.7101   70.4648   -8.9539 N.ar    1  UNL1       -0.2743
     19 C          17.2247   70.5740   -7.6442 C.ar    1  UNL1        0.3323
     20 C          19.5135   71.1339   -7.0486 C.ar    1  UNL1        0.0869
     21 C          19.9613   71.0262   -8.3011 C.ar    1  UNL1        0.0795
     22 C          19.0146   70.6636   -9.3762 C.ar    1  UNL1        0.2626
     23 H          17.0554   70.2204   -9.6474 H       1  UNL1        0.1734
     24 O          22.8000   71.8690   -1.2419 O.3     1  UNL1       -0.2703
     25 P          22.4727   70.8200   -0.0560 P.3     1  UNL1        0.2208
     26 O          23.7341   69.8064   -0.1002 O.co2   1  UNL1       -0.4371
     27 O          21.1355   70.1487   -0.1793 O.2     1  UNL1       -0.5170
     28 O          22.6756   71.6634    1.3041 O.3     1  UNL1       -0.2858
     29 O          21.8573   72.4107    3.3972 O.3     1  UNL1       -0.3226
     30 O          21.1647   75.7032    0.9997 O.3     1  UNL1       -0.3794
     31 O          20.6131   73.0098    0.0120 O.3     1  UNL1       -0.3775
     32 O          23.3795   75.7093    2.8826 O.3     1  UNL1       -0.3792
     33 C          21.8530   74.5317    1.4376 C.3     1  UNL1        0.1718
     34 C          20.9123   73.3286    1.3660 C.3     1  UNL1        0.1968
     35 C          22.3116   74.7637    2.8791 C.3     1  UNL1        0.1723
     36 C          21.5361   72.1055    2.0396 C.3     1  UNL1        0.2706
     37 C          22.8033   73.4702    3.5223 C.3     1  UNL1        0.1830
     38 H          20.8637   75.5790    0.0858 H       1  UNL1        0.2105
     39 H          20.2171   73.7816   -0.4216 H       1  UNL1        0.2106
     40 H          23.0797   76.5371    2.4757 H       1  UNL1        0.2106
     41 O          21.9817   72.9123    5.6472 O.co2   1  UNL1       -0.5466
     42 O          23.7815   74.3096    5.5618 O.co2   1  UNL1       -0.5466
     43 C          22.9343   73.6300    5.0020 C.2     1  UNL1        0.0799
@<TRIPOS>UNITY_ATOM_ATTR
2 1
charge -1
26 1
charge -1
41 1
charge -1
@<TRIPOS>BOND
     1     1     4    1
     2     1    24    1
     3     1     2    1
     4     1     3    2
     5    25    28    1
     6    25    24    1
     7    25    26    1
     8    25    27    2
     9     6    11    1
    10     6    12    1
    11    29    36    1
    12    29    37    1
    13     7     9    1
    14     7    13    1
    15     8    10    1
    16     8    14    1
    17     4     5    1
    18    28    36    1
    19    30    33    1
    20    30    38    1
    21    31    34    1
    22    31    39    1
    23    32    35    1
    24    32    40    1
    25    41    43   ar
    26    15    19    2
    27    42    43   ar
    28    16    22    2
    29    17    12    1
    30    17    19   ar
    31    17    20   ar
    32    18    19   ar
    33    18    22   ar
    34    18    23    1
    35     9    10    1
    36     9    11    1
    37    10    12    1
    38    11     5    1
    39    33    34    1
    40    33    35    1
    41    34    36    1
    42    35    37    1
    43    37    43    1
    44    20    21   ar
    45    21    22   ar
@<TRIPOS>MOLECULE
*****
 43 45 0 0 0
SMALL
GASTEIGER

@<TRIPOS>ATOM
      1 P          23.0468   72.0318   -3.2131 P.3     1  UNL1        0.2189
      2 O          23.8585   73.0814   -4.1396 O.co2   1  UNL1       -0.4371
      3 O          23.6280   70.6492   -3.1634 O.2     1  UNL1       -0.5170
      4 O          21.5244   72.1350   -3.7513 O.3     1  UNL1       -0.3112
      5 C          20.6975   70.9891   -3.6646 C.3     1  UNL1        0.1811
      6 O          18.7991   71.9856   -4.7513 O.3     1  UNL1       -0.3308
      7 O          17.1537   70.8300   -2.5268 O.3     1  UNL1       -0.3794
      8 O          16.7141   69.0748   -4.5669 O.3     1  UNL1       -0.3779
      9 C          18.3013   70.2856   -3.1788 C.3     1  UNL1        0.1713
     10 C          17.9327   69.7887   -4.5606 C.3     1  UNL1        0.1895
     11 C          19.2503   71.4334   -3.4956 C.3     1  UNL1        0.1764
     12 C          17.8558   71.0836   -5.3513 C.3     1  UNL1        0.2383
     13 H          16.5327   70.1152   -2.3144 H       1  UNL1        0.2105
     14 H          16.8147   68.2590   -4.0507 H       1  UNL1        0.2106
     15 O          16.0159   70.3547   -7.3662 O.2     1  UNL1       -0.2464
     16 O          19.2776   70.4170  -10.6221 O.2     1  UNL1       -0.2670
     17 N          18.1973   70.9025   -6.7338 N.ar    1  UNL1       -0.2551
     18 N          17.6423   70.3854   -8.9857 N.ar    1  UNL1       -0.2743
     19 C          17.1976   70.5356   -7.6656 C.ar    1  UNL1        0.3323
     20 C          19.5083   71.0895   -7.1547 C.ar    1  UNL1        0.0869
     21 C          19.9171   70.9427   -8.4165 C.ar    1  UNL1        0.0795
     22 C          18.9352   70.5598   -9.4522 C.ar    1  UNL1        0.2626
     23 H          16.9648   70.1283   -9.6521 H       1  UNL1        0.1734
     24 O          22.9792   72.7855   -1.7847 O.3     1  UNL1       -0.2703
     25 P          22.5697   74.3022   -1.4032 P.3     1  UNL1        0.2208
     26 O          21.1763   74.5201   -2.1978 O.co2   1  UNL1       -0.4371
     27 O          23.6259   75.3224   -1.7158 O.2     1  UNL1       -0.5170
     28 O          22.1452   74.2328    0.1516 O.3     1  UNL1       -0.2858
     29 O          21.0743   72.1206    0.1843 O.3     1  UNL1       -0.3226
     30 O          21.4959   72.9120    4.2172 O.3     1  UNL1       -0.3794
     31 O          20.6684   75.0210    2.3728 O.3     1  UNL1       -0.3775
     32 O          23.2492   70.9929    2.9157 O.3     1  UNL1       -0.3792
     33 C          21.8546   72.9560    2.8361 C.3     1  UNL1        0.1718
     34 C          20.7425   73.6396    2.0401 C.3     1  UNL1        0.1968
     35 C          22.0486   71.5173    2.3518 C.3     1  UNL1        0.1723
     36 C          20.9823   73.5017    0.5360 C.3     1  UNL1        0.2706
     37 C          22.1543   71.4509    0.8310 C.3     1  UNL1        0.1830
     38 H          21.3673   73.8153    4.5469 H       1  UNL1        0.2105
     39 H          20.5167   75.1159    3.3259 H       1  UNL1        0.2106
     40 H          23.1949   71.0296    3.8834 H       1  UNL1        0.2106
     41 O          20.9322   69.9213   -0.4608 O.co2   1  UNL1       -0.5466
     42 O          22.7622   69.1237    0.6411 O.co2   1  UNL1       -0.5466
     43 C          22.0121   70.0434    0.3503 C.2     1  UNL1        0.0799
@<TRIPOS>UNITY_ATOM_ATTR
2 1
charge -1
26 1
charge -1
41 1
charge -1
@<TRIPOS>BOND
     1     1     4    1
     2     1    24    1
     3     1     2    1
     4     1     3    2
     5    25    28    1
     6    25    24    1
     7    25    26    1
     8    25    27    2
     9     6    11    1
    10     6    12    1
    11    29    36    1
    12    29    37    1
    13     7     9    1
    14     7    13    1
    15     8    10    1
    16     8    14    1
    17     4     5    1
    18    28    36    1
    19    30    33    1
    20    30    38    1
    21    31    34    1
    22    31    39    1
    23    32    35    1
    24    32    40    1
    25    41    43   ar
    26    15    19    2
    27    42    43   ar
    28    16    22    2
    29    17    12    1
    30    17    19   ar
    31    17    20   ar
    32    18    19   ar
    33    18    22   ar
    34    18    23    1
    35     9    10    1
    36     9    11    1
    37    10    12    1
    38    11     5    1
    39    33    34    1
    40    33    35    1
    41    34    36    1
    42    35    37    1
    43    37    43    1
    44    20    21   ar
    45    21    22   ar
@<TRIPOS>MOLECULE
*****
 43 45 0 0 0
SMALL
GASTEIGER

@<TRIPOS>ATOM
      1 P          22.9186   71.6290   -2.4078 P.3     1  UNL1        0.2189
      2 O          23.7326   73.0171   -2.5794 O.co2   1  UNL1       -0.4371
      3 O          23.4321   70.4870   -3.2349 O.2     1  UNL1       -0.5170
      4 O          21.3775   72.0476   -2.6678 O.3     1  UNL1       -0.3112
      5 C          20.6032   71.2602   -3.5538 C.3     1  UNL1        0.1811
      6 O          18.6815   72.1585   -4.6842 O.3     1  UNL1       -0.3308
      7 O          17.0538   70.9829   -2.4571 O.3     1  UNL1       -0.3794
      8 O          16.7109   69.1713   -4.4663 O.3     1  UNL1       -0.3779
      9 C          18.2305   70.4717   -3.0836 C.3     1  UNL1        0.1713
     10 C          17.9001   69.9331   -4.4594 C.3     1  UNL1        0.1895
     11 C          19.1375   71.6498   -3.4120 C.3     1  UNL1        0.1764
     12 C          17.7826   71.2080   -5.2773 C.3     1  UNL1        0.2383
     13 H          16.4587   70.2484   -2.2379 H       1  UNL1        0.2105
     14 H          16.8368   68.3707   -3.9324 H       1  UNL1        0.2106
     15 O          15.9887   70.4148   -7.3093 O.2     1  UNL1       -0.2464
     16 O          19.2996   70.4912  -10.5149 O.2     1  UNL1       -0.2670
     17 N          18.1492   71.0131   -6.6515 N.ar    1  UNL1       -0.2551
     18 N          17.6397   70.4526   -8.9037 N.ar    1  UNL1       -0.2743
     19 C          17.1714   70.6137   -7.5931 C.ar    1  UNL1        0.3323
     20 C          19.4630   71.2188   -7.0547 C.ar    1  UNL1        0.0869
     21 C          19.8943   71.0613   -8.3077 C.ar    1  UNL1        0.0795
     22 C          18.9362   70.6447   -9.3527 C.ar    1  UNL1        0.2626
     23 H          16.9776   70.1730   -9.5767 H       1  UNL1        0.1734
     24 O          22.9625   71.3775   -0.8117 O.3     1  UNL1       -0.2703
     25 P          21.9507   70.5807    0.1655 P.3     1  UNL1        0.2208
     26 O          22.9477   69.8131    1.1839 O.co2   1  UNL1       -0.4371
     27 O          20.9845   69.6812   -0.5496 O.2     1  UNL1       -0.5170
     28 O          21.2582   71.7293    1.0620 O.3     1  UNL1       -0.2858
     29 O          21.5365   74.0714    0.8468 O.3     1  UNL1       -0.3226
     30 O          20.6449   73.6963    4.8633 O.3     1  UNL1       -0.3794
     31 O          22.4627   71.8118    3.5677 O.3     1  UNL1       -0.3775
     32 O          18.6332   74.6757    3.0073 O.3     1  UNL1       -0.3792
     33 C          20.5907   73.3526    3.4788 C.3     1  UNL1        0.1718
     34 C          21.9968   73.0204    2.9786 C.3     1  UNL1        0.1968
     35 C          20.0239   74.5518    2.7157 C.3     1  UNL1        0.1723
     36 C          22.0152   72.8720    1.4566 C.3     1  UNL1        0.2706
     37 C          20.1930   74.3835    1.2085 C.3     1  UNL1        0.1830
     38 H          21.0022   72.9490    5.3685 H       1  UNL1        0.2105
     39 H          22.4534   71.8988    4.5335 H       1  UNL1        0.2106
     40 H          18.5117   74.7832    3.9636 H       1  UNL1        0.2106
     41 O          18.6204   75.8542    0.2782 O.co2   1  UNL1       -0.5466
     42 O          20.8134   76.4681    0.1640 O.co2   1  UNL1       -0.5466
     43 C          19.9463   75.6753    0.4995 C.2     1  UNL1        0.0799
@<TRIPOS>UNITY_ATOM_ATTR
2 1
charge -1
26 1
charge -1
41 1
charge -1
@<TRIPOS>BOND
     1     1     4    1
     2     1    24    1
     3     1     2    1
     4     1     3    2
     5    25    28    1
     6    25    24    1
     7    25    26    1
     8    25    27    2
     9     6    11    1
    10     6    12    1
    11    29    36    1
    12    29    37    1
    13     7     9    1
    14     7    13    1
    15     8    10    1
    16     8    14    1
    17     4     5    1
    18    28    36    1
    19    30    33    1
    20    30    38    1
    21    31    34    1
    22    31    39    1
    23    32    35    1
    24    32    40    1
    25    41    43   ar
    26    15    19    2
    27    42    43   ar
    28    16    22    2
    29    17    12    1
    30    17    19   ar
    31    17    20   ar
    32    18    19   ar
    33    18    22   ar
    34    18    23    1
    35     9    10    1
    36     9    11    1
    37    10    12    1
    38    11     5    1
    39    33    34    1
    40    33    35    1
    41    34    36    1
    42    35    37    1
    43    37    43    1
    44    20    21   ar
    45    21    22   ar
@<TRIPOS>MOLECULE
*****
 43 45 0 0 0
SMALL
GASTEIGER

@<TRIPOS>ATOM
      1 P          22.0909   70.4502   -0.1644 P.3     1  UNL1        0.2189
      2 O          20.7850   69.7486   -0.8133 O.co2   1  UNL1       -0.4371
      3 O          23.2529   69.5305    0.0715 O.2     1  UNL1       -0.5170
      4 O          21.5156   71.2056    1.1457 O.3     1  UNL1       -0.3112
      5 C          22.4345   71.8226    2.0285 C.3     1  UNL1        0.1811
      6 O          22.6690   72.7913    4.2158 O.3     1  UNL1       -0.3308
      7 O          19.7040   73.2319    4.1349 O.3     1  UNL1       -0.3794
      8 O          20.6901   75.7015    3.5311 O.3     1  UNL1       -0.3779
      9 C          20.6589   73.3131    3.0765 C.3     1  UNL1        0.1713
     10 C          21.4816   74.5771    3.2087 C.3     1  UNL1        0.1895
     11 C          21.7032   72.2282    3.3017 C.3     1  UNL1        0.1764
     12 C          22.4517   74.2075    4.3178 C.3     1  UNL1        0.2383
     13 H          19.0264   73.9156    4.0126 H       1  UNL1        0.2105
     14 H          20.0898   75.8964    2.7938 H       1  UNL1        0.2106
     15 O          23.8280   75.4293    6.4602 O.2     1  UNL1       -0.2464
     16 O          27.2795   76.7725    3.7167 O.2     1  UNL1       -0.2670
     17 N          23.7119   74.8835    4.1914 N.ar    1  UNL1       -0.2551
     18 N          25.5452   76.0980    5.0915 N.ar    1  UNL1       -0.2743
     19 C          24.3189   75.4637    5.3303 C.ar    1  UNL1        0.3323
     20 C          24.3338   74.9652    2.9515 C.ar    1  UNL1        0.0869
     21 C          25.5027   75.5731    2.7396 C.ar    1  UNL1        0.0795
     22 C          26.2027   76.2057    3.8767 C.ar    1  UNL1        0.2626
     23 H          25.9860   76.5112    5.8689 H       1  UNL1        0.1734
     24 O          22.3924   71.6684   -1.1832 O.3     1  UNL1       -0.2703
     25 P          22.5096   71.6995   -2.7953 P.3     1  UNL1        0.2208
     26 O          23.4873   70.4507   -3.1192 O.co2   1  UNL1       -0.4371
     27 O          22.9777   73.0123   -3.3535 O.2     1  UNL1       -0.5170
     28 O          21.0590   71.2279   -3.3204 O.3     1  UNL1       -0.2858
     29 O          19.6501   71.9293   -5.0901 O.3     1  UNL1       -0.3226
     30 O          16.9137   71.1559   -2.0932 O.3     1  UNL1       -0.3794
     31 O          19.4191   72.5326   -1.4916 O.3     1  UNL1       -0.3775
     32 O          17.2339   69.2850   -4.2951 O.3     1  UNL1       -0.3792
     33 C          18.1230   70.9794   -2.8309 C.3     1  UNL1        0.1718
     34 C          18.9328   72.2759   -2.8040 C.3     1  UNL1        0.1968
     35 C          17.7503   70.6144   -4.2696 C.3     1  UNL1        0.1723
     36 C          20.1174   72.2012   -3.7683 C.3     1  UNL1        0.2706
     37 C          18.9624   70.6845   -5.1940 C.3     1  UNL1        0.1830
     38 H          17.1256   71.3886   -1.1754 H       1  UNL1        0.2105
     39 H          18.6727   72.5810   -0.8744 H       1  UNL1        0.2106
     40 H          16.4620   69.2268   -3.7106 H       1  UNL1        0.2106
     41 O          19.6062   70.8319   -7.4446 O.co2   1  UNL1       -0.5466
     42 O          17.3933   70.4879   -7.0162 O.co2   1  UNL1       -0.5466
     43 C          18.5395   70.6534   -6.6266 C.2     1  UNL1        0.0799
@<TRIPOS>UNITY_ATOM_ATTR
2 1
charge -1
26 1
charge -1
41 1
charge -1
@<TRIPOS>BOND
     1     1     4    1
     2     1    24    1
     3     1     2    1
     4     1     3    2
     5    25    28    1
     6    25    24    1
     7    25    26    1
     8    25    27    2
     9     6    11    1
    10     6    12    1
    11    29    36    1
    12    29    37    1
    13     7     9    1
    14     7    13    1
    15     8    10    1
    16     8    14    1
    17     4     5    1
    18    28    36    1
    19    30    33    1
    20    30    38    1
    21    31    34    1
    22    31    39    1
    23    32    35    1
    24    32    40    1
    25    41    43   ar
    26    15    19    2
    27    42    43   ar
    28    16    22    2
    29    17    12    1
    30    17    19   ar
    31    17    20   ar
    32    18    19   ar
    33    18    22   ar
    34    18    23    1
    35     9    10    1
    36     9    11    1
    37    10    12    1
    38    11     5    1
    39    33    34    1
    40    33    35    1
    41    34    36    1
    42    35    37    1
    43    37    43    1
    44    20    21   ar
    45    21    22   ar
@<TRIPOS>MOLECULE
*****
 43 45 0 0 0
SMALL
GASTEIGER

@<TRIPOS>ATOM
      1 P          22.4660   73.1677   -3.8085 P.3     1  UNL1        0.2189
      2 O          21.6387   73.4096   -5.1781 O.co2   1  UNL1       -0.4371
      3 O          23.8561   72.6338   -3.9939 O.2     1  UNL1       -0.5170
      4 O          21.4760   72.2537   -2.9128 O.3     1  UNL1       -0.3112
      5 C          20.6966   71.2655   -3.5614 C.3     1  UNL1        0.1811
      6 O          18.7372   72.1269   -4.6553 O.3     1  UNL1       -0.3308
      7 O          17.1691   70.8667   -2.4316 O.3     1  UNL1       -0.3794
      8 O          16.8560   69.0805   -4.4682 O.3     1  UNL1       -0.3779
      9 C          18.3530   70.4006   -3.0794 C.3     1  UNL1        0.1713
     10 C          18.0228   69.8763   -4.4608 C.3     1  UNL1        0.1895
     11 C          19.2219   71.6100   -3.3970 C.3     1  UNL1        0.1764
     12 C          17.8595   71.1609   -5.2551 C.3     1  UNL1        0.2383
     13 H          16.5980   70.1116   -2.2188 H       1  UNL1        0.2105
     14 H          17.0109   68.2748   -3.9497 H       1  UNL1        0.2106
     15 O          16.0644   70.3592   -7.2827 O.2     1  UNL1       -0.2464
     16 O          19.3377   70.5776  -10.5203 O.2     1  UNL1       -0.2670
     17 N          18.2161   71.0003   -6.6364 N.ar    1  UNL1       -0.2551
     18 N          17.6967   70.4677   -8.8931 N.ar    1  UNL1       -0.2743
     19 C          17.2386   70.5932   -7.5749 C.ar    1  UNL1        0.3323
     20 C          19.5198   71.2465   -7.0492 C.ar    1  UNL1        0.0869
     21 C          19.9415   71.1227   -8.3093 C.ar    1  UNL1        0.0795
     22 C          18.9831   70.7007   -9.3518 C.ar    1  UNL1        0.2626
     23 H          17.0347   70.1835   -9.5642 H       1  UNL1        0.1734
     24 O          22.3897   74.6082   -3.0792 O.3     1  UNL1       -0.2703
     25 P          23.1023   75.1568   -1.7357 P.3     1  UNL1        0.2208
     26 O          22.4896   76.6464   -1.5739 O.co2   1  UNL1       -0.4371
     27 O          24.6024   75.1055   -1.7694 O.2     1  UNL1       -0.5170
     28 O          22.4300   74.3079   -0.5400 O.3     1  UNL1       -0.2858
     29 O          23.6856   74.6032    1.4463 O.3     1  UNL1       -0.3226
     30 O          20.8009   71.9098    2.6678 O.3     1  UNL1       -0.3794
     31 O          22.0962   71.6140    0.0661 O.3     1  UNL1       -0.3775
     32 O          20.6113   74.7042    3.4464 O.3     1  UNL1       -0.3792
     33 C          21.3317   72.9956    1.9080 C.3     1  UNL1        0.1718
     34 C          22.5252   72.5093    1.0854 C.3     1  UNL1        0.1968
     35 C          21.7693   74.0880    2.8864 C.3     1  UNL1        0.1723
     36 C          23.2595   73.6849    0.4391 C.3     1  UNL1        0.2706
     37 C          22.6028   75.1592    2.1889 C.3     1  UNL1        0.1830
     38 H          20.5161   71.2033    2.0670 H       1  UNL1        0.2105
     39 H          21.6292   70.8658    0.4691 H       1  UNL1        0.2106
     40 H          20.0720   74.0332    3.8932 H       1  UNL1        0.2106
     41 O          24.6288   76.0581    2.9562 O.co2   1  UNL1       -0.5466
     42 O          22.7381   76.6352    4.0927 O.co2   1  UNL1       -0.5466
     43 C          23.2931   76.0287    3.1887 C.2     1  UNL1        0.0799
@<TRIPOS>UNITY_ATOM_ATTR
2 1
charge -1
26 1
charge -1
41 1
charge -1
@<TRIPOS>BOND
     1     1     4    1
     2     1    24    1
     3     1     2    1
     4     1     3    2
     5    25    28    1
     6    25    24    1
     7    25    26    1
     8    25    27    2
     9     6    11    1
    10     6    12    1
    11    29    36    1
    12    29    37    1
    13     7     9    1
    14     7    13    1
    15     8    10    1
    16     8    14    1
    17     4     5    1
    18    28    36    1
    19    30    33    1
    20    30    38    1
    21    31    34    1
    22    31    39    1
    23    32    35    1
    24    32    40    1
    25    41    43   ar
    26    15    19    2
    27    42    43   ar
    28    16    22    2
    29    17    12    1
    30    17    19   ar
    31    17    20   ar
    32    18    19   ar
    33    18    22   ar
    34    18    23    1
    35     9    10    1
    36     9    11    1
    37    10    12    1
    38    11     5    1
    39    33    34    1
    40    33    35    1
    41    34    36    1
    42    35    37    1
    43    37    43    1
    44    20    21   ar
    45    21    22   ar
@<TRIPOS>MOLECULE
*****
 43 45 0 0 0
SMALL
GASTEIGER

@<TRIPOS>ATOM
      1 P          20.8096   72.7600   -4.6190 P.3     1  UNL1        0.2189
      2 O          21.4992   73.7350   -3.5269 O.co2   1  UNL1       -0.4371
      3 O          21.5278   72.6731   -5.9337 O.2     1  UNL1       -0.5170
      4 O          19.2776   73.2759   -4.6880 O.3     1  UNL1       -0.3112
      5 C          18.5842   73.4996   -3.4740 C.3     1  UNL1        0.1811
      6 O          16.8055   73.0609   -5.0302 O.3     1  UNL1       -0.3308
      7 O          15.5680   71.4007   -2.8613 O.3     1  UNL1       -0.3794
      8 O          16.7094   69.5205   -4.4731 O.3     1  UNL1       -0.3779
      9 C          16.9461   71.5735   -3.1920 C.3     1  UNL1        0.1713
     10 C          17.2812   70.8118   -4.4569 C.3     1  UNL1        0.1895
     11 C          17.1471   73.0185   -3.6277 C.3     1  UNL1        0.1764
     12 C          16.7079   71.7187   -5.5324 C.3     1  UNL1        0.2383
     13 H          15.4151   70.4847   -2.5799 H       1  UNL1        0.2105
     14 H          17.1074   68.9819   -3.7706 H       1  UNL1        0.2106
     15 O          15.9405   73.0027   -7.9280 O.2     1  UNL1       -0.2464
     16 O          19.5640   71.3033  -10.2141 O.2     1  UNL1       -0.2670
     17 N          17.4325   71.6288   -6.7684 N.ar    1  UNL1       -0.2551
     18 N          17.7453   72.1543   -9.0646 N.ar    1  UNL1       -0.2743
     19 C          16.9614   72.3126   -7.9141 C.ar    1  UNL1        0.3323
     20 C          18.5959   70.8720   -6.8369 C.ar    1  UNL1        0.0869
     21 C          19.3325   70.7307   -7.9406 C.ar    1  UNL1        0.0795
     22 C          18.9092   71.4118   -9.1817 C.ar    1  UNL1        0.2626
     23 H          17.4363   72.6193   -9.8755 H       1  UNL1        0.1734
     24 O          20.6852   71.3571   -3.8257 O.3     1  UNL1       -0.2703
     25 P          21.6720   70.6507   -2.7575 P.3     1  UNL1        0.2208
     26 O          23.1403   70.8916   -3.3948 O.co2   1  UNL1       -0.4371
     27 O          21.3478   69.2118   -2.4777 O.2     1  UNL1       -0.5170
     28 O          21.6277   71.6111   -1.4621 O.3     1  UNL1       -0.2858
     29 O          23.3158   72.8980   -0.4116 O.3     1  UNL1       -0.3226
     30 O          21.0236   71.7216    2.8179 O.3     1  UNL1       -0.3794
     31 O          21.6454   69.8335    0.6771 O.3     1  UNL1       -0.3775
     32 O          20.8391   74.4426    1.8115 O.3     1  UNL1       -0.3792
     33 C          21.2704   72.0980    1.4631 C.3     1  UNL1        0.1718
     34 C          22.2516   71.1119    0.8287 C.3     1  UNL1        0.1968
     35 C          21.8608   73.5098    1.4646 C.3     1  UNL1        0.1723
     36 C          22.7170   71.6080   -0.5410 C.3     1  UNL1        0.2706
     37 C          22.4165   73.8827    0.0932 C.3     1  UNL1        0.1830
     38 H          20.6480   70.8274    2.8419 H       1  UNL1        0.2105
     39 H          21.3475   69.5128    1.5424 H       1  UNL1        0.2106
     40 H          20.4769   74.2164    2.6824 H       1  UNL1        0.2106
     41 O          22.5084   76.2250    0.1746 O.co2   1  UNL1       -0.5466
     42 O          24.4918   75.1029    0.2536 O.co2   1  UNL1       -0.5466
     43 C          23.2720   75.1044    0.1817 C.2     1  UNL1        0.0799
@<TRIPOS>UNITY_ATOM_ATTR
2 1
charge -1
26 1
charge -1
41 1
charge -1
@<TRIPOS>BOND
     1     1     4    1
     2     1    24    1
     3     1     2    1
     4     1     3    2
     5    25    28    1
     6    25    24    1
     7    25    26    1
     8    25    27    2
     9     6    11    1
    10     6    12    1
    11    29    36    1
    12    29    37    1
    13     7     9    1
    14     7    13    1
    15     8    10    1
    16     8    14    1
    17     4     5    1
    18    28    36    1
    19    30    33    1
    20    30    38    1
    21    31    34    1
    22    31    39    1
    23    32    35    1
    24    32    40    1
    25    41    43   ar
    26    15    19    2
    27    42    43   ar
    28    16    22    2
    29    17    12    1
    30    17    19   ar
    31    17    20   ar
    32    18    19   ar
    33    18    22   ar
    34    18    23    1
    35     9    10    1
    36     9    11    1
    37    10    12    1
    38    11     5    1
    39    33    34    1
    40    33    35    1
    41    34    36    1
    42    35    37    1
    43    37    43    1
    44    20    21   ar
    45    21    22   ar
@<TRIPOS>MOLECULE
*****
 43 45 0 0 0
SMALL
GASTEIGER

@<TRIPOS>ATOM
      1 P          21.5565   73.3442   -5.3077 P.3     1  UNL1        0.2189
      2 O          20.6657   74.6094   -5.7815 O.co2   1  UNL1       -0.4371
      3 O          22.5561   72.8598   -6.3166 O.2     1  UNL1       -0.5170
      4 O          20.4604   72.2558   -4.8262 O.3     1  UNL1       -0.3112
      5 C          20.0395   72.2725   -3.4745 C.3     1  UNL1        0.1811
      6 O          18.0335   72.6516   -4.7433 O.3     1  UNL1       -0.3308
      7 O          16.5989   71.1698   -2.5667 O.3     1  UNL1       -0.3794
      8 O          16.8289   69.2821   -4.5210 O.3     1  UNL1       -0.3779
      9 C          17.9011   70.9442   -3.1068 C.3     1  UNL1        0.1713
     10 C          17.7973   70.3092   -4.4773 C.3     1  UNL1        0.1895
     11 C          18.5172   72.2987   -3.4292 C.3     1  UNL1        0.1764
     12 C          17.4287   71.4979   -5.3486 C.3     1  UNL1        0.2383
     13 H          16.1852   70.3185   -2.3529 H       1  UNL1        0.2105
     14 H          17.1096   68.5486   -3.9508 H       1  UNL1        0.2106
     15 O          16.1796   72.6222   -7.6184 O.2     1  UNL1       -0.2464
     16 O          19.3921   70.9241  -10.4538 O.2     1  UNL1       -0.2670
     17 N          17.9173   71.3651   -6.6919 N.ar    1  UNL1       -0.2551
     18 N          17.7803   71.7745   -9.0285 N.ar    1  UNL1       -0.2743
     19 C          17.2147   71.9688   -7.7614 C.ar    1  UNL1        0.3323
     20 C          19.0801   70.6455   -6.9390 C.ar    1  UNL1        0.0869
     21 C          19.6070   70.4691   -8.1523 C.ar    1  UNL1        0.0795
     22 C          18.9340   71.0667   -9.3242 C.ar    1  UNL1        0.2626
     23 H          17.3077   72.1837   -9.7891 H       1  UNL1        0.1734
     24 O          22.1988   73.8539   -3.9146 O.3     1  UNL1       -0.2703
     25 P          23.4510   73.2974   -3.0567 P.3     1  UNL1        0.2208
     26 O          23.5560   71.7491   -3.5172 O.co2   1  UNL1       -0.4371
     27 O          23.3178   73.4940   -1.5743 O.2     1  UNL1       -0.5170
     28 O          24.7435   74.0059   -3.7125 O.3     1  UNL1       -0.2858
     29 O          26.6761   75.1731   -2.9973 O.3     1  UNL1       -0.3226
     30 O          25.3120   77.5975   -6.0517 O.3     1  UNL1       -0.3794
     31 O          23.4373   76.4234   -4.1435 O.3     1  UNL1       -0.3775
     32 O          27.6139   75.8731   -6.4748 O.3     1  UNL1       -0.3792
     33 C          25.5323   76.3651   -5.3657 C.3     1  UNL1        0.1718
     34 C          24.8526   76.4127   -3.9970 C.3     1  UNL1        0.1968
     35 C          27.0424   76.1774   -5.2038 C.3     1  UNL1        0.1723
     36 C          25.2560   75.2094   -3.1437 C.3     1  UNL1        0.2706
     37 C          27.3621   75.0383   -4.2400 C.3     1  UNL1        0.1830
     38 H          24.3589   77.7382   -6.1661 H       1  UNL1        0.2105
     39 H          23.1744   77.1842   -4.6842 H       1  UNL1        0.2106
     40 H          27.4176   76.5904   -7.0976 H       1  UNL1        0.2106
     41 O          29.3482   76.2803   -4.1216 O.co2   1  UNL1       -0.5466
     42 O          29.4050   74.1483   -3.3150 O.co2   1  UNL1       -0.5466
     43 C          28.7998   75.0736   -3.8352 C.2     1  UNL1        0.0799
@<TRIPOS>UNITY_ATOM_ATTR
2 1
charge -1
26 1
charge -1
41 1
charge -1
@<TRIPOS>BOND
     1     1     4    1
     2     1    24    1
     3     1     2    1
     4     1     3    2
     5    25    28    1
     6    25    24    1
     7    25    26    1
     8    25    27    2
     9     6    11    1
    10     6    12    1
    11    29    36    1
    12    29    37    1
    13     7     9    1
    14     7    13    1
    15     8    10    1
    16     8    14    1
    17     4     5    1
    18    28    36    1
    19    30    33    1
    20    30    38    1
    21    31    34    1
    22    31    39    1
    23    32    35    1
    24    32    40    1
    25    41    43   ar
    26    15    19    2
    27    42    43   ar
    28    16    22    2
    29    17    12    1
    30    17    19   ar
    31    17    20   ar
    32    18    19   ar
    33    18    22   ar
    34    18    23    1
    35     9    10    1
    36     9    11    1
    37    10    12    1
    38    11     5    1
    39    33    34    1
    40    33    35    1
    41    34    36    1
    42    35    37    1
    43    37    43    1
    44    20    21   ar
    45    21    22   ar
@<TRIPOS>MOLECULE
*****
 43 45 0 0 0
SMALL
GASTEIGER

@<TRIPOS>ATOM
      1 P          21.5592   73.7075   -2.0073 P.3     1  UNL1        0.2189
      2 O          22.8720   72.9625   -1.4238 O.co2   1  UNL1       -0.4371
      3 O          20.8434   74.5900   -1.0272 O.2     1  UNL1       -0.5170
      4 O          20.6811   72.5062   -2.6427 O.3     1  UNL1       -0.3112
      5 C          19.4626   72.8277   -3.2881 C.3     1  UNL1        0.1811
      6 O          17.6997   71.5152   -4.2613 O.3     1  UNL1       -0.3308
      7 O          18.1884   69.5550   -2.0453 O.3     1  UNL1       -0.3794
      8 O          19.4735   68.4013   -4.1556 O.3     1  UNL1       -0.3779
      9 C          19.1242   70.3620   -2.7607 C.3     1  UNL1        0.1713
     10 C          19.3380   69.8070   -4.1531 C.3     1  UNL1        0.1895
     11 C          18.4634   71.7028   -3.0501 C.3     1  UNL1        0.1764
     12 C          18.0859   70.2751   -4.8748 C.3     1  UNL1        0.2383
     13 H          18.5882   68.6929   -1.8490 H       1  UNL1        0.2105
     14 H          20.2853   68.1539   -3.6847 H       1  UNL1        0.2106
     15 O          16.0807   70.1176   -6.8575 O.2     1  UNL1       -0.2464
     16 O          19.0648   71.1466  -10.2162 O.2     1  UNL1       -0.2670
     17 N          18.3112   70.4973   -6.2751 N.ar    1  UNL1       -0.2551
     18 N          17.5691   70.6293   -8.5285 N.ar    1  UNL1       -0.2743
     19 C          17.2354   70.3936   -7.1883 C.ar    1  UNL1        0.3323
     20 C          19.5849   70.8153   -6.7307 C.ar    1  UNL1        0.0869
     21 C          19.8875   71.0373   -8.0113 C.ar    1  UNL1        0.0795
     22 C          18.8208   70.9478   -9.0299 C.ar    1  UNL1        0.2626
     23 H          16.8370   70.5608   -9.1833 H       1  UNL1        0.1734
     24 O          22.1267   74.4729   -3.3130 O.3     1  UNL1       -0.2703
     25 P          23.5058   74.2880   -4.1361 P.3     1  UNL1        0.2208
     26 O          23.6099   72.6840   -4.3277 O.co2   1  UNL1       -0.4371
     27 O          24.7033   74.9113   -3.4792 O.2     1  UNL1       -0.5170
     28 O          23.1810   74.8541   -5.6114 O.3     1  UNL1       -0.2858
     29 O          21.2073   75.7377   -6.5773 O.3     1  UNL1       -0.3226
     30 O          22.8656   73.7018   -9.7669 O.3     1  UNL1       -0.3794
     31 O          22.8681   72.5219   -7.0944 O.3     1  UNL1       -0.3775
     32 O          23.0238   76.6021   -9.6457 O.3     1  UNL1       -0.3792
     33 C          22.8762   74.4582   -8.5562 C.3     1  UNL1        0.1718
     34 C          22.1370   73.6855   -7.4635 C.3     1  UNL1        0.1968
     35 C          22.1804   75.7940   -8.8270 C.3     1  UNL1        0.1723
     36 C          21.9276   74.5563   -6.2238 C.3     1  UNL1        0.2706
     37 C          21.8940   76.5459   -7.5304 C.3     1  UNL1        0.1830
     38 H          23.3026   72.8484   -9.6190 H       1  UNL1        0.2105
     39 H          23.0048   71.9649   -7.8763 H       1  UNL1        0.2106
     40 H          23.2139   76.1349  -10.4743 H       1  UNL1        0.2106
     41 O          20.2957   77.5082   -8.9520 O.co2   1  UNL1       -0.5466
     42 O          20.7524   78.6059   -7.0064 O.co2   1  UNL1       -0.5466
     43 C          20.9379   77.6691   -7.7686 C.2     1  UNL1        0.0799
@<TRIPOS>UNITY_ATOM_ATTR
2 1
charge -1
26 1
charge -1
41 1
charge -1
@<TRIPOS>BOND
     1     1     4    1
     2     1    24    1
     3     1     2    1
     4     1     3    2
     5    25    28    1
     6    25    24    1
     7    25    26    1
     8    25    27    2
     9     6    11    1
    10     6    12    1
    11    29    36    1
    12    29    37    1
    13     7     9    1
    14     7    13    1
    15     8    10    1
    16     8    14    1
    17     4     5    1
    18    28    36    1
    19    30    33    1
    20    30    38    1
    21    31    34    1
    22    31    39    1
    23    32    35    1
    24    32    40    1
    25    41    43   ar
    26    15    19    2
    27    42    43   ar
    28    16    22    2
    29    17    12    1
    30    17    19   ar
    31    17    20   ar
    32    18    19   ar
    33    18    22   ar
    34    18    23    1
    35     9    10    1
    36     9    11    1
    37    10    12    1
    38    11     5    1
    39    33    34    1
    40    33    35    1
    41    34    36    1
    42    35    37    1
    43    37    43    1
    44    20    21   ar
    45    21    22   ar
@<TRIPOS>MOLECULE
*****
 43 45 0 0 0
SMALL
GASTEIGER

@<TRIPOS>ATOM
      1 P          22.2989   71.0374   -2.4869 P.3     1  UNL1        0.2189
      2 O          21.4105   69.7858   -1.9740 O.co2   1  UNL1       -0.4371
      3 O          23.5480   70.6652   -3.2306 O.2     1  UNL1       -0.5170
      4 O          22.5138   71.9325   -1.1563 O.3     1  UNL1       -0.3112
      5 C          21.4446   72.7452   -0.7081 C.3     1  UNL1        0.1811
      6 O          21.0621   74.8431    0.4009 O.3     1  UNL1       -0.3308
      7 O          23.9191   75.4903   -0.2398 O.3     1  UNL1       -0.3794
      8 O          24.0494   74.7494    2.3813 O.3     1  UNL1       -0.3779
      9 C          23.3340   74.2371    0.1146 C.3     1  UNL1        0.1713
     10 C          23.0092   74.2097    1.5931 C.3     1  UNL1        0.1895
     11 C          21.9503   74.1693   -0.5170 C.3     1  UNL1        0.1764
     12 C          21.7390   75.0409    1.6524 C.3     1  UNL1        0.2383
     13 H          24.8042   75.5568    0.1524 H       1  UNL1        0.2105
     14 H          24.8353   74.1844    2.3102 H       1  UNL1        0.2106
     15 O          21.4234   72.3763    2.5337 O.2     1  UNL1       -0.2464
     16 O          18.3775   73.6128    5.7644 O.2     1  UNL1       -0.2670
     17 N          20.8701   74.6383    2.7219 N.ar    1  UNL1       -0.2551
     18 N          19.9059   72.9946    4.1413 N.ar    1  UNL1       -0.2743
     19 C          20.7845   73.2738    3.0862 C.ar    1  UNL1        0.3323
     20 C          20.1160   75.5896    3.3983 C.ar    1  UNL1        0.0869
     21 C          19.2830   75.3082    4.4021 C.ar    1  UNL1        0.0795
     22 C          19.1346   73.9060    4.8440 C.ar    1  UNL1        0.2626
     23 H          19.8280   72.0510    4.4115 H       1  UNL1        0.1734
     24 O          21.2396   71.9078   -3.3431 O.3     1  UNL1       -0.2703
     25 P          21.4621   72.9798   -4.5326 P.3     1  UNL1        0.2208
     26 O          22.9383   72.6151   -5.0878 O.co2   1  UNL1       -0.4371
     27 O          21.2963   74.4110   -4.1107 O.2     1  UNL1       -0.5170
     28 O          20.4583   72.5064   -5.7034 O.3     1  UNL1       -0.2858
     29 O          19.1483   73.4627   -7.4292 O.3     1  UNL1       -0.3226
     30 O          16.4474   70.8925   -5.6496 O.3     1  UNL1       -0.3794
     31 O          18.2475   72.5125   -4.0157 O.3     1  UNL1       -0.3775
     32 O          17.6648   70.1956   -8.1959 O.3     1  UNL1       -0.3792
     33 C          17.7343   71.3393   -6.0764 C.3     1  UNL1        0.1718
     34 C          18.0556   72.6801   -5.4156 C.3     1  UNL1        0.1968
     35 C          17.7016   71.4905   -7.5989 C.3     1  UNL1        0.1723
     36 C          19.3161   73.2999   -6.0204 C.3     1  UNL1        0.2706
     37 C          18.9342   72.2294   -8.1120 C.3     1  UNL1        0.1830
     38 H          16.4443   70.7892   -4.6849 H       1  UNL1        0.2105
     39 H          17.4516   72.1193   -3.6255 H       1  UNL1        0.2106
     40 H          16.8849   69.7148   -7.8774 H       1  UNL1        0.2106
     41 O          19.2288   71.7249  -10.3836 O.co2   1  UNL1       -0.5466
     42 O          18.2191   73.7065   -9.8806 O.co2   1  UNL1       -0.5466
     43 C          18.7427   72.6597   -9.5299 C.2     1  UNL1        0.0799
@<TRIPOS>UNITY_ATOM_ATTR
2 1
charge -1
26 1
charge -1
41 1
charge -1
@<TRIPOS>BOND
     1     1     4    1
     2     1    24    1
     3     1     2    1
     4     1     3    2
     5    25    28    1
     6    25    24    1
     7    25    26    1
     8    25    27    2
     9     6    11    1
    10     6    12    1
    11    29    36    1
    12    29    37    1
    13     7     9    1
    14     7    13    1
    15     8    10    1
    16     8    14    1
    17     4     5    1
    18    28    36    1
    19    30    33    1
    20    30    38    1
    21    31    34    1
    22    31    39    1
    23    32    35    1
    24    32    40    1
    25    41    43   ar
    26    15    19    2
    27    42    43   ar
    28    16    22    2
    29    17    12    1
    30    17    19   ar
    31    17    20   ar
    32    18    19   ar
    33    18    22   ar
    34    18    23    1
    35     9    10    1
    36     9    11    1
    37    10    12    1
    38    11     5    1
    39    33    34    1
    40    33    35    1
    41    34    36    1
    42    35    37    1
    43    37    43    1
    44    20    21   ar
    45    21    22   ar
@<TRIPOS>MOLECULE
*****
 43 45 0 0 0
SMALL
GASTEIGER

@<TRIPOS>ATOM
      1 P          20.9182   75.1701   -6.5205 P.3     1  UNL1        0.2189
      2 O          20.4333   76.6110   -7.0750 O.co2   1  UNL1       -0.4371
      3 O          22.3824   75.0721   -6.2068 O.2     1  UNL1       -0.5170
      4 O          20.3641   74.1231   -7.6226 O.3     1  UNL1       -0.3112
      5 C          21.1374   72.9728   -7.9111 C.3     1  UNL1        0.1811
      6 O          20.0382   70.8443   -8.1082 O.3     1  UNL1       -0.3308
      7 O          18.6010   72.0140  -10.4657 O.3     1  UNL1       -0.3794
      8 O          16.7337   72.1830   -8.4856 O.3     1  UNL1       -0.3779
      9 C          18.9971   72.6421   -9.2462 C.3     1  UNL1        0.1713
     10 C          18.0957   72.2009   -8.1125 C.3     1  UNL1        0.1895
     11 C          20.3403   72.0572   -8.8313 C.3     1  UNL1        0.1764
     12 C          18.6351   70.8151   -7.8017 C.3     1  UNL1        0.2383
     13 H          17.7451   72.3716  -10.7507 H       1  UNL1        0.2105
     14 H          16.4379   73.0882   -8.6728 H       1  UNL1        0.2106
     15 O          16.2296   69.8377   -6.6906 O.2     1  UNL1       -0.2464
     16 O          18.1011   69.4774   -2.4939 O.2     1  UNL1       -0.2670
     17 N          18.4660   70.4580   -6.4216 N.ar    1  UNL1       -0.2551
     18 N          17.1637   69.6602   -4.6013 N.ar    1  UNL1       -0.2743
     19 C          17.2161   69.9771   -5.9650 C.ar    1  UNL1        0.3323
     20 C          19.5304   70.5838   -5.5372 C.ar    1  UNL1        0.0869
     21 C          19.4653   70.2775   -4.2400 C.ar    1  UNL1        0.0795
     22 C          18.1950   69.7689   -3.6824 C.ar    1  UNL1        0.2626
     23 H          16.3032   69.3253   -4.2597 H       1  UNL1        0.1734
     24 O          19.9408   74.9197   -5.2576 O.3     1  UNL1       -0.2703
     25 P          20.1764   75.1386   -3.6732 P.3     1  UNL1        0.2208
     26 O          18.6808   75.0471   -3.0608 O.co2   1  UNL1       -0.4371
     27 O          20.9096   76.4026   -3.3285 O.2     1  UNL1       -0.5170
     28 O          20.9031   73.7865   -3.1769 O.3     1  UNL1       -0.2858
     29 O          22.1731   73.6615   -1.1817 O.3     1  UNL1       -0.3226
     30 O          23.6686   70.4664   -3.3317 O.3     1  UNL1       -0.3794
     31 O          23.1336   73.0179   -4.6501 O.3     1  UNL1       -0.3775
     32 O          21.8342   70.0086   -1.1235 O.3     1  UNL1       -0.3792
     33 C          22.6756   71.3981   -2.9029 C.3     1  UNL1        0.1718
     34 C          23.1270   72.8191   -3.2411 C.3     1  UNL1        0.1968
     35 C          22.5011   71.2408   -1.3907 C.3     1  UNL1        0.1723
     36 C          22.2043   73.8543   -2.5963 C.3     1  UNL1        0.2706
     37 C          21.6735   72.3806   -0.8039 C.3     1  UNL1        0.1830
     38 H          23.7966   70.5482   -4.2899 H       1  UNL1        0.2105
     39 H          23.7169   72.3642   -5.0657 H       1  UNL1        0.2106
     40 H          22.3506   69.2749   -1.4920 H       1  UNL1        0.2106
     41 O          21.2352   71.2861    1.2238 O.co2   1  UNL1       -0.5466
     42 O          22.2974   73.3005    1.3376 O.co2   1  UNL1       -0.5466
     43 C          21.7835   72.4036    0.6860 C.2     1  UNL1        0.0799
@<TRIPOS>UNITY_ATOM_ATTR
2 1
charge -1
26 1
charge -1
41 1
charge -1
@<TRIPOS>BOND
     1     1     4    1
     2     1    24    1
     3     1     2    1
     4     1     3    2
     5    25    28    1
     6    25    24    1
     7    25    26    1
     8    25    27    2
     9     6    11    1
    10     6    12    1
    11    29    36    1
    12    29    37    1
    13     7     9    1
    14     7    13    1
    15     8    10    1
    16     8    14    1
    17     4     5    1
    18    28    36    1
    19    30    33    1
    20    30    38    1
    21    31    34    1
    22    31    39    1
    23    32    35    1
    24    32    40    1
    25    41    43   ar
    26    15    19    2
    27    42    43   ar
    28    16    22    2
    29    17    12    1
    30    17    19   ar
    31    17    20   ar
    32    18    19   ar
    33    18    22   ar
    34    18    23    1
    35     9    10    1
    36     9    11    1
    37    10    12    1
    38    11     5    1
    39    33    34    1
    40    33    35    1
    41    34    36    1
    42    35    37    1
    43    37    43    1
    44    20    21   ar
    45    21    22   ar
@<TRIPOS>MOLECULE
*****
 43 45 0 0 0
SMALL
GASTEIGER

@<TRIPOS>ATOM
      1 P          21.9407   70.8644   -2.8455 P.3     1  UNL1        0.2189
      2 O          23.3933   71.0984   -3.5194 O.co2   1  UNL1       -0.4371
      3 O          21.4164   69.4616   -2.9413 O.2     1  UNL1       -0.5170
      4 O          21.0129   72.0084   -3.5151 O.3     1  UNL1       -0.3112
      5 C          20.1670   71.6485   -4.5918 C.3     1  UNL1        0.1811
      6 O          17.8821   72.3909   -4.6679 O.3     1  UNL1       -0.3308
      7 O          17.1725   69.7280   -3.4860 O.3     1  UNL1       -0.3794
      8 O          16.5790   69.3856   -6.1254 O.3     1  UNL1       -0.3779
      9 C          18.1908   70.0542   -4.4321 C.3     1  UNL1        0.1713
     10 C          17.5775   70.3261   -5.7894 C.3     1  UNL1        0.1895
     11 C          18.7584   71.4172   -4.0601 C.3     1  UNL1        0.1764
     12 C          17.0226   71.7289   -5.6094 C.3     1  UNL1        0.2383
     13 H          16.7947   68.8609   -3.7031 H       1  UNL1        0.2105
     14 H          16.9824   68.5089   -6.2292 H       1  UNL1        0.2106
     15 O          18.7073   71.2005   -7.8138 O.2     1  UNL1       -0.2464
     16 O          16.8909   74.6566  -10.2633 O.2     1  UNL1       -0.2670
     17 N          17.0110   72.4750   -6.8358 N.ar    1  UNL1       -0.2551
     18 N          17.8017   72.9229   -9.0313 N.ar    1  UNL1       -0.2743
     19 C          17.8985   72.1279   -7.8817 C.ar    1  UNL1        0.3323
     20 C          16.1271   73.5356   -6.9940 C.ar    1  UNL1        0.0869
     21 C          16.0464   74.2841   -8.0958 C.ar    1  UNL1        0.0795
     22 C          16.9395   73.9881   -9.2352 C.ar    1  UNL1        0.2626
     23 H          18.4110   72.7017   -9.7723 H       1  UNL1        0.1734
     24 O          22.1498   71.4034   -1.3361 O.3     1  UNL1       -0.2703
     25 P          22.3790   70.6083    0.0528 P.3     1  UNL1        0.2208
     26 O          23.8355   69.9302   -0.1453 O.co2   1  UNL1       -0.4371
     27 O          21.2860   69.6373    0.3940 O.2     1  UNL1       -0.5170
     28 O          22.6145   71.7649    1.1525 O.3     1  UNL1       -0.2858
     29 O          21.9131   72.4606    3.3049 O.3     1  UNL1       -0.3226
     30 O          21.2127   75.8540    1.0549 O.3     1  UNL1       -0.3794
     31 O          20.5375   73.2138    0.0023 O.3     1  UNL1       -0.3775
     32 O          23.5085   75.7309    2.8339 O.3     1  UNL1       -0.3792
     33 C          21.8846   74.6487    1.4209 C.3     1  UNL1        0.1718
     34 C          20.9062   73.4760    1.3514 C.3     1  UNL1        0.1968
     35 C          22.4138   74.8166    2.8469 C.3     1  UNL1        0.1723
     36 C          21.5227   72.2127    1.9538 C.3     1  UNL1        0.2706
     37 C          22.8949   73.4879    3.4227 C.3     1  UNL1        0.1830
     38 H          20.8677   75.7706    0.1519 H       1  UNL1        0.2105
     39 H          20.1458   74.0112   -0.3862 H       1  UNL1        0.2106
     40 H          23.2157   76.5808    2.4695 H       1  UNL1        0.2106
     41 O          22.2664   72.7442    5.5565 O.co2   1  UNL1       -0.5466
     42 O          23.8982   74.3331    5.4476 O.co2   1  UNL1       -0.5466
     43 C          23.0965   73.5916    4.8994 C.2     1  UNL1        0.0799
@<TRIPOS>UNITY_ATOM_ATTR
2 1
charge -1
26 1
charge -1
41 1
charge -1
@<TRIPOS>BOND
     1     1     4    1
     2     1    24    1
     3     1     2    1
     4     1     3    2
     5    25    28    1
     6    25    24    1
     7    25    26    1
     8    25    27    2
     9     6    11    1
    10     6    12    1
    11    29    36    1
    12    29    37    1
    13     7     9    1
    14     7    13    1
    15     8    10    1
    16     8    14    1
    17     4     5    1
    18    28    36    1
    19    30    33    1
    20    30    38    1
    21    31    34    1
    22    31    39    1
    23    32    35    1
    24    32    40    1
    25    41    43   ar
    26    15    19    2
    27    42    43   ar
    28    16    22    2
    29    17    12    1
    30    17    19   ar
    31    17    20   ar
    32    18    19   ar
    33    18    22   ar
    34    18    23    1
    35     9    10    1
    36     9    11    1
    37    10    12    1
    38    11     5    1
    39    33    34    1
    40    33    35    1
    41    34    36    1
    42    35    37    1
    43    37    43    1
    44    20    21   ar
    45    21    22   ar
@<TRIPOS>MOLECULE
*****
 43 45 0 0 0
SMALL
GASTEIGER

@<TRIPOS>ATOM
      1 P          22.9320   72.3224   -3.2018 P.3     1  UNL1        0.2189
      2 O          23.2456   70.8287   -2.6637 O.co2   1  UNL1       -0.4371
      3 O          23.9564   72.8846   -4.1433 O.2     1  UNL1       -0.5170
      4 O          22.6754   73.1759   -1.8515 O.3     1  UNL1       -0.3112
      5 C          22.7332   72.5048   -0.6062 C.3     1  UNL1        0.1811
      6 O          21.7585   72.7306    1.5794 O.3     1  UNL1       -0.3308
      7 O          19.4957   74.1526    0.2194 O.3     1  UNL1       -0.3794
      8 O          20.9562   76.2098    1.2542 O.3     1  UNL1       -0.3779
      9 C          20.8911   74.1793   -0.0818 C.3     1  UNL1        0.1713
     10 C          21.6330   75.0097    0.9440 C.3     1  UNL1        0.1895
     11 C          21.4527   72.7865    0.1692 C.3     1  UNL1        0.1764
     12 C          21.7075   74.0581    2.1259 C.3     1  UNL1        0.2383
     13 H          19.1147   75.0319    0.0666 H       1  UNL1        0.2105
     14 H          20.9358   76.7814    0.4701 H       1  UNL1        0.2106
     15 O          21.9880   73.1811    4.7958 O.2     1  UNL1       -0.2464
     16 O          26.2310   74.9511    5.1237 O.2     1  UNL1       -0.2670
     17 N          22.8749   74.2762    2.9323 N.ar    1  UNL1       -0.2551
     18 N          24.1006   74.0644    4.9569 N.ar    1  UNL1       -0.2743
     19 C          22.9141   73.7948    4.2623 C.ar    1  UNL1        0.3323
     20 C          23.9647   74.9582    2.4049 C.ar    1  UNL1        0.0869
     21 C          25.0889   75.2075    3.0793 C.ar    1  UNL1        0.0795
     22 C          25.2108   74.7391    4.4754 C.ar    1  UNL1        0.2626
     23 H          24.1506   73.7408    5.8854 H       1  UNL1        0.1734
     24 O          21.4489   72.1785   -3.8282 O.3     1  UNL1       -0.2703
     25 P          20.2831   71.0917   -3.5574 P.3     1  UNL1        0.2208
     26 O          19.5895   71.6248   -2.1954 O.co2   1  UNL1       -0.4371
     27 O          20.7680   69.6724   -3.4899 O.2     1  UNL1       -0.5170
     28 O          19.1878   71.3709   -4.7084 O.3     1  UNL1       -0.2858
     29 O          17.1892   72.5802   -5.0988 O.3     1  UNL1       -0.3226
     30 O          16.0936   68.7595   -6.2256 O.3     1  UNL1       -0.3794
     31 O          17.7020   69.1917   -3.8255 O.3     1  UNL1       -0.3775
     32 O          16.6413   70.7762   -8.2465 O.3     1  UNL1       -0.3792
     33 C          16.9853   69.8596   -6.0450 C.3     1  UNL1        0.1718
     34 C          17.0553   70.2234   -4.5616 C.3     1  UNL1        0.1968
     35 C          16.4501   71.0406   -6.8579 C.3     1  UNL1        0.1723
     36 C          17.8155   71.5342   -4.3551 C.3     1  UNL1        0.2706
     37 C          17.1756   72.3353   -6.5034 C.3     1  UNL1        0.1830
     38 H          16.4135   67.9971   -5.7180 H       1  UNL1        0.2105
     39 H          17.2251   68.3569   -3.9522 H       1  UNL1        0.2106
     40 H          16.1845   69.9545   -8.4851 H       1  UNL1        0.2106
     41 O          15.6045   73.1486   -8.0435 O.co2   1  UNL1       -0.5466
     42 O          16.5705   74.6668   -6.6431 O.co2   1  UNL1       -0.5466
     43 C          16.4418   73.5195   -7.0434 C.2     1  UNL1        0.0799
@<TRIPOS>UNITY_ATOM_ATTR
2 1
charge -1
26 1
charge -1
41 1
charge -1
@<TRIPOS>BOND
     1     1     4    1
     2     1    24    1
     3     1     2    1
     4     1     3    2
     5    25    28    1
     6    25    24    1
     7    25    26    1
     8    25    27    2
     9     6    11    1
    10     6    12    1
    11    29    36    1
    12    29    37    1
    13     7     9    1
    14     7    13    1
    15     8    10    1
    16     8    14    1
    17     4     5    1
    18    28    36    1
    19    30    33    1
    20    30    38    1
    21    31    34    1
    22    31    39    1
    23    32    35    1
    24    32    40    1
    25    41    43   ar
    26    15    19    2
    27    42    43   ar
    28    16    22    2
    29    17    12    1
    30    17    19   ar
    31    17    20   ar
    32    18    19   ar
    33    18    22   ar
    34    18    23    1
    35     9    10    1
    36     9    11    1
    37    10    12    1
    38    11     5    1
    39    33    34    1
    40    33    35    1
    41    34    36    1
    42    35    37    1
    43    37    43    1
    44    20    21   ar
    45    21    22   ar
@<TRIPOS>MOLECULE
*****
 43 45 0 0 0
SMALL
GASTEIGER

@<TRIPOS>ATOM
      1 P          17.4580   74.3978   -3.9616 P.3     1  UNL1        0.2189
      2 O          16.1813   75.3687   -3.7465 O.co2   1  UNL1       -0.4371
      3 O          18.5478   74.5487   -2.9412 O.2     1  UNL1       -0.5170
      4 O          17.8923   74.6618   -5.4977 O.3     1  UNL1       -0.3112
      5 C          18.3963   75.9376   -5.8481 C.3     1  UNL1        0.1811
      6 O          20.3017   74.5103   -6.1796 O.3     1  UNL1       -0.3308
      7 O          21.8671   77.0229   -6.6568 O.3     1  UNL1       -0.3794
      8 O          21.4246   76.1071   -9.1869 O.3     1  UNL1       -0.3779
      9 C          20.5192   76.7165   -7.0141 C.3     1  UNL1        0.1713
     10 C          20.4925   75.7572   -8.1852 C.3     1  UNL1        0.1895
     11 C          19.9174   75.8735   -5.8980 C.3     1  UNL1        0.1764
     12 C          20.8221   74.4337   -7.5163 C.3     1  UNL1        0.2383
     13 H          22.2726   77.5612   -7.3550 H       1  UNL1        0.2105
     14 H          21.1708   76.9564   -9.5822 H       1  UNL1        0.2106
     15 O          18.3850   74.5492   -8.9389 O.2     1  UNL1       -0.2464
     16 O          18.6131   70.0826  -10.0532 O.2     1  UNL1       -0.2670
     17 N          20.2217   73.3159   -8.1877 N.ar    1  UNL1       -0.2551
     18 N          18.5004   72.3242   -9.4916 N.ar    1  UNL1       -0.2743
     19 C          18.9951   73.4803   -8.8737 C.ar    1  UNL1        0.3323
     20 C          20.8469   72.0751   -8.1641 C.ar    1  UNL1        0.0869
     21 C          20.3632   70.9823   -8.7580 C.ar    1  UNL1        0.0795
     22 C          19.0856   71.0684   -9.4953 C.ar    1  UNL1        0.2626
     23 H          17.6466   72.4135   -9.9737 H       1  UNL1        0.1734
     24 O          16.7896   72.9272   -4.0206 O.3     1  UNL1       -0.2703
     25 P          17.4453   71.4731   -4.2839 P.3     1  UNL1        0.2208
     26 O          17.7485   71.4866   -5.8740 O.co2   1  UNL1       -0.4371
     27 O          16.5964   70.3227   -3.8260 O.2     1  UNL1       -0.5170
     28 O          18.9003   71.5487   -3.5914 O.3     1  UNL1       -0.2858
     29 O          21.0875   71.3275   -4.4726 O.3     1  UNL1       -0.3226
     30 O          21.5014   69.5867   -0.7488 O.3     1  UNL1       -0.3794
     31 O          19.1333   69.0580   -2.3757 O.3     1  UNL1       -0.3775
     32 O          22.5497   72.2538   -1.2374 O.3     1  UNL1       -0.3792
     33 C          20.9681   70.4986   -1.7091 C.3     1  UNL1        0.1718
     34 C          20.3044   69.7171   -2.8433 C.3     1  UNL1        0.1968
     35 C          22.1228   71.3446   -2.2501 C.3     1  UNL1        0.1723
     36 C          19.9261   70.6450   -3.9986 C.3     1  UNL1        0.2706
     37 C          21.6989   72.1458   -3.4777 C.3     1  UNL1        0.1830
     38 H          20.7856   69.0382   -0.3911 H       1  UNL1        0.2105
     39 H          19.3660   68.4677   -1.6423 H       1  UNL1        0.2106
     40 H          22.8221   71.7565   -0.4504 H       1  UNL1        0.2106
     41 O          23.8291   73.1106   -3.2967 O.co2   1  UNL1       -0.5466
     42 O          23.0136   72.7773   -5.3997 O.co2   1  UNL1       -0.5466
     43 C          22.8912   72.7011   -4.1864 C.2     1  UNL1        0.0799
@<TRIPOS>UNITY_ATOM_ATTR
2 1
charge -1
26 1
charge -1
41 1
charge -1
@<TRIPOS>BOND
     1     1     4    1
     2     1    24    1
     3     1     2    1
     4     1     3    2
     5    25    28    1
     6    25    24    1
     7    25    26    1
     8    25    27    2
     9     6    11    1
    10     6    12    1
    11    29    36    1
    12    29    37    1
    13     7     9    1
    14     7    13    1
    15     8    10    1
    16     8    14    1
    17     4     5    1
    18    28    36    1
    19    30    33    1
    20    30    38    1
    21    31    34    1
    22    31    39    1
    23    32    35    1
    24    32    40    1
    25    41    43   ar
    26    15    19    2
    27    42    43   ar
    28    16    22    2
    29    17    12    1
    30    17    19   ar
    31    17    20   ar
    32    18    19   ar
    33    18    22   ar
    34    18    23    1
    35     9    10    1
    36     9    11    1
    37    10    12    1
    38    11     5    1
    39    33    34    1
    40    33    35    1
    41    34    36    1
    42    35    37    1
    43    37    43    1
    44    20    21   ar
    45    21    22   ar
@<TRIPOS>MOLECULE
*****
 43 45 0 0 0
SMALL
GASTEIGER

@<TRIPOS>ATOM
      1 P          19.4687   74.0840   -3.3880 P.3     1  UNL1        0.2189
      2 O          18.6591   75.4747   -3.5596 O.co2   1  UNL1       -0.4371
      3 O          18.6194   72.8475   -3.4278 O.2     1  UNL1       -0.5170
      4 O          20.3311   74.3008   -2.0363 O.3     1  UNL1       -0.3112
      5 C          20.9899   75.5395   -1.8460 C.3     1  UNL1        0.1811
      6 O          20.7385   74.6819    0.3854 O.3     1  UNL1       -0.3308
      7 O          21.9945   77.2425    1.3114 O.3     1  UNL1       -0.3794
      8 O          24.0682   75.4772    1.4504 O.3     1  UNL1       -0.3779
      9 C          22.2737   76.4695    0.1438 C.3     1  UNL1        0.1713
     10 C          23.0424   75.2190    0.5147 C.3     1  UNL1        0.1895
     11 C          20.9585   75.8957   -0.3653 C.3     1  UNL1        0.1764
     12 C          21.9466   74.3307    1.0785 C.3     1  UNL1        0.2383
     13 H          22.8200   77.6195    1.6550 H       1  UNL1        0.2105
     14 H          24.7412   76.0461    1.0437 H       1  UNL1        0.2106
     15 O          22.0168   72.4019    3.1404 O.2     1  UNL1       -0.2464
     16 O          22.9795   69.0043    0.1784 O.2     1  UNL1       -0.2670
     17 N          22.2132   72.9350    0.8742 N.ar    1  UNL1       -0.2551
     18 N          22.4972   70.7117    1.6633 N.ar    1  UNL1       -0.2743
     19 C          22.2256   72.0497    1.9779 C.ar    1  UNL1        0.3323
     20 C          22.4569   72.4557   -0.4072 C.ar    1  UNL1        0.0869
     21 C          22.7142   71.1775   -0.6915 C.ar    1  UNL1        0.0795
     22 C          22.7464   70.1877    0.4052 C.ar    1  UNL1        0.2626
     23 H          22.5132   70.0769    2.4157 H       1  UNL1        0.1734
     24 O          20.5880   74.1699   -4.5510 O.3     1  UNL1       -0.2703
     25 P          21.2907   73.0132   -5.4353 P.3     1  UNL1        0.2208
     26 O          21.6175   71.8616   -4.3456 O.co2   1  UNL1       -0.4371
     27 O          22.4829   73.4774   -6.2209 O.2     1  UNL1       -0.5170
     28 O          20.0967   72.3999   -6.3301 O.3     1  UNL1       -0.2858
     29 O          19.0433   70.3104   -5.9653 O.3     1  UNL1       -0.3226
     30 O          18.4122   70.8754  -10.0089 O.3     1  UNL1       -0.3794
     31 O          20.9973   71.5181   -8.8095 O.3     1  UNL1       -0.3775
     32 O          16.2379   71.2800   -8.1222 O.3     1  UNL1       -0.3792
     33 C          18.5889   71.2735   -8.6494 C.3     1  UNL1        0.1718
     34 C          19.9565   70.8044   -8.1524 C.3     1  UNL1        0.1968
     35 C          17.4730   70.6336   -7.8204 C.3     1  UNL1        0.1723
     36 C          20.0892   71.0081   -6.6425 C.3     1  UNL1        0.2706
     37 C          17.7422   70.7699   -6.3246 C.3     1  UNL1        0.1830
     38 H          19.1102   71.2702  -10.5550 H       1  UNL1        0.2105
     39 H          20.9190   71.3935   -9.7680 H       1  UNL1        0.2106
     40 H          16.0549   71.2007   -9.0714 H       1  UNL1        0.2106
     41 O          16.1753   69.0248   -6.3618 O.co2   1  UNL1       -0.5466
     42 O          16.7170   69.8930   -4.3242 O.co2   1  UNL1       -0.5466
     43 C          16.8411   69.8732   -5.5396 C.2     1  UNL1        0.0799
@<TRIPOS>UNITY_ATOM_ATTR
2 1
charge -1
26 1
charge -1
41 1
charge -1
@<TRIPOS>BOND
     1     1     4    1
     2     1    24    1
     3     1     2    1
     4     1     3    2
     5    25    28    1
     6    25    24    1
     7    25    26    1
     8    25    27    2
     9     6    11    1
    10     6    12    1
    11    29    36    1
    12    29    37    1
    13     7     9    1
    14     7    13    1
    15     8    10    1
    16     8    14    1
    17     4     5    1
    18    28    36    1
    19    30    33    1
    20    30    38    1
    21    31    34    1
    22    31    39    1
    23    32    35    1
    24    32    40    1
    25    41    43   ar
    26    15    19    2
    27    42    43   ar
    28    16    22    2
    29    17    12    1
    30    17    19   ar
    31    17    20   ar
    32    18    19   ar
    33    18    22   ar
    34    18    23    1
    35     9    10    1
    36     9    11    1
    37    10    12    1
    38    11     5    1
    39    33    34    1
    40    33    35    1
    41    34    36    1
    42    35    37    1
    43    37    43    1
    44    20    21   ar
    45    21    22   ar
@<TRIPOS>MOLECULE
*****
 43 45 0 0 0
SMALL
GASTEIGER

@<TRIPOS>ATOM
      1 P          22.8490   73.5204   -4.7187 P.3     1  UNL1        0.2189
      2 O          24.2691   73.7886   -3.9905 O.co2   1  UNL1       -0.4371
      3 O          22.9254   72.7033   -5.9749 O.2     1  UNL1       -0.5170
      4 O          22.2097   74.9981   -4.8794 O.3     1  UNL1       -0.3112
      5 C          20.8088   75.1139   -5.0487 C.3     1  UNL1        0.1811
      6 O          20.1782   73.8639   -7.0025 O.3     1  UNL1       -0.3308
      7 O          19.3801   76.4947   -8.2000 O.3     1  UNL1       -0.3794
      8 O          16.9871   75.4436   -7.4219 O.3     1  UNL1       -0.3779
      9 C          19.2718   76.0469   -6.8485 C.3     1  UNL1        0.1713
     10 C          18.1442   75.0451   -6.7171 C.3     1  UNL1        0.1895
     11 C          20.4938   75.1939   -6.5369 C.3     1  UNL1        0.1764
     12 C          18.7728   73.7859   -7.2893 C.3     1  UNL1        0.2383
     13 H          18.6102   77.0419   -8.4223 H       1  UNL1        0.2105
     14 H          16.6246   76.2488   -7.0192 H       1  UNL1        0.2106
     15 O          18.4881   73.3721   -4.5100 O.2     1  UNL1       -0.2464
     16 O          16.7212   69.1610   -5.1334 O.2     1  UNL1       -0.2670
     17 N          18.2413   72.5907   -6.6980 N.ar    1  UNL1       -0.2551
     18 N          17.6093   71.2747   -4.8231 N.ar    1  UNL1       -0.2743
     19 C          18.1409   72.4838   -5.2906 C.ar    1  UNL1        0.3323
     20 C          17.8248   71.5418   -7.5087 C.ar    1  UNL1        0.0869
     21 C          17.3199   70.3955   -7.0485 C.ar    1  UNL1        0.0795
     22 C          17.1821   70.2028   -5.5900 C.ar    1  UNL1        0.2626
     23 H          17.5316   71.1761   -3.8466 H       1  UNL1        0.1734
     24 O          21.9560   72.8642   -3.5419 O.3     1  UNL1       -0.2703
     25 P          21.7510   71.3230   -3.0989 P.3     1  UNL1        0.2208
     26 O          23.2275   70.6857   -3.2832 O.co2   1  UNL1       -0.4371
     27 O          20.6689   70.6046   -3.8519 O.2     1  UNL1       -0.5170
     28 O          21.5294   71.3821   -1.5021 O.3     1  UNL1       -0.2858
     29 O          23.2837   72.6853   -0.5893 O.3     1  UNL1       -0.3226
     30 O          21.1202   71.7026    2.7903 O.3     1  UNL1       -0.3794
     31 O          21.6143   69.7059    0.7158 O.3     1  UNL1       -0.3775
     32 O          20.9349   74.3768    1.6655 O.3     1  UNL1       -0.3792
     33 C          21.3119   72.0110    1.4097 C.3     1  UNL1        0.1718
     34 C          22.2474   70.9786    0.7799 C.3     1  UNL1        0.1968
     35 C          21.9247   73.4103    1.3183 C.3     1  UNL1        0.1723
     36 C          22.6587   71.4018   -0.6310 C.3     1  UNL1        0.2706
     37 C          22.4242   73.7087   -0.0924 C.3     1  UNL1        0.1830
     38 H          20.7316   70.8175    2.8732 H       1  UNL1        0.2105
     39 H          21.3504   69.4313    1.6076 H       1  UNL1        0.2106
     40 H          20.6086   74.1981    2.5613 H       1  UNL1        0.2106
     41 O          22.5593   76.0496   -0.0332 O.co2   1  UNL1       -0.5466
     42 O          24.5230   74.8971   -0.1548 O.co2   1  UNL1       -0.5466
     43 C          23.3025   74.9173   -0.0995 C.2     1  UNL1        0.0799
@<TRIPOS>UNITY_ATOM_ATTR
2 1
charge -1
26 1
charge -1
41 1
charge -1
@<TRIPOS>BOND
     1     1     4    1
     2     1    24    1
     3     1     2    1
     4     1     3    2
     5    25    28    1
     6    25    24    1
     7    25    26    1
     8    25    27    2
     9     6    11    1
    10     6    12    1
    11    29    36    1
    12    29    37    1
    13     7     9    1
    14     7    13    1
    15     8    10    1
    16     8    14    1
    17     4     5    1
    18    28    36    1
    19    30    33    1
    20    30    38    1
    21    31    34    1
    22    31    39    1
    23    32    35    1
    24    32    40    1
    25    41    43   ar
    26    15    19    2
    27    42    43   ar
    28    16    22    2
    29    17    12    1
    30    17    19   ar
    31    17    20   ar
    32    18    19   ar
    33    18    22   ar
    34    18    23    1
    35     9    10    1
    36     9    11    1
    37    10    12    1
    38    11     5    1
    39    33    34    1
    40    33    35    1
    41    34    36    1
    42    35    37    1
    43    37    43    1
    44    20    21   ar
    45    21    22   ar
@<TRIPOS>MOLECULE
*****
 43 45 0 0 0
SMALL
GASTEIGER

@<TRIPOS>ATOM
      1 P          22.6553   73.2524   -4.5958 P.3     1  UNL1        0.2189
      2 O          21.9816   74.7235   -4.6229 O.co2   1  UNL1       -0.4371
      3 O          24.0605   73.2086   -4.0709 O.2     1  UNL1       -0.5170
      4 O          22.4514   72.7038   -6.1042 O.3     1  UNL1       -0.3112
      5 C          21.2471   73.0157   -6.7801 C.3     1  UNL1        0.1811
      6 O          19.1135   71.9087   -6.7722 O.3     1  UNL1       -0.3308
      7 O          20.3324   69.9484   -8.6862 O.3     1  UNL1       -0.3794
      8 O          18.8779   71.5634  -10.3331 O.3     1  UNL1       -0.3779
      9 C          20.5458   71.3559   -8.5760 C.3     1  UNL1        0.1713
     10 C          19.3521   72.1112   -9.1208 C.3     1  UNL1        0.1895
     11 C          20.5078   71.7226   -7.0988 C.3     1  UNL1        0.1764
     12 C          18.3499   71.9772   -7.9870 C.3     1  UNL1        0.2383
     13 H          20.3523   69.6902   -9.6214 H       1  UNL1        0.2105
     14 H          19.5515   71.6737  -11.0230 H       1  UNL1        0.2106
     15 O          18.9933   74.5945   -8.8309 O.2     1  UNL1       -0.2464
     16 O          14.8333   76.1927   -7.6546 O.2     1  UNL1       -0.2670
     17 N          17.4537   73.0962   -7.9126 N.ar    1  UNL1       -0.2551
     18 N          16.9211   75.3882   -8.2433 N.ar    1  UNL1       -0.2743
     19 C          17.8754   74.3694   -8.3634 C.ar    1  UNL1        0.3323
     20 C          16.1734   72.9266   -7.3998 C.ar    1  UNL1        0.0869
     21 C          15.2748   73.9072   -7.2918 C.ar    1  UNL1        0.0795
     22 C          15.6361   75.2683   -7.7395 C.ar    1  UNL1        0.2626
     23 H          17.1924   76.2840   -8.5488 H       1  UNL1        0.1734
     24 O          21.5915   72.3816   -3.7455 O.3     1  UNL1       -0.2703
     25 P          21.7040   70.9034   -3.1007 P.3     1  UNL1        0.2208
     26 O          23.2714   70.5403   -3.2793 O.co2   1  UNL1       -0.4371
     27 O          20.7641   69.8973   -3.6993 O.2     1  UNL1       -0.5170
     28 O          21.5174   71.1333   -1.5149 O.3     1  UNL1       -0.2858
     29 O          23.1969   72.6142   -0.7431 O.3     1  UNL1       -0.3226
     30 O          21.2000   71.7093    2.7585 O.3     1  UNL1       -0.3794
     31 O          21.7815   69.6186    0.8028 O.3     1  UNL1       -0.3775
     32 O          20.7929   74.2832    1.4699 O.3     1  UNL1       -0.3792
     33 C          21.3324   71.9378    1.3556 C.3     1  UNL1        0.1718
     34 C          22.3228   70.9340    0.7649 C.3     1  UNL1        0.1968
     35 C          21.8402   73.3674    1.1551 C.3     1  UNL1        0.1723
     36 C          22.6651   71.2902   -0.6825 C.3     1  UNL1        0.2706
     37 C          22.2793   73.6056   -0.2867 C.3     1  UNL1        0.1830
     38 H          20.8785   70.8066    2.9104 H       1  UNL1        0.2105
     39 H          21.5618   69.3861    1.7182 H       1  UNL1        0.2106
     40 H          20.5042   74.1420    2.3851 H       1  UNL1        0.2106
     41 O          24.0287   74.9210    0.5564 O.co2   1  UNL1       -0.5466
     42 O          22.8811   75.7409   -1.2352 O.co2   1  UNL1       -0.5466
     43 C          23.0679   74.8696   -0.3992 C.2     1  UNL1        0.0799
@<TRIPOS>UNITY_ATOM_ATTR
2 1
charge -1
26 1
charge -1
41 1
charge -1
@<TRIPOS>BOND
     1     1     4    1
     2     1    24    1
     3     1     2    1
     4     1     3    2
     5    25    28    1
     6    25    24    1
     7    25    26    1
     8    25    27    2
     9     6    11    1
    10     6    12    1
    11    29    36    1
    12    29    37    1
    13     7     9    1
    14     7    13    1
    15     8    10    1
    16     8    14    1
    17     4     5    1
    18    28    36    1
    19    30    33    1
    20    30    38    1
    21    31    34    1
    22    31    39    1
    23    32    35    1
    24    32    40    1
    25    41    43   ar
    26    15    19    2
    27    42    43   ar
    28    16    22    2
    29    17    12    1
    30    17    19   ar
    31    17    20   ar
    32    18    19   ar
    33    18    22   ar
    34    18    23    1
    35     9    10    1
    36     9    11    1
    37    10    12    1
    38    11     5    1
    39    33    34    1
    40    33    35    1
    41    34    36    1
    42    35    37    1
    43    37    43    1
    44    20    21   ar
    45    21    22   ar
@<TRIPOS>MOLECULE
*****
 43 45 0 0 0
SMALL
GASTEIGER

@<TRIPOS>ATOM
      1 P          17.9046   70.0963   -3.7518 P.3     1  UNL1        0.2189
      2 O          18.5472   69.0989   -2.6513 O.co2   1  UNL1       -0.4371
      3 O          16.7751   69.5150   -4.5507 O.2     1  UNL1       -0.5170
      4 O          19.1805   70.6055   -4.6066 O.3     1  UNL1       -0.3112
      5 C          19.1394   70.4893   -6.0171 C.3     1  UNL1        0.1811
      6 O          18.7312   72.7849   -6.6012 O.3     1  UNL1       -0.3308
      7 O          16.4184   71.7685   -8.2167 O.3     1  UNL1       -0.3794
      8 O          18.3300   72.1929  -10.1145 O.3     1  UNL1       -0.3779
      9 C          17.6985   71.1749   -7.9986 C.3     1  UNL1        0.1713
     10 C          18.7571   71.9026   -8.8000 C.3     1  UNL1        0.1895
     11 C          18.1188   71.4775   -6.5668 C.3     1  UNL1        0.1764
     12 C          18.9785   73.1538   -7.9673 C.3     1  UNL1        0.2383
     13 H          16.1288   71.5885   -9.1252 H       1  UNL1        0.2105
     14 H          18.2034   71.3643  -10.6037 H       1  UNL1        0.2106
     15 O          21.2869   71.5308   -8.0848 O.2     1  UNL1       -0.2464
     16 O          24.0680   75.1929   -8.3987 O.2     1  UNL1       -0.2670
     17 N          20.3183   73.6569   -8.0798 N.ar    1  UNL1       -0.2551
     18 N          22.6699   73.3564   -8.2400 N.ar    1  UNL1       -0.2743
     19 C          21.4085   72.7564   -8.1310 C.ar    1  UNL1        0.3323
     20 C          20.5418   75.0271   -8.1400 C.ar    1  UNL1        0.0869
     21 C          21.7500   75.5841   -8.2439 C.ar    1  UNL1        0.0795
     22 C          22.9424   74.7133   -8.3025 C.ar    1  UNL1        0.2626
     23 H          23.4445   72.7497   -8.2753 H       1  UNL1        0.1734
     24 O          17.5108   71.3971   -2.8768 O.3     1  UNL1       -0.2703
     25 P          18.1548   72.8792   -2.8295 P.3     1  UNL1        0.2208
     26 O          18.0418   73.2819   -1.2658 O.co2   1  UNL1       -0.4371
     27 O          17.5135   73.8595   -3.7685 O.2     1  UNL1       -0.5170
     28 O          19.7321   72.6482   -3.0775 O.3     1  UNL1       -0.2858
     29 O          21.1010   72.2516   -1.1860 O.3     1  UNL1       -0.3226
     30 O          23.9105   73.0966   -4.0947 O.3     1  UNL1       -0.3794
     31 O          21.4550   74.6681   -3.9066 O.3     1  UNL1       -0.3775
     32 O          23.4826   70.3536   -3.2323 O.3     1  UNL1       -0.3792
     33 C          22.6756   72.5967   -3.5818 C.3     1  UNL1        0.1718
     34 C          21.8953   73.7361   -2.9257 C.3     1  UNL1        0.1968
     35 C          22.9961   71.5098   -2.5533 C.3     1  UNL1        0.1723
     36 C          20.6803   73.2009   -2.1665 C.3     1  UNL1        0.2706
     37 C          21.7580   71.1194   -1.7511 C.3     1  UNL1        0.1830
     38 H          23.7319   73.7889   -4.7504 H       1  UNL1        0.2105
     39 H          22.2208   75.0115   -4.3924 H       1  UNL1        0.2106
     40 H          24.2706   70.5885   -3.7468 H       1  UNL1        0.2106
     41 O          23.4820   70.1673   -0.4772 O.co2   1  UNL1       -0.5466
     42 O          21.3480   69.8560    0.2630 O.co2   1  UNL1       -0.5466
     43 C          22.1361   70.3164   -0.5493 C.2     1  UNL1        0.0799
@<TRIPOS>UNITY_ATOM_ATTR
2 1
charge -1
26 1
charge -1
41 1
charge -1
@<TRIPOS>BOND
     1     1     4    1
     2     1    24    1
     3     1     2    1
     4     1     3    2
     5    25    28    1
     6    25    24    1
     7    25    26    1
     8    25    27    2
     9     6    11    1
    10     6    12    1
    11    29    36    1
    12    29    37    1
    13     7     9    1
    14     7    13    1
    15     8    10    1
    16     8    14    1
    17     4     5    1
    18    28    36    1
    19    30    33    1
    20    30    38    1
    21    31    34    1
    22    31    39    1
    23    32    35    1
    24    32    40    1
    25    41    43   ar
    26    15    19    2
    27    42    43   ar
    28    16    22    2
    29    17    12    1
    30    17    19   ar
    31    17    20   ar
    32    18    19   ar
    33    18    22   ar
    34    18    23    1
    35     9    10    1
    36     9    11    1
    37    10    12    1
    38    11     5    1
    39    33    34    1
    40    33    35    1
    41    34    36    1
    42    35    37    1
    43    37    43    1
    44    20    21   ar
    45    21    22   ar
@<TRIPOS>MOLECULE
*****
 43 45 0 0 0
SMALL
GASTEIGER

@<TRIPOS>ATOM
      1 P          17.0025   70.5604   -5.8960 P.3     1  UNL1        0.2189
      2 O          16.1173   69.4128   -6.6159 O.co2   1  UNL1       -0.4371
      3 O          16.2517   71.8103   -5.5412 O.2     1  UNL1       -0.5170
      4 O          18.2651   70.7570   -6.8885 O.3     1  UNL1       -0.3112
      5 C          18.0254   70.8250   -8.2822 C.3     1  UNL1        0.1811
      6 O          18.2413   72.8421   -9.5715 O.3     1  UNL1       -0.3308
      7 O          21.0543   72.9782   -8.5421 O.3     1  UNL1       -0.3794
      8 O          19.7525   74.7759   -6.9579 O.3     1  UNL1       -0.3779
      9 C          19.8709   72.5296   -7.8811 C.3     1  UNL1        0.1713
     10 C          19.0023   73.7105   -7.5026 C.3     1  UNL1        0.1895
     11 C          19.0037   71.8118   -8.9063 C.3     1  UNL1        0.1764
     12 C          18.3591   74.0678   -8.8317 C.3     1  UNL1        0.2383
     13 H          21.6245   73.4400   -7.9070 H       1  UNL1        0.2105
     14 H          20.1411   74.4987   -6.1128 H       1  UNL1        0.2106
     15 O          17.8110   76.8354   -8.9591 O.2     1  UNL1       -0.2464
     16 O          13.3141   76.1652   -8.2027 O.2     1  UNL1       -0.2670
     17 N          17.0540   74.6439   -8.6716 N.ar    1  UNL1       -0.2551
     18 N          15.5720   76.4991   -8.5812 N.ar    1  UNL1       -0.2743
     19 C          16.8868   76.0466   -8.7533 C.ar    1  UNL1        0.3323
     20 C          15.9574   73.8230   -8.4384 C.ar    1  UNL1        0.0869
     21 C          14.7101   74.2690   -8.2766 C.ar    1  UNL1        0.0795
     22 C          14.4493   75.7217   -8.3466 C.ar    1  UNL1        0.2626
     23 H          15.4309   77.4721   -8.6319 H       1  UNL1        0.1734
     24 O          17.6491   69.7825   -4.6352 O.3     1  UNL1       -0.2703
     25 P          18.1965   70.3313   -3.2164 P.3     1  UNL1        0.2208
     26 O          18.6015   68.9772   -2.4274 O.co2   1  UNL1       -0.4371
     27 O          17.2265   71.2094   -2.4802 O.2     1  UNL1       -0.5170
     28 O          19.6051   71.0357   -3.5660 O.3     1  UNL1       -0.2858
     29 O          20.7309   71.4094   -1.5162 O.3     1  UNL1       -0.3226
     30 O          23.4547   72.8809   -4.2518 O.3     1  UNL1       -0.3794
     31 O          20.6027   73.4355   -4.5568 O.3     1  UNL1       -0.3775
     32 O          23.9043   70.3019   -2.9878 O.3     1  UNL1       -0.3792
     33 C          22.4159   72.0232   -3.7795 C.3     1  UNL1        0.1718
     34 C          21.1949   72.8605   -3.3977 C.3     1  UNL1        0.1968
     35 C          22.9453   71.2668   -2.5591 C.3     1  UNL1        0.1723
     36 C          20.1507   72.0076   -2.6759 C.3     1  UNL1        0.2706
     37 C          21.8221   70.5438   -1.8214 C.3     1  UNL1        0.1830
     38 H          23.1411   73.3721   -5.0275 H       1  UNL1        0.2105
     39 H          21.2599   73.9778   -5.0199 H       1  UNL1        0.2106
     40 H          24.6246   70.7491   -3.4590 H       1  UNL1        0.2106
     41 O          21.2668   70.1704    0.4267 O.co2   1  UNL1       -0.5466
     42 O          23.4055   69.6997   -0.2084 O.co2   1  UNL1       -0.5466
     43 C          22.2786   70.0911   -0.4727 C.2     1  UNL1        0.0799
@<TRIPOS>UNITY_ATOM_ATTR
2 1
charge -1
26 1
charge -1
41 1
charge -1
@<TRIPOS>BOND
     1     1     4    1
     2     1    24    1
     3     1     2    1
     4     1     3    2
     5    25    28    1
     6    25    24    1
     7    25    26    1
     8    25    27    2
     9     6    11    1
    10     6    12    1
    11    29    36    1
    12    29    37    1
    13     7     9    1
    14     7    13    1
    15     8    10    1
    16     8    14    1
    17     4     5    1
    18    28    36    1
    19    30    33    1
    20    30    38    1
    21    31    34    1
    22    31    39    1
    23    32    35    1
    24    32    40    1
    25    41    43   ar
    26    15    19    2
    27    42    43   ar
    28    16    22    2
    29    17    12    1
    30    17    19   ar
    31    17    20   ar
    32    18    19   ar
    33    18    22   ar
    34    18    23    1
    35     9    10    1
    36     9    11    1
    37    10    12    1
    38    11     5    1
    39    33    34    1
    40    33    35    1
    41    34    36    1
    42    35    37    1
    43    37    43    1
    44    20    21   ar
    45    21    22   ar
@<TRIPOS>MOLECULE
*****
 43 45 0 0 0
SMALL
GASTEIGER

@<TRIPOS>ATOM
      1 P          21.6888   73.5401   -6.9719 P.3     1  UNL1        0.2189
      2 O          21.6204   75.0071   -7.6515 O.co2   1  UNL1       -0.4371
      3 O          22.8482   72.6931   -7.4081 O.2     1  UNL1       -0.5170
      4 O          20.2211   72.9164   -7.2451 O.3     1  UNL1       -0.3112
      5 C          20.0048   71.5465   -6.9605 C.3     1  UNL1        0.1811
      6 O          17.7181   71.1667   -7.5963 O.3     1  UNL1       -0.3308
      7 O          18.7578   70.7310  -10.3749 O.3     1  UNL1       -0.3794
      8 O          17.7970   73.2804  -10.4911 O.3     1  UNL1       -0.3779
      9 C          19.2080   71.6449   -9.3746 C.3     1  UNL1        0.1713
     10 C          18.2328   72.7951   -9.2385 C.3     1  UNL1        0.1895
     11 C          19.0825   70.9591   -8.0210 C.3     1  UNL1        0.1764
     12 C          17.1101   72.1632   -8.4334 C.3     1  UNL1        0.2383
     13 H          18.8285   71.1470  -11.2488 H       1  UNL1        0.2105
     14 H          18.5477   73.6730  -10.9647 H       1  UNL1        0.2106
     15 O          16.0291   71.5787   -5.8906 O.2     1  UNL1       -0.2464
     16 O          14.5094   75.8954   -5.3425 O.2     1  UNL1       -0.2670
     17 N          16.4268   73.1156   -7.6047 N.ar    1  UNL1       -0.2551
     18 N          15.2723   73.7290   -5.6204 N.ar    1  UNL1       -0.2743
     19 C          15.9213   72.7197   -6.3438 C.ar    1  UNL1        0.3323
     20 C          16.2647   74.4247   -8.0415 C.ar    1  UNL1        0.0869
     21 C          15.6439   75.3757   -7.3407 C.ar    1  UNL1        0.0795
     22 C          15.0858   75.0445   -6.0132 C.ar    1  UNL1        0.2626
     23 H          14.9102   73.4767   -4.7404 H       1  UNL1        0.1734
     24 O          21.6543   73.8710   -5.3900 O.3     1  UNL1       -0.2703
     25 P          22.0498   72.9689   -4.1080 P.3     1  UNL1        0.2208
     26 O          21.8432   73.9836   -2.8639 O.co2   1  UNL1       -0.4371
     27 O          23.4180   72.3556   -4.1851 O.2     1  UNL1       -0.5170
     28 O          20.8457   71.9043   -3.9695 O.3     1  UNL1       -0.2858
     29 O          19.2538   71.7809   -2.2203 O.3     1  UNL1       -0.3226
     30 O          19.4002   67.8562   -3.5023 O.3     1  UNL1       -0.3794
     31 O          21.8539   69.4188   -3.2335 O.3     1  UNL1       -0.3775
     32 O          17.1426   69.5419   -4.2183 O.3     1  UNL1       -0.3792
     33 C          19.4664   69.2756   -3.6403 C.3     1  UNL1        0.1718
     34 C          20.5796   69.8251   -2.7480 C.3     1  UNL1        0.1968
     35 C          18.1134   69.8551   -3.2213 C.3     1  UNL1        0.1723
     36 C          20.5319   71.3527   -2.6920 C.3     1  UNL1        0.2706
     37 C          18.1811   71.3716   -3.0657 C.3     1  UNL1        0.1830
     38 H          20.2492   67.4658   -3.7630 H       1  UNL1        0.2105
     39 H          21.8910   68.4505   -3.2719 H       1  UNL1        0.2106
     40 H          17.0898   68.5795   -4.3272 H       1  UNL1        0.2106
     41 O          17.2842   72.9855   -1.6192 O.co2   1  UNL1       -0.5466
     42 O          15.8591   71.3910   -2.4103 O.co2   1  UNL1       -0.5466
     43 C          16.9747   71.8857   -2.3497 C.2     1  UNL1        0.0799
@<TRIPOS>UNITY_ATOM_ATTR
2 1
charge -1
26 1
charge -1
41 1
charge -1
@<TRIPOS>BOND
     1     1     4    1
     2     1    24    1
     3     1     2    1
     4     1     3    2
     5    25    28    1
     6    25    24    1
     7    25    26    1
     8    25    27    2
     9     6    11    1
    10     6    12    1
    11    29    36    1
    12    29    37    1
    13     7     9    1
    14     7    13    1
    15     8    10    1
    16     8    14    1
    17     4     5    1
    18    28    36    1
    19    30    33    1
    20    30    38    1
    21    31    34    1
    22    31    39    1
    23    32    35    1
    24    32    40    1
    25    41    43   ar
    26    15    19    2
    27    42    43   ar
    28    16    22    2
    29    17    12    1
    30    17    19   ar
    31    17    20   ar
    32    18    19   ar
    33    18    22   ar
    34    18    23    1
    35     9    10    1
    36     9    11    1
    37    10    12    1
    38    11     5    1
    39    33    34    1
    40    33    35    1
    41    34    36    1
    42    35    37    1
    43    37    43    1
    44    20    21   ar
    45    21    22   ar
