@<TRIPOS>MOLECULE
GDU
 43 45 0 0 0
SMALL
GASTEIGER

@<TRIPOS>ATOM
      1 P          20.5279   71.3522   -3.0459 P.3     1  UNL1        0.2189
      2 O          20.6624   71.8405   -4.4363 O.2     1  UNL1       -0.5170
      3 O          20.3644   72.6071   -2.0501 O.3     1  UNL1       -0.4371
      4 O          19.2332   70.4048   -2.9323 O.3     1  UNL1       -0.3112
      5 C          18.1312   71.2487   -2.5948 C.3     1  UNL1        0.1811
      6 C          16.7614   70.5409   -5.8429 C.3     1  UNL1        0.2383
      7 C          16.8545   69.1573   -5.1500 C.3     1  UNL1        0.1895
      8 O          15.8207   68.2850   -5.6120 O.3     1  UNL1       -0.3779
      9 C          16.6418   69.5260   -3.6586 C.3     1  UNL1        0.1713
     10 C          16.9912   71.0242   -3.5899 C.3     1  UNL1        0.1764
     11 O          17.4045   71.4309   -4.9060 O.3     1  UNL1       -0.3308
     12 O          15.2823   69.3045   -3.2783 O.3     1  UNL1       -0.3794
     13 H          15.9346   67.4457   -5.1448 H       1  UNL1        0.2106
     14 H          15.1078   68.3613   -3.3989 H       1  UNL1        0.2105
     15 N          17.4781   70.5302   -7.1193 N.ar    1  UNL1       -0.2551
     16 C          16.7867   70.5444   -8.2725 C.ar    1  UNL1        0.3323
     17 N          17.4214   70.5386   -9.4595 N.ar    1  UNL1       -0.2743
     18 C          18.7670   70.5083   -9.5109 C.ar    1  UNL1        0.2626
     19 C          19.5084   70.4871   -8.3042 C.ar    1  UNL1        0.0795
     20 C          18.8467   70.4979   -7.1275 C.ar    1  UNL1        0.0869
     21 O          15.5724   70.5723   -8.2420 O.2     1  UNL1       -0.2464
     22 O          19.3423   70.4981  -10.5848 O.2     1  UNL1       -0.2670
     23 H          16.9065   70.5535  -10.2819 H       1  UNL1        0.1734
     24 O          21.8434   70.5163   -2.6421 O.3     1  UNL1       -0.2703
     25 P          23.0201   71.5869   -2.3986 P.3     1  UNL1        0.2208
     26 O          24.3244   70.9679   -2.7221 O.2     1  UNL1       -0.5170
     27 O          22.7846   72.8676   -3.3465 O.3     1  UNL1       -0.4371
     28 O          23.0132   72.0525   -0.8581 O.3     1  UNL1       -0.2858
     29 C          23.1272   70.8692   -0.0665 C.3     1  UNL1        0.2704
     30 C          21.9451   70.7877    0.9006 C.3     1  UNL1        0.1967
     31 C          21.9414   72.0351    1.7897 C.3     1  UNL1        0.1715
     32 C          23.3175   72.1692    2.4515 C.3     1  UNL1        0.1694
     33 C          24.3962   72.1479    1.3657 C.3     1  UNL1        0.1761
     34 O          20.7248   70.7221    0.1604 O.3     1  UNL1       -0.3775
     35 O          20.9333   71.9055    2.7945 O.3     1  UNL1       -0.3794
     36 O          23.5210   71.0822    3.3554 O.3     1  UNL1       -0.3794
     37 O          24.3500   70.9055    0.6657 O.3     1  UNL1       -0.3258
     38 H          20.7742   69.9280   -0.3890 H       1  UNL1        0.2106
     39 H          20.0897   71.8121    2.3341 H       1  UNL1        0.2105
     40 H          22.8178   71.1321    4.0159 H       1  UNL1        0.2105
     41 C          25.7726   72.3158    2.0133 C.3     1  UNL1        0.1693
     42 O          26.2917   71.0324    2.3662 O.3     1  UNL1       -0.3794
     43 H          27.1580   71.1821    2.7693 H       1  UNL1        0.2105
@<TRIPOS>BOND
     1    15    16   ar
     2    15    20   ar
     3    15     6    1
     4    16    17   ar
     5    16    21    2
     6    17    18   ar
     7    17    23    1
     8    18    19   ar
     9    18    22    2
    10    19    20   ar
    11     6     7    1
    12     6    11    1
    13     7     8    1
    14     7     9    1
    15     8    13    1
    16     9    10    1
    17     9    12    1
    18    10    11    1
    19    10     5    1
    20    12    14    1
    21     5     4    1
    22     4     1    1
    23     1     2    2
    24     1     3    1
    25     1    24    1
    26    24    25    1
    27    25    26    2
    28    25    27    1
    29    25    28    1
    30    28    29    1
    31    29    30    1
    32    29    37    1
    33    30    31    1
    34    30    34    1
    35    31    32    1
    36    31    35    1
    37    32    33    1
    38    32    36    1
    39    33    41    1
    40    33    37    1
    41    41    42    1
    42    34    38    1
    43    35    39    1
    44    36    40    1
    45    42    43    1
@<TRIPOS>MOLECULE
GDU
 43 45 0 0 0
SMALL
GASTEIGER

@<TRIPOS>ATOM
      1 P          20.6688   71.7784   -1.9224 P.3     1  UNL1        0.2189
      2 O          22.1136   71.9578   -2.1870 O.2     1  UNL1       -0.5170
      3 O          19.9698   73.2200   -1.7612 O.3     1  UNL1       -0.4371
      4 O          19.9923   70.9881   -3.1490 O.3     1  UNL1       -0.3112
      5 C          18.8953   70.2486   -2.6101 C.3     1  UNL1        0.1811
      6 C          17.1432   70.4049   -5.7458 C.3     1  UNL1        0.2383
      7 C          16.9545   68.9426   -5.2671 C.3     1  UNL1        0.1895
      8 O          15.7077   68.4134   -5.7239 O.3     1  UNL1       -0.3779
      9 C          16.9554   69.1031   -3.7245 C.3     1  UNL1        0.1713
     10 C          17.6599   70.4521   -3.4890 C.3     1  UNL1        0.1764
     11 O          18.0538   70.9625   -4.7745 O.3     1  UNL1       -0.3308
     12 O          15.6170   69.1362   -3.2250 O.3     1  UNL1       -0.3794
     13 H          15.6524   67.5057   -5.3940 H       1  UNL1        0.2106
     14 H          15.2113   68.2892   -3.4546 H       1  UNL1        0.2105
     15 N          17.7331   70.4394   -7.0851 N.ar    1  UNL1       -0.2551
     16 C          16.9332   70.4506   -8.1660 C.ar    1  UNL1        0.3323
     17 N          17.4500   70.4858   -9.4084 N.ar    1  UNL1       -0.2743
     18 C          18.7846   70.5003   -9.5895 C.ar    1  UNL1        0.2626
     19 C          19.6395   70.4830   -8.4603 C.ar    1  UNL1        0.0795
     20 C          19.0948   70.4520   -7.2255 C.ar    1  UNL1        0.0869
     21 O          15.7273   70.4383   -8.0184 O.2     1  UNL1       -0.2464
     22 O          19.2534   70.5273  -10.7138 O.2     1  UNL1       -0.2670
     23 H          16.8578   70.4978  -10.1771 H       1  UNL1        0.1734
     24 O          20.4736   70.9341   -0.5654 O.3     1  UNL1       -0.2703
     25 P          21.8472   71.0593    0.2638 P.3     1  UNL1        0.2208
     26 O          21.9618   69.9215    1.2027 O.2     1  UNL1       -0.5170
     27 O          23.0933   71.0401   -0.7565 O.3     1  UNL1       -0.4371
     28 O          21.8527   72.4405    1.0898 O.3     1  UNL1       -0.2858
     29 C          22.3536   72.1423    2.3936 C.3     1  UNL1        0.2704
     30 C          21.5443   72.9124    3.4383 C.3     1  UNL1        0.1967
     31 C          21.6532   74.4123    3.1471 C.3     1  UNL1        0.1715
     32 C          23.1367   74.7888    3.0638 C.3     1  UNL1        0.1694
     33 C          23.8253   73.8770    2.0452 C.3     1  UNL1        0.1761
     34 O          20.1750   72.5093    3.3755 O.3     1  UNL1       -0.3775
     35 O          21.0258   75.1520    4.1967 O.3     1  UNL1       -0.3794
     36 O          23.7439   74.6251    4.3462 O.3     1  UNL1       -0.3794
     37 O          23.7265   72.5188    2.4710 O.3     1  UNL1       -0.3258
     38 H          20.1551   71.5598    3.5574 H       1  UNL1        0.2106
     39 H          20.1010   74.8752    4.2201 H       1  UNL1        0.2105
     40 H          23.2760   75.2119    4.9544 H       1  UNL1        0.2105
     41 C          25.3004   74.2674    1.9291 C.3     1  UNL1        0.1693
     42 O          26.0591   73.5557    2.9084 O.3     1  UNL1       -0.3794
     43 H          26.9806   73.8289    2.8013 H       1  UNL1        0.2105
@<TRIPOS>BOND
     1    15    16   ar
     2    15    20   ar
     3    15     6    1
     4    16    17   ar
     5    16    21    2
     6    17    18   ar
     7    17    23    1
     8    18    19   ar
     9    18    22    2
    10    19    20   ar
    11     6     7    1
    12     6    11    1
    13     7     8    1
    14     7     9    1
    15     8    13    1
    16     9    10    1
    17     9    12    1
    18    10    11    1
    19    10     5    1
    20    12    14    1
    21     5     4    1
    22     4     1    1
    23     1     2    2
    24     1     3    1
    25     1    24    1
    26    24    25    1
    27    25    26    2
    28    25    27    1
    29    25    28    1
    30    28    29    1
    31    29    30    1
    32    29    37    1
    33    30    31    1
    34    30    34    1
    35    31    32    1
    36    31    35    1
    37    32    33    1
    38    32    36    1
    39    33    41    1
    40    33    37    1
    41    41    42    1
    42    34    38    1
    43    35    39    1
    44    36    40    1
    45    42    43    1
@<TRIPOS>MOLECULE
GDU
 43 45 0 0 0
SMALL
GASTEIGER

@<TRIPOS>ATOM
      1 P          20.7819   71.5040   -1.4467 P.3     1  UNL1        0.2189
      2 O          21.0643   72.9424   -1.2443 O.2     1  UNL1       -0.5170
      3 O          21.2778   70.6735   -0.1594 O.3     1  UNL1       -0.4371
      4 O          19.2004   71.2901   -1.6468 O.3     1  UNL1       -0.3112
      5 C          19.0423   70.2203   -2.5801 C.3     1  UNL1        0.1811
      6 C          17.2318   70.4349   -5.6790 C.3     1  UNL1        0.2383
      7 C          17.0030   68.9803   -5.1946 C.3     1  UNL1        0.1895
      8 O          15.7296   68.4939   -5.6247 O.3     1  UNL1       -0.3779
      9 C          17.0415   69.1415   -3.6526 C.3     1  UNL1        0.1713
     10 C          17.7967   70.4656   -3.4334 C.3     1  UNL1        0.1764
     11 O          18.1810   70.9615   -4.7275 O.3     1  UNL1       -0.3308
     12 O          15.7157   69.2208   -3.1253 O.3     1  UNL1       -0.3794
     13 H          15.6500   67.5888   -5.2926 H       1  UNL1        0.2106
     14 H          15.2765   68.3881   -3.3454 H       1  UNL1        0.2105
     15 N          17.7945   70.4484   -7.0303 N.ar    1  UNL1       -0.2551
     16 C          16.9735   70.4208   -8.0949 C.ar    1  UNL1        0.3323
     17 N          17.4651   70.4360   -9.3478 N.ar    1  UNL1       -0.2743
     18 C          18.7954   70.4692   -9.5560 C.ar    1  UNL1        0.2626
     19 C          19.6725   70.4926   -8.4441 C.ar    1  UNL1        0.0795
     20 C          19.1528   70.4810   -7.1982 C.ar    1  UNL1        0.0869
     21 O          15.7711   70.3913   -7.9228 O.2     1  UNL1       -0.2464
     22 O          19.2414   70.4781  -10.6898 O.2     1  UNL1       -0.2670
     23 H          16.8577   70.4200  -10.1046 H       1  UNL1        0.1734
     24 O          21.5647   70.9832   -2.7538 O.3     1  UNL1       -0.2703
     25 P          22.8990   71.8736   -2.8842 P.3     1  UNL1        0.2208
     26 O          23.1545   72.5695   -1.6038 O.2     1  UNL1       -0.5170
     27 O          24.1485   70.9194   -3.2344 O.3     1  UNL1       -0.4371
     28 O          22.7088   72.9588   -4.0573 O.3     1  UNL1       -0.2858
     29 C          21.6522   72.4852   -4.8934 C.3     1  UNL1        0.2704
     30 C          21.9830   72.7919   -6.3549 C.3     1  UNL1        0.1967
     31 C          22.1655   74.3040   -6.5181 C.3     1  UNL1        0.1715
     32 C          20.9205   75.0099   -5.9691 C.3     1  UNL1        0.1694
     33 C          20.6713   74.5360   -4.5351 C.3     1  UNL1        0.1761
     34 O          23.1888   72.1202   -6.7238 O.3     1  UNL1       -0.3775
     35 O          22.3292   74.6212   -7.9019 O.3     1  UNL1       -0.3794
     36 O          19.7922   74.6922   -6.7852 O.3     1  UNL1       -0.3794
     37 O          20.4340   73.1291   -4.5274 O.3     1  UNL1       -0.3258
     38 H          23.0308   71.1745   -6.5989 H       1  UNL1        0.2106
     39 H          23.1138   74.1480   -8.2066 H       1  UNL1        0.2105
     40 H          19.9957   75.0027   -7.6771 H       1  UNL1        0.2105
     41 C          19.4498   75.2608   -3.9653 C.3     1  UNL1        0.1693
     42 O          19.0109   74.5937   -2.7806 O.3     1  UNL1       -0.3794
     43 H          18.2422   75.0809   -2.4535 H       1  UNL1        0.2105
@<TRIPOS>BOND
     1    15    16   ar
     2    15    20   ar
     3    15     6    1
     4    16    17   ar
     5    16    21    2
     6    17    18   ar
     7    17    23    1
     8    18    19   ar
     9    18    22    2
    10    19    20   ar
    11     6     7    1
    12     6    11    1
    13     7     8    1
    14     7     9    1
    15     8    13    1
    16     9    10    1
    17     9    12    1
    18    10    11    1
    19    10     5    1
    20    12    14    1
    21     5     4    1
    22     4     1    1
    23     1     2    2
    24     1     3    1
    25     1    24    1
    26    24    25    1
    27    25    26    2
    28    25    27    1
    29    25    28    1
    30    28    29    1
    31    29    30    1
    32    29    37    1
    33    30    31    1
    34    30    34    1
    35    31    32    1
    36    31    35    1
    37    32    33    1
    38    32    36    1
    39    33    41    1
    40    33    37    1
    41    41    42    1
    42    34    38    1
    43    35    39    1
    44    36    40    1
    45    42    43    1
@<TRIPOS>MOLECULE
GDU
 43 45 0 0 0
SMALL
GASTEIGER

@<TRIPOS>ATOM
      1 P          21.4733   72.8720   -6.3056 P.3     1  UNL1        0.2189
      2 O          21.2359   74.1338   -5.5699 O.2     1  UNL1       -0.5170
      3 O          21.5581   71.6496   -5.2610 O.3     1  UNL1       -0.4371
      4 O          20.2647   72.6152   -7.3353 O.3     1  UNL1       -0.3112
      5 C          20.6162   71.4661   -8.1077 C.3     1  UNL1        0.1811
      6 C          17.5149   70.1009   -6.9055 C.3     1  UNL1        0.2383
      7 C          17.0945   71.1250   -7.9906 C.3     1  UNL1        0.1895
      8 O          15.8845   70.7185   -8.6339 O.3     1  UNL1       -0.3779
      9 C          18.2915   71.0649   -8.9750 C.3     1  UNL1        0.1713
     10 C          19.4419   70.4861   -8.1306 C.3     1  UNL1        0.1764
     11 O          18.9414   70.2921   -6.7964 O.3     1  UNL1       -0.3308
     12 O          17.9896   70.2065  -10.0768 O.3     1  UNL1       -0.3794
     13 H          15.6789   71.3950   -9.2941 H       1  UNL1        0.2106
     14 H          17.2265   70.5901  -10.5298 H       1  UNL1        0.2105
     15 N          16.8561   70.3958   -5.6320 N.ar    1  UNL1       -0.2551
     16 C          16.4244   69.3867   -4.8550 C.ar    1  UNL1        0.3323
     17 N          15.8188   69.6306   -3.6779 N.ar    1  UNL1       -0.2743
     18 C          15.6256   70.8970   -3.2621 C.ar    1  UNL1        0.2626
     19 C          16.0699   71.9702   -4.0728 C.ar    1  UNL1        0.0795
     20 C          16.6781   71.6974   -5.2468 C.ar    1  UNL1        0.0869
     21 O          16.5920   68.2390   -5.2166 O.2     1  UNL1       -0.2464
     22 O          15.0732   71.1189   -2.1990 O.2     1  UNL1       -0.2670
     23 H          15.5174   68.8900   -3.1279 H       1  UNL1        0.1734
     24 O          22.8590   72.9785   -7.1185 O.3     1  UNL1       -0.2703
     25 P          23.1099   74.5412   -7.4105 P.3     1  UNL1        0.2208
     26 O          21.8292   75.1866   -7.7743 O.2     1  UNL1       -0.5170
     27 O          23.7086   75.2440   -6.0908 O.3     1  UNL1       -0.4371
     28 O          24.1558   74.7005   -8.6232 O.3     1  UNL1       -0.2858
     29 C          24.5723   76.0666   -8.6352 C.3     1  UNL1        0.2704
     30 C          24.2560   76.6834   -9.9985 C.3     1  UNL1        0.1967
     31 C          24.9824   75.8870  -11.0868 C.3     1  UNL1        0.1715
     32 C          26.4720   75.8181  -10.7318 C.3     1  UNL1        0.1694
     33 C          26.6204   75.2645   -9.3125 C.3     1  UNL1        0.1761
     34 O          22.8468   76.6371  -10.2294 O.3     1  UNL1       -0.3775
     35 O          24.8166   76.5368  -12.3488 O.3     1  UNL1       -0.3794
     36 O          27.0408   77.1264  -10.8015 O.3     1  UNL1       -0.3794
     37 O          25.9743   76.1363   -8.3859 O.3     1  UNL1       -0.3258
     38 H          22.4309   77.1438   -9.5187 H       1  UNL1        0.2106
     39 H          23.8678   76.5683  -12.5249 H       1  UNL1        0.2105
     40 H          26.9196   77.4363  -11.7085 H       1  UNL1        0.2105
     41 C          28.1060   75.1594   -8.9606 C.3     1  UNL1        0.1693
     42 O          28.2554   75.1004   -7.5411 O.3     1  UNL1       -0.3794
     43 H          29.2035   75.0342   -7.3619 H       1  UNL1        0.2105
@<TRIPOS>BOND
     1    15    16   ar
     2    15    20   ar
     3    15     6    1
     4    16    17   ar
     5    16    21    2
     6    17    18   ar
     7    17    23    1
     8    18    19   ar
     9    18    22    2
    10    19    20   ar
    11     6     7    1
    12     6    11    1
    13     7     8    1
    14     7     9    1
    15     8    13    1
    16     9    10    1
    17     9    12    1
    18    10    11    1
    19    10     5    1
    20    12    14    1
    21     5     4    1
    22     4     1    1
    23     1     2    2
    24     1     3    1
    25     1    24    1
    26    24    25    1
    27    25    26    2
    28    25    27    1
    29    25    28    1
    30    28    29    1
    31    29    30    1
    32    29    37    1
    33    30    31    1
    34    30    34    1
    35    31    32    1
    36    31    35    1
    37    32    33    1
    38    32    36    1
    39    33    41    1
    40    33    37    1
    41    41    42    1
    42    34    38    1
    43    35    39    1
    44    36    40    1
    45    42    43    1
@<TRIPOS>MOLECULE
GDU
 43 45 0 0 0
SMALL
GASTEIGER

@<TRIPOS>ATOM
      1 P          23.5908   72.3340   -3.3699 P.3     1  UNL1        0.2189
      2 O          24.1474   71.0009   -3.0494 O.2     1  UNL1       -0.5170
      3 O          24.5792   73.0979   -4.3860 O.3     1  UNL1       -0.4371
      4 O          22.1456   72.1621   -4.0546 O.3     1  UNL1       -0.3112
      5 C          22.3025   72.4815   -5.4380 C.3     1  UNL1        0.1811
      6 C          19.2991   70.6171   -6.0941 C.3     1  UNL1        0.2383
      7 C          19.0433   72.0051   -6.7352 C.3     1  UNL1        0.1895
      8 O          18.1861   71.8909   -7.8734 O.3     1  UNL1       -0.3779
      9 C          20.4717   72.4351   -7.1595 C.3     1  UNL1        0.1713
     10 C          21.3982   71.5775   -6.2777 C.3     1  UNL1        0.1764
     11 O          20.5616   70.7869   -5.4155 O.3     1  UNL1       -0.3308
     12 O          20.6873   72.1548   -8.5440 O.3     1  UNL1       -0.3794
     13 H          18.0671   72.7848   -8.2237 H       1  UNL1        0.2106
     14 H          20.0401   72.6751   -9.0392 H       1  UNL1        0.2105
     15 N          18.2407   70.2848   -5.1390 N.ar    1  UNL1       -0.2551
     16 C          17.1222   69.6745   -5.5687 C.ar    1  UNL1        0.3323
     17 N          16.1356   69.3549   -4.7106 N.ar    1  UNL1       -0.2743
     18 C          16.2498   69.6521   -3.4019 C.ar    1  UNL1        0.2626
     19 C          17.4199   70.3001   -2.9359 C.ar    1  UNL1        0.0795
     20 C          18.3959   70.6055   -3.8172 C.ar    1  UNL1        0.0869
     21 O          17.0050   69.3996   -6.7463 O.2     1  UNL1       -0.2464
     22 O          15.3552   69.3675   -2.6252 O.2     1  UNL1       -0.2670
     23 H          15.3370   68.9107   -5.0374 H       1  UNL1        0.1734
     24 O          23.4460   73.1936   -2.0162 O.3     1  UNL1       -0.2703
     25 P          22.9169   72.1862   -0.8781 P.3     1  UNL1        0.2208
     26 O          21.6239   71.6026   -1.2985 O.2     1  UNL1       -0.5170
     27 O          23.9928   71.0069   -0.6633 O.3     1  UNL1       -0.4371
     28 O          22.7207   72.9898    0.5024 O.3     1  UNL1       -0.2858
     29 C          23.6542   72.4451    1.4359 C.3     1  UNL1        0.2704
     30 C          22.9105   71.9879    2.6918 C.3     1  UNL1        0.1967
     31 C          22.1746   73.1860    3.2994 C.3     1  UNL1        0.1715
     32 C          23.1813   74.3217    3.5146 C.3     1  UNL1        0.1694
     33 C          23.9035   74.6034    2.1948 C.3     1  UNL1        0.1761
     34 O          21.9686   70.9706    2.3466 O.3     1  UNL1       -0.3775
     35 O          21.5965   72.8100    4.5512 O.3     1  UNL1       -0.3794
     36 O          24.1295   73.9372    4.5112 O.3     1  UNL1       -0.3794
     37 O          24.6165   73.4397    1.7783 O.3     1  UNL1       -0.3258
     38 H          22.4740   70.2412    1.9624 H       1  UNL1        0.2106
     39 H          20.9815   72.0880    4.3698 H       1  UNL1        0.2105
     40 H          23.6307   73.7648    5.3204 H       1  UNL1        0.2105
     41 C          24.8871   75.7594    2.3903 C.3     1  UNL1        0.1693
     42 O          24.1789   76.9151    2.8419 O.3     1  UNL1       -0.3794
     43 H          24.8332   77.6185    2.9532 H       1  UNL1        0.2105
@<TRIPOS>BOND
     1    15    16   ar
     2    15    20   ar
     3    15     6    1
     4    16    17   ar
     5    16    21    2
     6    17    18   ar
     7    17    23    1
     8    18    19   ar
     9    18    22    2
    10    19    20   ar
    11     6     7    1
    12     6    11    1
    13     7     8    1
    14     7     9    1
    15     8    13    1
    16     9    10    1
    17     9    12    1
    18    10    11    1
    19    10     5    1
    20    12    14    1
    21     5     4    1
    22     4     1    1
    23     1     2    2
    24     1     3    1
    25     1    24    1
    26    24    25    1
    27    25    26    2
    28    25    27    1
    29    25    28    1
    30    28    29    1
    31    29    30    1
    32    29    37    1
    33    30    31    1
    34    30    34    1
    35    31    32    1
    36    31    35    1
    37    32    33    1
    38    32    36    1
    39    33    41    1
    40    33    37    1
    41    41    42    1
    42    34    38    1
    43    35    39    1
    44    36    40    1
    45    42    43    1
@<TRIPOS>MOLECULE
GDU
 43 45 0 0 0
SMALL
GASTEIGER

@<TRIPOS>ATOM
      1 P          22.9918   72.9469   -4.4413 P.3     1  UNL1        0.2189
      2 O          24.4624   72.8221   -4.3345 O.2     1  UNL1       -0.5170
      3 O          22.6262   74.2335   -5.3379 O.3     1  UNL1       -0.4371
      4 O          22.3892   71.6242   -5.1299 O.3     1  UNL1       -0.3112
      5 C          21.7920   72.0341   -6.3611 C.3     1  UNL1        0.1811
      6 C          18.6062   70.4526   -5.8347 C.3     1  UNL1        0.2383
      7 C          18.2898   71.6757   -6.7330 C.3     1  UNL1        0.1895
      8 O          17.1726   71.4081   -7.5837 O.3     1  UNL1       -0.3779
      9 C          19.5938   71.8171   -7.5605 C.3     1  UNL1        0.1713
     10 C          20.6523   71.0789   -6.7200 C.3     1  UNL1        0.1764
     11 O          20.0054   70.6180   -5.5212 O.3     1  UNL1       -0.3308
     12 O          19.4425   71.2002   -8.8406 O.3     1  UNL1       -0.3794
     13 H          17.0285   72.2046   -8.1135 H       1  UNL1        0.2106
     14 H          18.7279   71.6677   -9.2940 H       1  UNL1        0.2105
     15 N          17.7973   70.4827   -4.6150 N.ar    1  UNL1       -0.2551
     16 C          16.8431   69.5545   -4.4247 C.ar    1  UNL1        0.3323
     17 N          16.0878   69.5576   -3.3104 N.ar    1  UNL1       -0.2743
     18 C          16.2707   70.5021   -2.3677 C.ar    1  UNL1        0.2626
     19 C          17.2683   71.4895   -2.5573 C.ar    1  UNL1        0.0795
     20 C          18.0144   71.4607   -3.6820 C.ar    1  UNL1        0.0869
     21 O          16.6668   68.6960   -5.2660 O.2     1  UNL1       -0.2464
     22 O          15.5843   70.5085   -1.3610 O.2     1  UNL1       -0.2670
     23 H          15.4065   68.8776   -3.1876 H       1  UNL1        0.1734
     24 O          22.3609   73.1227   -2.9704 O.3     1  UNL1       -0.2703
     25 P          22.7359   71.7960   -2.1402 P.3     1  UNL1        0.2208
     26 O          21.6179   70.8304   -2.2224 O.2     1  UNL1       -0.5170
     27 O          24.0648   71.1316   -2.7623 O.3     1  UNL1       -0.4371
     28 O          23.0008   72.1821   -0.6005 O.3     1  UNL1       -0.2858
     29 C          23.0900   70.9554    0.1255 C.3     1  UNL1        0.2704
     30 C          21.9286   70.8648    1.1167 C.3     1  UNL1        0.1967
     31 C          21.9914   72.0628    2.0692 C.3     1  UNL1        0.1715
     32 C          23.3866   72.1131    2.7020 C.3     1  UNL1        0.1694
     33 C          24.4381   72.1111    1.5896 C.3     1  UNL1        0.1761
     34 O          20.6898   70.8815    0.4052 O.3     1  UNL1       -0.3775
     35 O          21.0031   71.9160    3.0910 O.3     1  UNL1       -0.3794
     36 O          23.5713   70.9733    3.5428 O.3     1  UNL1       -0.3794
     37 O          24.3301   70.9097    0.8274 O.3     1  UNL1       -0.3258
     38 H          20.6971   70.1162   -0.1857 H       1  UNL1        0.2106
     39 H          20.1461   71.8769    2.6479 H       1  UNL1        0.2105
     40 H          22.8861   71.0130    4.2226 H       1  UNL1        0.2105
     41 C          25.8345   72.1958    2.2100 C.3     1  UNL1        0.1693
     42 O          26.3435   70.8771    2.4173 O.3     1  UNL1       -0.3794
     43 H          27.2229   70.9746    2.8077 H       1  UNL1        0.2105
@<TRIPOS>BOND
     1    15    16   ar
     2    15    20   ar
     3    15     6    1
     4    16    17   ar
     5    16    21    2
     6    17    18   ar
     7    17    23    1
     8    18    19   ar
     9    18    22    2
    10    19    20   ar
    11     6     7    1
    12     6    11    1
    13     7     8    1
    14     7     9    1
    15     8    13    1
    16     9    10    1
    17     9    12    1
    18    10    11    1
    19    10     5    1
    20    12    14    1
    21     5     4    1
    22     4     1    1
    23     1     2    2
    24     1     3    1
    25     1    24    1
    26    24    25    1
    27    25    26    2
    28    25    27    1
    29    25    28    1
    30    28    29    1
    31    29    30    1
    32    29    37    1
    33    30    31    1
    34    30    34    1
    35    31    32    1
    36    31    35    1
    37    32    33    1
    38    32    36    1
    39    33    41    1
    40    33    37    1
    41    41    42    1
    42    34    38    1
    43    35    39    1
    44    36    40    1
    45    42    43    1
@<TRIPOS>MOLECULE
GDU
 43 45 0 0 0
SMALL
GASTEIGER

@<TRIPOS>ATOM
      1 P          20.8201   71.8692   -2.4019 P.3     1  UNL1        0.2189
      2 O          21.4991   70.5559   -2.4620 O.2     1  UNL1       -0.5170
      3 O          20.9256   72.5939   -3.8360 O.3     1  UNL1       -0.4371
      4 O          19.2721   71.6565   -2.0206 O.3     1  UNL1       -0.3112
      5 C          18.8882   70.3840   -2.5440 C.3     1  UNL1        0.1811
      6 C          17.1429   70.4552   -5.6866 C.3     1  UNL1        0.2383
      7 C          16.9855   68.9962   -5.1871 C.3     1  UNL1        0.1895
      8 O          15.7523   68.4326   -5.6396 O.3     1  UNL1       -0.3779
      9 C          16.9779   69.1792   -3.6470 C.3     1  UNL1        0.1713
     10 C          17.6513   70.5469   -3.4293 C.3     1  UNL1        0.1764
     11 O          18.0377   71.0472   -4.7210 O.3     1  UNL1       -0.3308
     12 O          15.6375   69.1895   -3.1518 O.3     1  UNL1       -0.3794
     13 H          15.7163   67.5288   -5.2966 H       1  UNL1        0.2106
     14 H          15.2516   68.3304   -3.3701 H       1  UNL1        0.2105
     15 N          17.7361   70.4834   -7.0246 N.ar    1  UNL1       -0.2551
     16 C          16.9403   70.4437   -8.1078 C.ar    1  UNL1        0.3323
     17 N          17.4601   70.4719   -9.3492 N.ar    1  UNL1       -0.2743
     18 C          18.7940   70.5307   -9.5266 C.ar    1  UNL1        0.2626
     19 C          19.6448   70.5673   -8.3948 C.ar    1  UNL1        0.0795
     20 C          19.0970   70.5421   -7.1612 C.ar    1  UNL1        0.0869
     21 O          15.7351   70.3910   -7.9636 O.2     1  UNL1       -0.2464
     22 O          19.2656   70.5515  -10.6499 O.2     1  UNL1       -0.2670
     23 H          16.8706   70.4468  -10.1197 H       1  UNL1        0.1734
     24 O          21.5280   72.7876   -1.2847 O.3     1  UNL1       -0.2703
     25 P          20.8693   72.3930    0.1296 P.3     1  UNL1        0.2208
     26 O          19.5835   73.1069    0.2910 O.2     1  UNL1       -0.5170
     27 O          20.6097   70.8041    0.1758 O.3     1  UNL1       -0.4371
     28 O          21.8676   72.8073    1.3220 O.3     1  UNL1       -0.2858
     29 C          23.1467   73.0391    0.7306 C.3     1  UNL1        0.2704
     30 C          23.9862   71.7635    0.8167 C.3     1  UNL1        0.1967
     31 C          24.1351   71.3629    2.2876 C.3     1  UNL1        0.1715
     32 C          24.6871   72.5610    3.0684 C.3     1  UNL1        0.1694
     33 C          23.7925   73.7765    2.8128 C.3     1  UNL1        0.1761
     34 O          23.3373   70.7140    0.0965 O.3     1  UNL1       -0.3775
     35 O          25.0369   70.2595    2.3958 O.3     1  UNL1       -0.3794
     36 O          26.0185   72.8418    2.6342 O.3     1  UNL1       -0.3794
     37 O          23.8034   74.0985    1.4228 O.3     1  UNL1       -0.3258
     38 H          23.2586   71.0118   -0.8200 H       1  UNL1        0.2106
     39 H          24.6567   69.5359    1.8819 H       1  UNL1        0.2105
     40 H          26.5428   72.0493    2.8086 H       1  UNL1        0.2105
     41 C          24.3154   74.9701    3.6152 C.3     1  UNL1        0.1693
     42 O          25.1474   74.5010    4.6777 O.3     1  UNL1       -0.3794
     43 H          25.4561   75.2821    5.1572 H       1  UNL1        0.2105
@<TRIPOS>BOND
     1    15    16   ar
     2    15    20   ar
     3    15     6    1
     4    16    17   ar
     5    16    21    2
     6    17    18   ar
     7    17    23    1
     8    18    19   ar
     9    18    22    2
    10    19    20   ar
    11     6     7    1
    12     6    11    1
    13     7     8    1
    14     7     9    1
    15     8    13    1
    16     9    10    1
    17     9    12    1
    18    10    11    1
    19    10     5    1
    20    12    14    1
    21     5     4    1
    22     4     1    1
    23     1     2    2
    24     1     3    1
    25     1    24    1
    26    24    25    1
    27    25    26    2
    28    25    27    1
    29    25    28    1
    30    28    29    1
    31    29    30    1
    32    29    37    1
    33    30    31    1
    34    30    34    1
    35    31    32    1
    36    31    35    1
    37    32    33    1
    38    32    36    1
    39    33    41    1
    40    33    37    1
    41    41    42    1
    42    34    38    1
    43    35    39    1
    44    36    40    1
    45    42    43    1
@<TRIPOS>MOLECULE
GDU
 43 45 0 0 0
SMALL
GASTEIGER

@<TRIPOS>ATOM
      1 P          21.2746   71.4255   -0.6908 P.3     1  UNL1        0.2189
      2 O          21.1599   70.3320    0.2995 O.2     1  UNL1       -0.5170
      3 O          20.1765   72.5584   -0.3688 O.3     1  UNL1       -0.4371
      4 O          22.7471   72.0679   -0.6133 O.3     1  UNL1       -0.3112
      5 C          23.4067   71.4580    0.4973 C.3     1  UNL1        0.1811
      6 C          25.3558   73.3043    2.8889 C.3     1  UNL1        0.2383
      7 C          25.3523   74.1943    1.6197 C.3     1  UNL1        0.1895
      8 O          25.4274   75.5787    1.9675 O.3     1  UNL1       -0.3779
      9 C          23.9761   73.8561    0.9896 C.3     1  UNL1        0.1713
     10 C          23.6072   72.4936    1.6052 C.3     1  UNL1        0.1764
     11 O          24.6973   72.0954    2.4545 O.3     1  UNL1       -0.3308
     12 O          23.0093   74.8487    1.3389 O.3     1  UNL1       -0.3794
     13 H          25.4215   76.0754    1.1374 H       1  UNL1        0.2106
     14 H          23.3255   75.6874    0.9766 H       1  UNL1        0.2105
     15 N          26.7260   73.0196    3.3181 N.ar    1  UNL1       -0.2551
     16 C          27.3374   73.8438    4.1871 C.ar    1  UNL1        0.3323
     17 N          28.5956   73.6028    4.6004 N.ar    1  UNL1       -0.2743
     18 C          29.2693   72.5313    4.1396 C.ar    1  UNL1        0.2626
     19 C          28.6399   71.6576    3.2194 C.ar    1  UNL1        0.0795
     20 C          27.3759   71.9204    2.8247 C.ar    1  UNL1        0.0869
     21 O          26.7423   74.8140    4.6119 O.2     1  UNL1       -0.2464
     22 O          30.4098   72.3150    4.5095 O.2     1  UNL1       -0.2670
     23 H          29.0199   74.2059    5.2313 H       1  UNL1        0.1734
     24 O          21.0208   70.8387   -2.1685 O.3     1  UNL1       -0.2703
     25 P          21.5543   71.9454   -3.2080 P.3     1  UNL1        0.2208
     26 O          21.6283   73.2602   -2.5336 O.2     1  UNL1       -0.5170
     27 O          23.0193   71.5280   -3.7311 O.3     1  UNL1       -0.4371
     28 O          20.5457   72.0388   -4.4587 O.3     1  UNL1       -0.2858
     29 C          20.5540   70.7601   -5.0948 C.3     1  UNL1        0.2704
     30 C          20.9159   70.9283   -6.5713 C.3     1  UNL1        0.1967
     31 C          19.8915   71.8551   -7.2333 C.3     1  UNL1        0.1715
     32 C          18.4866   71.3041   -6.9647 C.3     1  UNL1        0.1694
     33 C          18.3082   71.1091   -5.4570 C.3     1  UNL1        0.1761
     34 O          22.2213   71.4983   -6.6823 O.3     1  UNL1       -0.3775
     35 O          20.1291   71.9053   -8.6417 O.3     1  UNL1       -0.3794
     36 O          18.3278   70.0530   -7.6352 O.3     1  UNL1       -0.3794
     37 O          19.2640   70.1645   -4.9774 O.3     1  UNL1       -0.3258
     38 H          22.8307   70.8867   -6.2471 H       1  UNL1        0.2106
     39 H          21.0248   72.2450   -8.7625 H       1  UNL1        0.2105
     40 H          18.4539   70.2227   -8.5779 H       1  UNL1        0.2105
     41 C          16.8960   70.5913   -5.1750 C.3     1  UNL1        0.1693
     42 O          16.0282   70.9700   -6.2448 O.3     1  UNL1       -0.3794
     43 H          15.1510   70.6248   -6.0292 H       1  UNL1        0.2105
@<TRIPOS>BOND
     1    15    16   ar
     2    15    20   ar
     3    15     6    1
     4    16    17   ar
     5    16    21    2
     6    17    18   ar
     7    17    23    1
     8    18    19   ar
     9    18    22    2
    10    19    20   ar
    11     6     7    1
    12     6    11    1
    13     7     8    1
    14     7     9    1
    15     8    13    1
    16     9    10    1
    17     9    12    1
    18    10    11    1
    19    10     5    1
    20    12    14    1
    21     5     4    1
    22     4     1    1
    23     1     2    2
    24     1     3    1
    25     1    24    1
    26    24    25    1
    27    25    26    2
    28    25    27    1
    29    25    28    1
    30    28    29    1
    31    29    30    1
    32    29    37    1
    33    30    31    1
    34    30    34    1
    35    31    32    1
    36    31    35    1
    37    32    33    1
    38    32    36    1
    39    33    41    1
    40    33    37    1
    41    41    42    1
    42    34    38    1
    43    35    39    1
    44    36    40    1
    45    42    43    1
@<TRIPOS>MOLECULE
GDU
 43 45 0 0 0
SMALL
GASTEIGER

@<TRIPOS>ATOM
      1 P          20.4749   71.3760   -1.3319 P.3     1  UNL1        0.2189
      2 O          20.3160   72.7640   -1.8193 O.2     1  UNL1       -0.5170
      3 O          20.9623   71.3986    0.2027 O.3     1  UNL1       -0.4371
      4 O          19.0669   70.6056   -1.4364 O.3     1  UNL1       -0.3112
      5 C          19.0885   69.8682   -2.6596 C.3     1  UNL1        0.1811
      6 C          17.2917   70.3399   -5.7380 C.3     1  UNL1        0.2383
      7 C          16.9780   68.8793   -5.3242 C.3     1  UNL1        0.1895
      8 O          15.6778   68.4902   -5.7730 O.3     1  UNL1       -0.3779
      9 C          17.0269   68.9625   -3.7763 C.3     1  UNL1        0.1713
     10 C          17.8589   70.2276   -3.4956 C.3     1  UNL1        0.1764
     11 O          18.2708   70.7626   -4.7653 O.3     1  UNL1       -0.3308
     12 O          15.7084   69.0937   -3.2412 O.3     1  UNL1       -0.3794
     13 H          15.5454   67.5762   -5.4851 H       1  UNL1        0.2106
     14 H          15.2208   68.3000   -3.5000 H       1  UNL1        0.2105
     15 N          17.8533   70.3862   -7.0890 N.ar    1  UNL1       -0.2551
     16 C          17.0312   70.4542   -8.1510 C.ar    1  UNL1        0.3323
     17 N          17.5220   70.5015   -9.4035 N.ar    1  UNL1       -0.2743
     18 C          18.8520   70.4713   -9.6142 C.ar    1  UNL1        0.2626
     19 C          19.7299   70.3939   -8.5054 C.ar    1  UNL1        0.0795
     20 C          19.2112   70.3520   -7.2597 C.ar    1  UNL1        0.0869
     21 O          15.8292   70.4828   -7.9765 O.2     1  UNL1       -0.2464
     22 O          19.2970   70.5092  -10.7478 O.2     1  UNL1       -0.2670
     23 H          16.9141   70.5548  -10.1581 H       1  UNL1        0.1734
     24 O          21.5726   70.6149   -2.2309 O.3     1  UNL1       -0.2703
     25 P          22.8678   71.5682   -2.2923 P.3     1  UNL1        0.2208
     26 O          23.1890   72.0517   -0.9314 O.2     1  UNL1       -0.5170
     27 O          24.1183   70.7371   -2.8750 O.3     1  UNL1       -0.4371
     28 O          22.5659   72.8244   -3.2519 O.3     1  UNL1       -0.2858
     29 C          23.7648   73.0860   -3.9826 C.3     1  UNL1        0.2704
     30 C          24.2172   74.5234   -3.7209 C.3     1  UNL1        0.1967
     31 C          23.1026   75.4827   -4.1493 C.3     1  UNL1        0.1715
     32 C          22.7208   75.1732   -5.6012 C.3     1  UNL1        0.1694
     33 C          22.3796   73.6857   -5.7199 C.3     1  UNL1        0.1761
     34 O          24.4885   74.6938   -2.3286 O.3     1  UNL1       -0.3775
     35 O          23.5649   76.8313   -4.0490 O.3     1  UNL1       -0.3794
     36 O          23.8173   75.4869   -6.4609 O.3     1  UNL1       -0.3794
     37 O          23.5205   72.9012   -5.3750 O.3     1  UNL1       -0.3258
     38 H          25.1890   74.0669   -2.1021 H       1  UNL1        0.2106
     39 H          23.8042   76.9771   -3.1250 H       1  UNL1        0.2105
     40 H          24.0000   76.4290   -6.3490 H       1  UNL1        0.2105
     41 C          21.9637   73.3728   -7.1590 C.3     1  UNL1        0.1693
     42 O          23.1132   72.9818   -7.9118 O.3     1  UNL1       -0.3794
     43 H          22.8086   72.7932   -8.8101 H       1  UNL1        0.2105
@<TRIPOS>BOND
     1    15    16   ar
     2    15    20   ar
     3    15     6    1
     4    16    17   ar
     5    16    21    2
     6    17    18   ar
     7    17    23    1
     8    18    19   ar
     9    18    22    2
    10    19    20   ar
    11     6     7    1
    12     6    11    1
    13     7     8    1
    14     7     9    1
    15     8    13    1
    16     9    10    1
    17     9    12    1
    18    10    11    1
    19    10     5    1
    20    12    14    1
    21     5     4    1
    22     4     1    1
    23     1     2    2
    24     1     3    1
    25     1    24    1
    26    24    25    1
    27    25    26    2
    28    25    27    1
    29    25    28    1
    30    28    29    1
    31    29    30    1
    32    29    37    1
    33    30    31    1
    34    30    34    1
    35    31    32    1
    36    31    35    1
    37    32    33    1
    38    32    36    1
    39    33    41    1
    40    33    37    1
    41    41    42    1
    42    34    38    1
    43    35    39    1
    44    36    40    1
    45    42    43    1
@<TRIPOS>MOLECULE
GDU
 43 45 0 0 0
SMALL
GASTEIGER

@<TRIPOS>ATOM
      1 P          15.4438   71.1931   -1.5822 P.3     1  UNL1        0.2189
      2 O          14.3970   71.3595   -2.6148 O.2     1  UNL1       -0.5170
      3 O          15.2591   72.3180   -0.4449 O.3     1  UNL1       -0.4371
      4 O          15.3167   69.7334   -0.9189 O.3     1  UNL1       -0.3112
      5 C          14.0871   69.7149   -0.1920 C.3     1  UNL1        0.1811
      6 C          13.1649   66.9630    1.9302 C.3     1  UNL1        0.2383
      7 C          11.8152   67.5962    1.5056 C.3     1  UNL1        0.1895
      8 O          10.7857   66.6066    1.4404 O.3     1  UNL1       -0.3779
      9 C          12.1443   68.1459    0.0932 C.3     1  UNL1        0.1713
     10 C          13.6795   68.2671    0.0871 C.3     1  UNL1        0.1764
     11 O          14.1480   67.8698    1.3874 O.3     1  UNL1       -0.3308
     12 O          11.7039   67.2324   -0.9135 O.3     1  UNL1       -0.3794
     13 H           9.9763   67.0636    1.1725 H       1  UNL1        0.2106
     14 H          10.7448   67.1539   -0.8203 H       1  UNL1        0.2105
     15 N          13.2712   66.8997    3.3888 N.ar    1  UNL1       -0.2551
     16 C          12.9760   65.7551    4.0299 C.ar    1  UNL1        0.3323
     17 N          13.0689   65.6693    5.3700 N.ar    1  UNL1       -0.2743
     18 C          13.4519   66.7380    6.0948 C.ar    1  UNL1        0.2626
     19 C          13.7605   67.9520    5.4335 C.ar    1  UNL1        0.0795
     20 C          13.6630   68.0093    4.0883 C.ar    1  UNL1        0.0869
     21 O          12.6296   64.7825    3.3894 O.2     1  UNL1       -0.2464
     22 O          13.5317   66.6627    7.3083 O.2     1  UNL1       -0.2670
     23 H          12.8561   64.8340    5.8158 H       1  UNL1        0.1734
     24 O          16.8954   71.3511   -2.2607 O.3     1  UNL1       -0.2703
     25 P          17.2033   69.9719   -3.0307 P.3     1  UNL1        0.2208
     26 O          18.1525   69.1637   -2.2340 O.2     1  UNL1       -0.5170
     27 O          15.8323   69.1496   -3.2270 O.3     1  UNL1       -0.4371
     28 O          17.8465   70.2920   -4.4707 O.3     1  UNL1       -0.2858
     29 C          16.9219   71.1343   -5.1603 C.3     1  UNL1        0.2704
     30 C          16.5472   70.4921   -6.4969 C.3     1  UNL1        0.1967
     31 C          17.8186   70.2910   -7.3272 C.3     1  UNL1        0.1715
     32 C          18.5533   71.6323   -7.4312 C.3     1  UNL1        0.1694
     33 C          18.7777   72.1874   -6.0225 C.3     1  UNL1        0.1761
     34 O          15.9221   69.2290   -6.2624 O.3     1  UNL1       -0.3775
     35 O          17.4705   69.8289   -8.6340 O.3     1  UNL1       -0.3794
     36 O          17.7667   72.5502   -8.1920 O.3     1  UNL1       -0.3794
     37 O          17.5199   72.4086   -5.3862 O.3     1  UNL1       -0.3258
     38 H          15.1326   69.4026   -5.7319 H       1  UNL1        0.2106
     39 H          17.0019   68.9925   -8.5195 H       1  UNL1        0.2105
     40 H          17.6464   72.1577   -9.0665 H       1  UNL1        0.2105
     41 C          19.5412   73.5106   -6.1132 C.3     1  UNL1        0.1693
     42 O          20.3590   73.5083   -7.2846 O.3     1  UNL1       -0.3794
     43 H          20.8214   74.3574   -7.3048 H       1  UNL1        0.2105
@<TRIPOS>BOND
     1    15    16   ar
     2    15    20   ar
     3    15     6    1
     4    16    17   ar
     5    16    21    2
     6    17    18   ar
     7    17    23    1
     8    18    19   ar
     9    18    22    2
    10    19    20   ar
    11     6     7    1
    12     6    11    1
    13     7     8    1
    14     7     9    1
    15     8    13    1
    16     9    10    1
    17     9    12    1
    18    10    11    1
    19    10     5    1
    20    12    14    1
    21     5     4    1
    22     4     1    1
    23     1     2    2
    24     1     3    1
    25     1    24    1
    26    24    25    1
    27    25    26    2
    28    25    27    1
    29    25    28    1
    30    28    29    1
    31    29    30    1
    32    29    37    1
    33    30    31    1
    34    30    34    1
    35    31    32    1
    36    31    35    1
    37    32    33    1
    38    32    36    1
    39    33    41    1
    40    33    37    1
    41    41    42    1
    42    34    38    1
    43    35    39    1
    44    36    40    1
    45    42    43    1
@<TRIPOS>MOLECULE
GDU
 43 45 0 0 0
SMALL
GASTEIGER

@<TRIPOS>ATOM
      1 P          20.9835   71.5420   -1.5835 P.3     1  UNL1        0.2189
      2 O          20.6170   70.6472   -0.4635 O.2     1  UNL1       -0.5170
      3 O          22.2134   70.9012   -2.4019 O.3     1  UNL1       -0.4371
      4 O          19.7210   71.7196   -2.5641 O.3     1  UNL1       -0.3112
      5 C          19.0140   70.4784   -2.5574 C.3     1  UNL1        0.1811
      6 C          17.1872   70.4469   -5.6540 C.3     1  UNL1        0.2383
      7 C          17.0613   68.9996   -5.1133 C.3     1  UNL1        0.1895
      8 O          15.8241   68.4095   -5.5187 O.3     1  UNL1       -0.3779
      9 C          17.0913   69.2224   -3.5788 C.3     1  UNL1        0.1713
     10 C          17.7527   70.6033   -3.4139 C.3     1  UNL1        0.1764
     11 O          18.0991   71.0745   -4.7277 O.3     1  UNL1       -0.3308
     12 O          15.7642   69.2294   -3.0490 O.3     1  UNL1       -0.3794
     13 H          15.8085   67.5146   -5.1518 H       1  UNL1        0.2106
     14 H          15.3837   68.3603   -3.2350 H       1  UNL1        0.2105
     15 N          17.7452   70.4474   -7.0074 N.ar    1  UNL1       -0.2551
     16 C          16.9198   70.4398   -8.0690 C.ar    1  UNL1        0.3323
     17 N          17.4070   70.4437   -9.3238 N.ar    1  UNL1       -0.2743
     18 C          18.7370   70.4454   -9.5368 C.ar    1  UNL1        0.2626
     19 C          19.6185   70.4476   -8.4281 C.ar    1  UNL1        0.0795
     20 C          19.1032   70.4479   -7.1803 C.ar    1  UNL1        0.0869
     21 O          15.7177   70.4388   -7.8925 O.2     1  UNL1       -0.2464
     22 O          19.1789   70.4441  -10.6722 O.2     1  UNL1       -0.2670
     23 H          16.7966   70.4425  -10.0782 H       1  UNL1        0.1734
     24 O          21.4186   72.9786   -1.0012 O.3     1  UNL1       -0.2703
     25 P          20.9897   74.0759   -2.0975 P.3     1  UNL1        0.2208
     26 O          19.5439   73.9471   -2.3845 O.2     1  UNL1       -0.5170
     27 O          21.2937   75.5512   -1.5272 O.3     1  UNL1       -0.4371
     28 O          21.8293   73.8412   -3.4502 O.3     1  UNL1       -0.2858
     29 C          20.9055   73.9418   -4.5348 C.3     1  UNL1        0.2704
     30 C          21.2614   72.9078   -5.6042 C.3     1  UNL1        0.1967
     31 C          22.6925   73.1625   -6.0874 C.3     1  UNL1        0.1715
     32 C          22.8069   74.6254   -6.5308 C.3     1  UNL1        0.1694
     33 C          22.3354   75.5298   -5.3894 C.3     1  UNL1        0.1761
     34 O          21.1684   71.5944   -5.0498 O.3     1  UNL1       -0.3775
     35 O          22.9883   72.3002   -7.1880 O.3     1  UNL1       -0.3794
     36 O          21.9928   74.8401   -7.6845 O.3     1  UNL1       -0.3794
     37 O          20.9679   75.2535   -5.0899 O.3     1  UNL1       -0.3258
     38 H          20.2552   71.4808   -4.7530 H       1  UNL1        0.2106
     39 H          22.8925   71.3945   -6.8675 H       1  UNL1        0.2105
     40 H          22.3214   74.2476   -8.3731 H       1  UNL1        0.2105
     41 C          22.4779   76.9945   -5.8094 C.3     1  UNL1        0.1693
     42 O          23.5335   77.1146   -6.7645 O.3     1  UNL1       -0.3794
     43 H          23.5898   78.0501   -7.0032 H       1  UNL1        0.2105
@<TRIPOS>BOND
     1    15    16   ar
     2    15    20   ar
     3    15     6    1
     4    16    17   ar
     5    16    21    2
     6    17    18   ar
     7    17    23    1
     8    18    19   ar
     9    18    22    2
    10    19    20   ar
    11     6     7    1
    12     6    11    1
    13     7     8    1
    14     7     9    1
    15     8    13    1
    16     9    10    1
    17     9    12    1
    18    10    11    1
    19    10     5    1
    20    12    14    1
    21     5     4    1
    22     4     1    1
    23     1     2    2
    24     1     3    1
    25     1    24    1
    26    24    25    1
    27    25    26    2
    28    25    27    1
    29    25    28    1
    30    28    29    1
    31    29    30    1
    32    29    37    1
    33    30    31    1
    34    30    34    1
    35    31    32    1
    36    31    35    1
    37    32    33    1
    38    32    36    1
    39    33    41    1
    40    33    37    1
    41    41    42    1
    42    34    38    1
    43    35    39    1
    44    36    40    1
    45    42    43    1
@<TRIPOS>MOLECULE
GDU
 43 45 0 0 0
SMALL
GASTEIGER

@<TRIPOS>ATOM
      1 P          23.5865   72.3217   -3.2720 P.3     1  UNL1        0.2189
      2 O          24.0345   70.9304   -3.0419 O.2     1  UNL1       -0.5170
      3 O          24.6451   73.0759   -4.2226 O.3     1  UNL1       -0.4371
      4 O          22.1424   72.3108   -3.9800 O.3     1  UNL1       -0.3112
      5 C          22.3619   72.5470   -5.3716 C.3     1  UNL1        0.1811
      6 C          19.3469   70.6948   -6.0087 C.3     1  UNL1        0.2383
      7 C          19.1127   72.0663   -6.6921 C.3     1  UNL1        0.1895
      8 O          18.2672   71.9281   -7.8364 O.3     1  UNL1       -0.3779
      9 C          20.5502   72.4696   -7.1121 C.3     1  UNL1        0.1713
     10 C          21.4578   71.6284   -6.1954 C.3     1  UNL1        0.1764
     11 O          20.6034   70.8714   -5.3207 O.3     1  UNL1       -0.3308
     12 O          20.7784   72.1475   -8.4854 O.3     1  UNL1       -0.3794
     13 H          18.1615   72.8127   -8.2134 H       1  UNL1        0.2106
     14 H          20.1423   72.6598   -9.0027 H       1  UNL1        0.2105
     15 N          18.2745   70.4007   -5.0567 N.ar    1  UNL1       -0.2551
     16 C          17.1736   69.7500   -5.4725 C.ar    1  UNL1        0.3323
     17 N          16.1746   69.4642   -4.6167 N.ar    1  UNL1       -0.2743
     18 C          16.2584   69.8365   -3.3250 C.ar    1  UNL1        0.2626
     19 C          17.4096   70.5277   -2.8741 C.ar    1  UNL1        0.0795
     20 C          18.3986   70.7979   -3.7525 C.ar    1  UNL1        0.0869
     21 O          17.0839   69.4073   -6.6346 O.2     1  UNL1       -0.2464
     22 O          15.3526   69.5825   -2.5507 O.2     1  UNL1       -0.2670
     23 H          15.3892   68.9900   -4.9331 H       1  UNL1        0.1734
     24 O          23.4887   73.0932   -1.8622 O.3     1  UNL1       -0.2703
     25 P          22.6577   72.1409   -0.8659 P.3     1  UNL1        0.2208
     26 O          21.4893   71.5803   -1.5797 O.2     1  UNL1       -0.5170
     27 O          23.6033   70.9396   -0.3590 O.3     1  UNL1       -0.4371
     28 O          22.1542   72.9966    0.4007 O.3     1  UNL1       -0.2858
     29 C          21.0719   72.2724    0.9870 C.3     1  UNL1        0.2704
     30 C          19.8555   73.1905    1.1160 C.3     1  UNL1        0.1967
     31 C          20.2310   74.3969    1.9821 C.3     1  UNL1        0.1715
     32 C          20.8075   73.8878    3.3080 C.3     1  UNL1        0.1694
     33 C          21.9539   72.9175    3.0124 C.3     1  UNL1        0.1761
     34 O          19.4530   73.6367   -0.1802 O.3     1  UNL1       -0.3775
     35 O          19.0677   75.1880    2.2338 O.3     1  UNL1       -0.3794
     36 O          19.7858   73.2170    4.0470 O.3     1  UNL1       -0.3794
     37 O          21.4607   71.8001    2.2748 O.3     1  UNL1       -0.3258
     38 H          19.2334   72.8461   -0.6916 H       1  UNL1        0.2106
     39 H          18.7335   75.4755    1.3747 H       1  UNL1        0.2105
     40 H          19.0847   73.8626    4.2047 H       1  UNL1        0.2105
     41 C          22.5593   72.4295    4.3305 C.3     1  UNL1        0.1693
     42 O          23.0861   73.5436    5.0531 O.3     1  UNL1       -0.3794
     43 H          23.4565   73.1940    5.8753 H       1  UNL1        0.2105
@<TRIPOS>BOND
     1    15    16   ar
     2    15    20   ar
     3    15     6    1
     4    16    17   ar
     5    16    21    2
     6    17    18   ar
     7    17    23    1
     8    18    19   ar
     9    18    22    2
    10    19    20   ar
    11     6     7    1
    12     6    11    1
    13     7     8    1
    14     7     9    1
    15     8    13    1
    16     9    10    1
    17     9    12    1
    18    10    11    1
    19    10     5    1
    20    12    14    1
    21     5     4    1
    22     4     1    1
    23     1     2    2
    24     1     3    1
    25     1    24    1
    26    24    25    1
    27    25    26    2
    28    25    27    1
    29    25    28    1
    30    28    29    1
    31    29    30    1
    32    29    37    1
    33    30    31    1
    34    30    34    1
    35    31    32    1
    36    31    35    1
    37    32    33    1
    38    32    36    1
    39    33    41    1
    40    33    37    1
    41    41    42    1
    42    34    38    1
    43    35    39    1
    44    36    40    1
    45    42    43    1
@<TRIPOS>MOLECULE
GDU
 43 45 0 0 0
SMALL
GASTEIGER

@<TRIPOS>ATOM
      1 P          22.7917   71.9448   -3.6074 P.3     1  UNL1        0.2189
      2 O          24.2663   71.8251   -3.5759 O.2     1  UNL1       -0.5170
      3 O          22.3598   73.3983   -3.0654 O.3     1  UNL1       -0.4371
      4 O          22.2699   71.7582   -5.1173 O.3     1  UNL1       -0.3112
      5 C          22.0069   73.0658   -5.6287 C.3     1  UNL1        0.1811
      6 C          18.4918   72.3758   -5.9372 C.3     1  UNL1        0.2383
      7 C          18.5573   73.8221   -5.3833 C.3     1  UNL1        0.1895
      8 O          17.4403   74.5918   -5.8340 O.3     1  UNL1       -0.3779
      9 C          19.8778   74.3481   -6.0036 C.3     1  UNL1        0.1713
     10 C          20.6610   73.0698   -6.3558 C.3     1  UNL1        0.1764
     11 O          19.8703   71.9481   -5.9260 O.3     1  UNL1       -0.3308
     12 O          19.6071   75.1165   -7.1775 O.3     1  UNL1       -0.3794
     13 H          17.5405   75.4766   -5.4558 H       1  UNL1        0.2106
     14 H          19.0658   75.8685   -6.9014 H       1  UNL1        0.2105
     15 N          17.6803   71.5238   -5.0662 N.ar    1  UNL1       -0.2551
     16 C          17.0381   70.4614   -5.5830 C.ar    1  UNL1        0.3323
     17 N          16.2884   69.6601   -4.8034 N.ar    1  UNL1       -0.2743
     18 C          16.1613   69.9172   -3.4874 C.ar    1  UNL1        0.2626
     19 C          16.8274   71.0362   -2.9303 C.ar    1  UNL1        0.0795
     20 C          17.5763   71.8209   -3.7339 C.ar    1  UNL1        0.0869
     21 O          17.1437   70.2166   -6.7683 O.2     1  UNL1       -0.2464
     22 O          15.4791   69.1952   -2.7818 O.2     1  UNL1       -0.2670
     23 H          15.8353   68.8952   -5.1925 H       1  UNL1        0.1734
     24 O          22.1419   70.8089   -2.6694 O.3     1  UNL1       -0.2703
     25 P          21.0938   71.5492   -1.6981 P.3     1  UNL1        0.2208
     26 O          20.4245   72.6426   -2.4367 O.2     1  UNL1       -0.5170
     27 O          19.9907   70.4901   -1.1925 O.3     1  UNL1       -0.4371
     28 O          21.8739   72.1569   -0.4285 O.3     1  UNL1       -0.2858
     29 C          21.2641   71.6021    0.7378 C.3     1  UNL1        0.2704
     30 C          20.8903   72.7291    1.7019 C.3     1  UNL1        0.1967
     31 C          22.1558   73.5088    2.0722 C.3     1  UNL1        0.1715
     32 C          23.2036   72.5212    2.5980 C.3     1  UNL1        0.1694
     33 C          23.4035   71.4103    1.5641 C.3     1  UNL1        0.1761
     34 O          19.9531   73.6054    1.0735 O.3     1  UNL1       -0.3775
     35 O          21.8485   74.4704    3.0838 O.3     1  UNL1       -0.3794
     36 O          22.7530   71.9579    3.8307 O.3     1  UNL1       -0.3794
     37 O          22.1770   70.7076    1.3694 O.3     1  UNL1       -0.3258
     38 H          19.1776   73.0720    0.8520 H       1  UNL1        0.2106
     39 H          21.1796   75.0609    2.7147 H       1  UNL1        0.2105
     40 H          22.6355   72.6921    4.4476 H       1  UNL1        0.2105
     41 C          24.4732   70.4369    2.0644 C.3     1  UNL1        0.1693
     42 O          25.7530   71.0698    2.0137 O.3     1  UNL1       -0.3794
     43 H          26.3972   70.4249    2.3369 H       1  UNL1        0.2105
@<TRIPOS>BOND
     1    15    16   ar
     2    15    20   ar
     3    15     6    1
     4    16    17   ar
     5    16    21    2
     6    17    18   ar
     7    17    23    1
     8    18    19   ar
     9    18    22    2
    10    19    20   ar
    11     6     7    1
    12     6    11    1
    13     7     8    1
    14     7     9    1
    15     8    13    1
    16     9    10    1
    17     9    12    1
    18    10    11    1
    19    10     5    1
    20    12    14    1
    21     5     4    1
    22     4     1    1
    23     1     2    2
    24     1     3    1
    25     1    24    1
    26    24    25    1
    27    25    26    2
    28    25    27    1
    29    25    28    1
    30    28    29    1
    31    29    30    1
    32    29    37    1
    33    30    31    1
    34    30    34    1
    35    31    32    1
    36    31    35    1
    37    32    33    1
    38    32    36    1
    39    33    41    1
    40    33    37    1
    41    41    42    1
    42    34    38    1
    43    35    39    1
    44    36    40    1
    45    42    43    1
@<TRIPOS>MOLECULE
GDU
 43 45 0 0 0
SMALL
GASTEIGER

@<TRIPOS>ATOM
      1 P          22.3258   72.8825   -4.3073 P.3     1  UNL1        0.2189
      2 O          22.3666   74.3610   -4.3507 O.2     1  UNL1       -0.5170
      3 O          23.8286   72.3049   -4.2775 O.3     1  UNL1       -0.4371
      4 O          21.5412   72.4054   -2.9868 O.3     1  UNL1       -0.3112
      5 C          21.8045   73.3787   -1.9748 C.3     1  UNL1        0.1811
      6 C          23.5823   72.6042    1.0529 C.3     1  UNL1        0.2383
      7 C          23.0482   71.2369    0.5547 C.3     1  UNL1        0.1895
      8 O          23.9289   70.1767    0.9336 O.3     1  UNL1       -0.3779
      9 C          23.0455   71.4304   -0.9841 C.3     1  UNL1        0.1713
     10 C          23.0353   72.9592   -1.1691 C.3     1  UNL1        0.1764
     11 O          22.9868   73.5512    0.1406 O.3     1  UNL1       -0.3308
     12 O          24.2204   70.8577   -1.5617 O.3     1  UNL1       -0.3794
     13 H          23.5410   69.3576    0.5953 H       1  UNL1        0.2106
     14 H          24.1984   69.9120   -1.3618 H       1  UNL1        0.2105
     15 N          23.1425   72.8633    2.4249 N.ar    1  UNL1       -0.2551
     16 C          21.9745   72.3567    2.8576 C.ar    1  UNL1        0.3323
     17 N          21.5488   72.5770    4.1155 N.ar    1  UNL1       -0.2743
     18 C          22.2861   73.3211    4.9623 C.ar    1  UNL1        0.2626
     19 C          23.5159   73.8659    4.5184 C.ar    1  UNL1        0.0795
     20 C          23.9211   73.6259    3.2533 C.ar    1  UNL1        0.0869
     21 O          21.2988   71.6831    2.1054 O.2     1  UNL1       -0.2464
     22 O          21.8993   73.5250    6.0995 O.2     1  UNL1       -0.2670
     23 H          20.7053   72.2001    4.4123 H       1  UNL1        0.1734
     24 O          21.5654   72.3289   -5.6142 O.3     1  UNL1       -0.2703
     25 P          20.5017   73.4561   -6.0476 P.3     1  UNL1        0.2208
     26 O          19.7882   73.9479   -4.8484 O.2     1  UNL1       -0.5170
     27 O          21.2752   74.6813   -6.7513 O.3     1  UNL1       -0.4371
     28 O          19.4426   72.8263   -7.0829 O.3     1  UNL1       -0.2858
     29 C          19.0538   71.5564   -6.5576 C.3     1  UNL1        0.2704
     30 C          19.0105   70.5289   -7.6897 C.3     1  UNL1        0.1967
     31 C          18.0155   71.0015   -8.7542 C.3     1  UNL1        0.1715
     32 C          16.6696   71.2826   -8.0765 C.3     1  UNL1        0.1694
     33 C          16.8905   72.2554   -6.9155 C.3     1  UNL1        0.1761
     34 O          20.3097   70.4009   -8.2701 O.3     1  UNL1       -0.3775
     35 O          17.8536   69.9846   -9.7453 O.3     1  UNL1       -0.3794
     36 O          16.1181   70.0606   -7.5841 O.3     1  UNL1       -0.3794
     37 O          17.7666   71.6673   -5.9549 O.3     1  UNL1       -0.3258
     38 H          20.9029   70.1093   -7.5644 H       1  UNL1        0.2106
     39 H          18.7238   69.8327  -10.1351 H       1  UNL1        0.2105
     40 H          16.0019   69.4788   -8.3464 H       1  UNL1        0.2105
     41 C          15.5472   72.5697   -6.2531 C.3     1  UNL1        0.1693
     42 O          15.4462   73.9767   -6.0270 O.3     1  UNL1       -0.3794
     43 H          14.5876   74.1322   -5.6101 H       1  UNL1        0.2105
@<TRIPOS>BOND
     1    15    16   ar
     2    15    20   ar
     3    15     6    1
     4    16    17   ar
     5    16    21    2
     6    17    18   ar
     7    17    23    1
     8    18    19   ar
     9    18    22    2
    10    19    20   ar
    11     6     7    1
    12     6    11    1
    13     7     8    1
    14     7     9    1
    15     8    13    1
    16     9    10    1
    17     9    12    1
    18    10    11    1
    19    10     5    1
    20    12    14    1
    21     5     4    1
    22     4     1    1
    23     1     2    2
    24     1     3    1
    25     1    24    1
    26    24    25    1
    27    25    26    2
    28    25    27    1
    29    25    28    1
    30    28    29    1
    31    29    30    1
    32    29    37    1
    33    30    31    1
    34    30    34    1
    35    31    32    1
    36    31    35    1
    37    32    33    1
    38    32    36    1
    39    33    41    1
    40    33    37    1
    41    41    42    1
    42    34    38    1
    43    35    39    1
    44    36    40    1
    45    42    43    1
@<TRIPOS>MOLECULE
GDU
 43 45 0 0 0
SMALL
GASTEIGER

@<TRIPOS>ATOM
      1 P          23.5353   72.1582   -3.4137 P.3     1  UNL1        0.2189
      2 O          24.3028   72.9028   -4.4364 O.2     1  UNL1       -0.5170
      3 O          24.3318   70.8162   -3.0168 O.3     1  UNL1       -0.4371
      4 O          23.3487   73.0776   -2.1073 O.3     1  UNL1       -0.3112
      5 C          22.2841   72.5045   -1.3466 C.3     1  UNL1        0.1811
      6 C          24.2488   71.7487    1.5681 C.3     1  UNL1        0.2383
      7 C          22.8247   72.0178    2.1179 C.3     1  UNL1        0.1895
      8 O          22.5788   71.2469    3.2962 O.3     1  UNL1       -0.3779
      9 C          21.9283   71.5388    0.9465 C.3     1  UNL1        0.1713
     10 C          22.8616   71.5748   -0.2779 C.3     1  UNL1        0.1764
     11 O          24.1355   72.0729    0.1661 O.3     1  UNL1       -0.3308
     12 O          21.4590   70.2107    1.1873 O.3     1  UNL1       -0.3794
     13 H          21.6809   71.4596    3.5864 H       1  UNL1        0.2106
     14 H          20.9313   70.2426    1.9968 H       1  UNL1        0.2105
     15 N          25.2290   72.6181    2.2210 N.ar    1  UNL1       -0.2551
     16 C          26.3843   72.0992    2.6729 C.ar    1  UNL1        0.3323
     17 N          27.3038   72.8773    3.2736 N.ar    1  UNL1       -0.2743
     18 C          27.0752   74.1941    3.4413 C.ar    1  UNL1        0.2626
     19 C          25.8602   74.7535    2.9755 C.ar    1  UNL1        0.0795
     20 C          24.9571   73.9512    2.3728 C.ar    1  UNL1        0.0869
     21 O          26.6048   70.9132    2.5283 O.2     1  UNL1       -0.2464
     22 O          27.9048   74.8984    3.9892 O.2     1  UNL1       -0.2670
     23 H          28.1340   72.4867    3.5898 H       1  UNL1        0.1734
     24 O          22.0906   71.7674   -4.0074 O.3     1  UNL1       -0.2703
     25 P          21.8342   72.7220   -5.2774 P.3     1  UNL1        0.2208
     26 O          21.9631   74.1370   -4.8646 O.2     1  UNL1       -0.5170
     27 O          22.9201   72.3962   -6.4213 O.3     1  UNL1       -0.4371
     28 O          20.3544   72.4631   -5.8546 O.3     1  UNL1       -0.2858
     29 C          20.3234   71.1160   -6.3280 C.3     1  UNL1        0.2704
     30 C          19.8254   71.0958   -7.7740 C.3     1  UNL1        0.1967
     31 C          18.4279   71.7206   -7.8288 C.3     1  UNL1        0.1715
     32 C          17.5285   70.9988   -6.8190 C.3     1  UNL1        0.1694
     33 C          18.2004   71.0282   -5.4440 C.3     1  UNL1        0.1761
     34 O          20.7192   71.8458   -8.5986 O.3     1  UNL1       -0.3775
     35 O          17.8887   71.5764   -9.1445 O.3     1  UNL1       -0.3794
     36 O          17.3354   69.6455   -7.2330 O.3     1  UNL1       -0.3794
     37 O          19.4515   70.3448   -5.5049 O.3     1  UNL1       -0.3258
     38 H          21.5855   71.4222   -8.5281 H       1  UNL1        0.2106
     39 H          18.4907   72.0337   -9.7452 H       1  UNL1        0.2105
     40 H          16.9165   69.6760   -8.1030 H       1  UNL1        0.2105
     41 C          17.2944   70.3397   -4.4207 C.3     1  UNL1        0.1693
     42 O          15.9276   70.5417   -4.7839 O.3     1  UNL1       -0.3794
     43 H          15.3912   70.0928   -4.1159 H       1  UNL1        0.2105
@<TRIPOS>BOND
     1    15    16   ar
     2    15    20   ar
     3    15     6    1
     4    16    17   ar
     5    16    21    2
     6    17    18   ar
     7    17    23    1
     8    18    19   ar
     9    18    22    2
    10    19    20   ar
    11     6     7    1
    12     6    11    1
    13     7     8    1
    14     7     9    1
    15     8    13    1
    16     9    10    1
    17     9    12    1
    18    10    11    1
    19    10     5    1
    20    12    14    1
    21     5     4    1
    22     4     1    1
    23     1     2    2
    24     1     3    1
    25     1    24    1
    26    24    25    1
    27    25    26    2
    28    25    27    1
    29    25    28    1
    30    28    29    1
    31    29    30    1
    32    29    37    1
    33    30    31    1
    34    30    34    1
    35    31    32    1
    36    31    35    1
    37    32    33    1
    38    32    36    1
    39    33    41    1
    40    33    37    1
    41    41    42    1
    42    34    38    1
    43    35    39    1
    44    36    40    1
    45    42    43    1
@<TRIPOS>MOLECULE
GDU
 43 45 0 0 0
SMALL
GASTEIGER

@<TRIPOS>ATOM
      1 P          21.7386   72.8087   -4.4180 P.3     1  UNL1        0.2189
      2 O          23.0387   72.2268   -4.8187 O.2     1  UNL1       -0.5170
      3 O          20.7741   71.6411   -3.8706 O.3     1  UNL1       -0.4371
      4 O          21.9725   73.8989   -3.2590 O.3     1  UNL1       -0.3112
      5 C          20.7180   74.5464   -3.0407 C.3     1  UNL1        0.1811
      6 C          21.3935   73.8435    0.4201 C.3     1  UNL1        0.2383
      7 C          22.0854   75.2056    0.1575 C.3     1  UNL1        0.1895
      8 O          22.0956   76.0088    1.3398 O.3     1  UNL1       -0.3779
      9 C          21.1709   75.8306   -0.9280 C.3     1  UNL1        0.1713
     10 C          20.4362   74.6230   -1.5391 C.3     1  UNL1        0.1764
     11 O          20.9339   73.4414   -0.8878 O.3     1  UNL1       -0.3308
     12 O          20.2431   76.7417   -0.3354 O.3     1  UNL1       -0.3794
     13 H          22.5379   76.8378    1.1100 H       1  UNL1        0.2106
     14 H          20.7646   77.4417    0.0801 H       1  UNL1        0.2105
     15 N          22.3494   72.8711    0.9525 N.ar    1  UNL1       -0.2551
     16 C          21.9480   71.9764    1.8726 C.ar    1  UNL1        0.3323
     17 N          22.8060   71.0693    2.3755 N.ar    1  UNL1       -0.2743
     18 C          24.0902   71.0500    1.9698 C.ar    1  UNL1        0.2626
     19 C          24.5286   71.9902    1.0054 C.ar    1  UNL1        0.0795
     20 C          23.6463   72.8862    0.5143 C.ar    1  UNL1        0.0869
     21 O          20.7925   71.9812    2.2480 O.2     1  UNL1       -0.2464
     22 O          24.8687   70.2325    2.4280 O.2     1  UNL1       -0.2670
     23 H          22.4980   70.4282    3.0358 H       1  UNL1        0.1734
     24 O          21.0530   73.5161   -5.6916 O.3     1  UNL1       -0.2703
     25 P          20.8448   72.3725   -6.8046 P.3     1  UNL1        0.2208
     26 O          21.5682   72.7486   -8.0393 O.2     1  UNL1       -0.5170
     27 O          21.4204   70.9739   -6.2509 O.3     1  UNL1       -0.4371
     28 O          19.2759   72.2156   -7.1275 O.3     1  UNL1       -0.2858
     29 C          19.0322   70.8237   -7.3350 C.3     1  UNL1        0.2704
     30 C          17.9575   70.6497   -8.4093 C.3     1  UNL1        0.1967
     31 C          16.6790   71.3609   -7.9555 C.3     1  UNL1        0.1715
     32 C          16.2990   70.8447   -6.5631 C.3     1  UNL1        0.1694
     33 C          17.4998   71.0060   -5.6277 C.3     1  UNL1        0.1761
     34 O          18.4129   71.2184   -9.6383 O.3     1  UNL1       -0.3775
     35 O          15.6227   71.0844   -8.8776 O.3     1  UNL1       -0.3794
     36 O          15.9347   69.4663   -6.6476 O.3     1  UNL1       -0.3794
     37 O          18.5957   70.2322   -6.1134 O.3     1  UNL1       -0.3258
     38 H          19.2210   70.7465   -9.8816 H       1  UNL1        0.2106
     39 H          15.9093   71.4142   -9.7386 H       1  UNL1        0.2105
     40 H          15.1810   69.4123   -7.2495 H       1  UNL1        0.2105
     41 C          17.1198   70.5250   -4.2254 C.3     1  UNL1        0.1693
     42 O          18.2121   70.7515   -3.3329 O.3     1  UNL1       -0.3794
     43 H          17.9323   70.4362   -2.4625 H       1  UNL1        0.2105
@<TRIPOS>BOND
     1    15    16   ar
     2    15    20   ar
     3    15     6    1
     4    16    17   ar
     5    16    21    2
     6    17    18   ar
     7    17    23    1
     8    18    19   ar
     9    18    22    2
    10    19    20   ar
    11     6     7    1
    12     6    11    1
    13     7     8    1
    14     7     9    1
    15     8    13    1
    16     9    10    1
    17     9    12    1
    18    10    11    1
    19    10     5    1
    20    12    14    1
    21     5     4    1
    22     4     1    1
    23     1     2    2
    24     1     3    1
    25     1    24    1
    26    24    25    1
    27    25    26    2
    28    25    27    1
    29    25    28    1
    30    28    29    1
    31    29    30    1
    32    29    37    1
    33    30    31    1
    34    30    34    1
    35    31    32    1
    36    31    35    1
    37    32    33    1
    38    32    36    1
    39    33    41    1
    40    33    37    1
    41    41    42    1
    42    34    38    1
    43    35    39    1
    44    36    40    1
    45    42    43    1
@<TRIPOS>MOLECULE
GDU
 43 45 0 0 0
SMALL
GASTEIGER

@<TRIPOS>ATOM
      1 P          22.6907   71.9445   -3.0578 P.3     1  UNL1        0.2189
      2 O          22.1337   73.3133   -2.9829 O.2     1  UNL1       -0.5170
      3 O          24.0715   71.9717   -3.8858 O.3     1  UNL1       -0.4371
      4 O          22.9670   71.3951   -1.5716 O.3     1  UNL1       -0.3112
      5 C          21.7045   70.9936   -1.0375 C.3     1  UNL1        0.1811
      6 C          23.1822   71.8950    2.1139 C.3     1  UNL1        0.2383
      7 C          22.5831   73.2182    1.5723 C.3     1  UNL1        0.1895
      8 O          22.1689   74.0671    2.6452 O.3     1  UNL1       -0.3779
      9 C          21.3604   72.7138    0.7625 C.3     1  UNL1        0.1713
     10 C          21.6869   71.2370    0.4726 C.3     1  UNL1        0.1764
     11 O          22.9864   70.9665    1.0262 O.3     1  UNL1       -0.3308
     12 O          20.1661   72.8260    1.5390 O.3     1  UNL1       -0.3794
     13 H          21.8077   74.8692    2.2426 H       1  UNL1        0.2106
     14 H          20.0484   73.7648    1.7377 H       1  UNL1        0.2105
     15 N          24.6077   72.0534    2.4066 N.ar    1  UNL1       -0.2551
     16 C          25.4088   70.9734    2.4244 C.ar    1  UNL1        0.3323
     17 N          26.7236   71.0921    2.6873 N.ar    1  UNL1       -0.2743
     18 C          27.2586   72.3004    2.9478 C.ar    1  UNL1        0.2626
     19 C          26.4258   73.4460    2.9381 C.ar    1  UNL1        0.0795
     20 C          25.1114   73.2993    2.6673 C.ar    1  UNL1        0.0869
     21 O          24.9405   69.8770    2.1909 O.2     1  UNL1       -0.2464
     22 O          28.4477   72.4081    3.1905 O.2     1  UNL1       -0.2670
     23 H          27.2877   70.3025    2.6918 H       1  UNL1        0.1734
     24 O          21.6394   70.9782   -3.8017 O.3     1  UNL1       -0.2703
     25 P          20.9593   71.8442   -4.9754 P.3     1  UNL1        0.2208
     26 O          20.2925   73.0287   -4.3911 O.2     1  UNL1       -0.5170
     27 O          22.0933   72.3249   -6.0133 O.3     1  UNL1       -0.4371
     28 O          19.8733   70.9427   -5.7486 O.3     1  UNL1       -0.2858
     29 C          18.9395   71.8415   -6.3486 C.3     1  UNL1        0.2704
     30 C          17.5253   71.4930   -5.8817 C.3     1  UNL1        0.1967
     31 C          17.2128   70.0460   -6.2753 C.3     1  UNL1        0.1715
     32 C          17.4622   69.8823   -7.7789 C.3     1  UNL1        0.1694
     33 C          18.8830   70.3515   -8.1017 C.3     1  UNL1        0.1761
     34 O          17.4417   71.6332   -4.4624 O.3     1  UNL1       -0.3775
     35 O          15.8461   69.7521   -5.9781 O.3     1  UNL1       -0.3794
     36 O          16.5174   70.6669   -8.5081 O.3     1  UNL1       -0.3794
     37 O          19.0216   71.7318   -7.7677 O.3     1  UNL1       -0.3258
     38 H          17.6524   72.5549   -4.2602 H       1  UNL1        0.2106
     39 H          15.7328   69.8792   -5.0277 H       1  UNL1        0.2105
     40 H          15.6397   70.3410   -8.2698 H       1  UNL1        0.2105
     41 C          19.1543   70.1602   -9.5956 C.3     1  UNL1        0.1693
     42 O          18.5782   71.2444  -10.3262 O.3     1  UNL1       -0.3794
     43 H          18.7718   71.0865  -11.2605 H       1  UNL1        0.2105
@<TRIPOS>BOND
     1    15    16   ar
     2    15    20   ar
     3    15     6    1
     4    16    17   ar
     5    16    21    2
     6    17    18   ar
     7    17    23    1
     8    18    19   ar
     9    18    22    2
    10    19    20   ar
    11     6     7    1
    12     6    11    1
    13     7     8    1
    14     7     9    1
    15     8    13    1
    16     9    10    1
    17     9    12    1
    18    10    11    1
    19    10     5    1
    20    12    14    1
    21     5     4    1
    22     4     1    1
    23     1     2    2
    24     1     3    1
    25     1    24    1
    26    24    25    1
    27    25    26    2
    28    25    27    1
    29    25    28    1
    30    28    29    1
    31    29    30    1
    32    29    37    1
    33    30    31    1
    34    30    34    1
    35    31    32    1
    36    31    35    1
    37    32    33    1
    38    32    36    1
    39    33    41    1
    40    33    37    1
    41    41    42    1
    42    34    38    1
    43    35    39    1
    44    36    40    1
    45    42    43    1
@<TRIPOS>MOLECULE
GDU
 43 45 0 0 0
SMALL
GASTEIGER

@<TRIPOS>ATOM
      1 P          23.2848   71.4750   -1.9398 P.3     1  UNL1        0.2189
      2 O          24.2371   70.9138   -2.9236 O.2     1  UNL1       -0.5170
      3 O          23.2935   73.0821   -2.0412 O.3     1  UNL1       -0.4371
      4 O          21.8055   70.9257   -2.2506 O.3     1  UNL1       -0.3112
      5 C          21.2078   71.8429   -3.1682 C.3     1  UNL1        0.1811
      6 C          20.2974   71.1091   -6.5682 C.3     1  UNL1        0.2383
      7 C          20.7774   72.5826   -6.6033 C.3     1  UNL1        0.1895
      8 O          21.3644   72.8978   -7.8679 O.3     1  UNL1       -0.3779
      9 C          21.8441   72.6037   -5.4777 C.3     1  UNL1        0.1713
     10 C          21.4879   71.3883   -4.6017 C.3     1  UNL1        0.1764
     11 O          20.3091   70.7844   -5.1618 O.3     1  UNL1       -0.3308
     12 O          23.1550   72.4645   -6.0291 O.3     1  UNL1       -0.3794
     13 H          21.6404   73.8239   -7.8242 H       1  UNL1        0.2106
     14 H          23.2956   73.2227   -6.6123 H       1  UNL1        0.2105
     15 N          18.9439   70.9921   -7.1134 N.ar    1  UNL1       -0.2551
     16 C          18.7542   70.4006   -8.3060 C.ar    1  UNL1        0.3323
     17 N          17.5196   70.2771   -8.8280 N.ar    1  UNL1       -0.2743
     18 C          16.4497   70.7558   -8.1645 C.ar    1  UNL1        0.2626
     19 C          16.6351   71.3865   -6.9098 C.ar    1  UNL1        0.0795
     20 C          17.8835   71.4933   -6.4073 C.ar    1  UNL1        0.0869
     21 O          19.7096   69.9634   -8.9160 O.2     1  UNL1       -0.2464
     22 O          15.3324   70.6488   -8.6384 O.2     1  UNL1       -0.2670
     23 H          17.4007   69.8434   -9.6880 H       1  UNL1        0.1734
     24 O          23.7232   71.0300   -0.4558 O.3     1  UNL1       -0.2703
     25 P          22.5275   71.4589    0.5323 P.3     1  UNL1        0.2208
     26 O          21.7136   72.5155   -0.1082 O.2     1  UNL1       -0.5170
     27 O          21.5993   70.1787    0.8384 O.3     1  UNL1       -0.4371
     28 O          23.1429   72.0158    1.9111 O.3     1  UNL1       -0.2858
     29 C          22.8005   73.4002    1.9891 C.3     1  UNL1        0.2704
     30 C          24.0489   74.2483    1.7411 C.3     1  UNL1        0.1967
     31 C          25.1088   73.8935    2.7885 C.3     1  UNL1        0.1715
     32 C          24.4881   74.0386    4.1825 C.3     1  UNL1        0.1694
     33 C          23.2064   73.2041    4.2459 C.3     1  UNL1        0.1761
     34 O          24.5576   73.9801    0.4332 O.3     1  UNL1       -0.3775
     35 O          26.2237   74.7787    2.6622 O.3     1  UNL1       -0.3794
     36 O          24.1825   75.4118    4.4289 O.3     1  UNL1       -0.3794
     37 O          22.2708   73.6848    3.2818 O.3     1  UNL1       -0.3258
     38 H          23.8566   74.2105   -0.1915 H       1  UNL1        0.2106
     39 H          26.5736   74.6626    1.7698 H       1  UNL1        0.2105
     40 H          25.0154   75.8982    4.3734 H       1  UNL1        0.2105
     41 C          22.5966   73.3146    5.6452 C.3     1  UNL1        0.1693
     42 O          21.2067   73.6259    5.5349 O.3     1  UNL1       -0.3794
     43 H          20.8609   73.6859    6.4361 H       1  UNL1        0.2105
@<TRIPOS>BOND
     1    15    16   ar
     2    15    20   ar
     3    15     6    1
     4    16    17   ar
     5    16    21    2
     6    17    18   ar
     7    17    23    1
     8    18    19   ar
     9    18    22    2
    10    19    20   ar
    11     6     7    1
    12     6    11    1
    13     7     8    1
    14     7     9    1
    15     8    13    1
    16     9    10    1
    17     9    12    1
    18    10    11    1
    19    10     5    1
    20    12    14    1
    21     5     4    1
    22     4     1    1
    23     1     2    2
    24     1     3    1
    25     1    24    1
    26    24    25    1
    27    25    26    2
    28    25    27    1
    29    25    28    1
    30    28    29    1
    31    29    30    1
    32    29    37    1
    33    30    31    1
    34    30    34    1
    35    31    32    1
    36    31    35    1
    37    32    33    1
    38    32    36    1
    39    33    41    1
    40    33    37    1
    41    41    42    1
    42    34    38    1
    43    35    39    1
    44    36    40    1
    45    42    43    1
@<TRIPOS>MOLECULE
GDU
 43 45 0 0 0
SMALL
GASTEIGER

@<TRIPOS>ATOM
      1 P          22.2751   72.8429   -6.2113 P.3     1  UNL1        0.2189
      2 O          23.1089   72.9621   -7.4279 O.2     1  UNL1       -0.5170
      3 O          21.4313   74.1986   -6.0042 O.3     1  UNL1       -0.4371
      4 O          21.2652   71.6015   -6.3719 O.3     1  UNL1       -0.3112
      5 C          20.8789   71.5574   -7.7464 C.3     1  UNL1        0.1811
      6 C          17.6848   70.1847   -6.8295 C.3     1  UNL1        0.2383
      7 C          17.3494   71.3032   -7.8491 C.3     1  UNL1        0.1895
      8 O          16.1688   70.9822   -8.5882 O.3     1  UNL1       -0.3779
      9 C          18.5983   71.2897   -8.7686 C.3     1  UNL1        0.1713
     10 C          19.6859   70.6144   -7.9127 C.3     1  UNL1        0.1764
     11 O          19.1068   70.3280   -6.6278 O.3     1  UNL1       -0.3308
     12 O          18.3398   70.5305   -9.9512 O.3     1  UNL1       -0.3794
     13 H          16.0159   71.7146   -9.2014 H       1  UNL1        0.2106
     14 H          17.6122   70.9695  -10.4124 H       1  UNL1        0.2105
     15 N          16.9620   70.3947   -5.5740 N.ar    1  UNL1       -0.2551
     16 C          16.4316   69.3426   -4.9259 C.ar    1  UNL1        0.3323
     17 N          15.7653   69.5078   -3.7680 N.ar    1  UNL1       -0.2743
     18 C          15.6102   70.7382   -3.2425 C.ar    1  UNL1        0.2626
     19 C          16.1586   71.8564   -3.9171 C.ar    1  UNL1        0.0795
     20 C          16.8257   71.6619   -5.0745 C.ar    1  UNL1        0.0869
     21 O          16.5638   68.2265   -5.3875 O.2     1  UNL1       -0.2464
     22 O          15.0032   70.8894   -2.1969 O.2     1  UNL1       -0.2670
     23 H          15.3927   68.7368   -3.3116 H       1  UNL1        0.1734
     24 O          23.2241   72.6026   -4.9330 O.3     1  UNL1       -0.2703
     25 P          22.2578   72.2615   -3.6920 P.3     1  UNL1        0.2208
     26 O          21.0279   73.0786   -3.7857 O.2     1  UNL1       -0.5170
     27 O          21.8677   70.6993   -3.7295 O.3     1  UNL1       -0.4371
     28 O          23.0181   72.5906   -2.3123 O.3     1  UNL1       -0.2858
     29 C          22.2356   73.5722   -1.6312 C.3     1  UNL1        0.2704
     30 C          23.1450   74.7038   -1.1497 C.3     1  UNL1        0.1967
     31 C          24.2136   74.1228   -0.2187 C.3     1  UNL1        0.1715
     32 C          23.5166   73.3287    0.8919 C.3     1  UNL1        0.1694
     33 C          22.5798   72.2993    0.2549 C.3     1  UNL1        0.1761
     34 O          23.7729   75.3241   -2.2732 O.3     1  UNL1       -0.3775
     35 O          24.9793   75.1844    0.3550 O.3     1  UNL1       -0.3794
     36 O          22.7649   74.2199    1.7169 O.3     1  UNL1       -0.3794
     37 O          21.5833   72.9680   -0.5168 O.3     1  UNL1       -0.3258
     38 H          23.0644   75.6683   -2.8339 H       1  UNL1        0.2106
     39 H          25.3883   75.6621   -0.3777 H       1  UNL1        0.2105
     40 H          23.3928   74.8517    2.0910 H       1  UNL1        0.2105
     41 C          21.9043   71.4775    1.3551 C.3     1  UNL1        0.1693
     42 O          21.5314   70.2007    0.8338 O.3     1  UNL1       -0.3794
     43 H          21.1110   69.7151    1.5568 H       1  UNL1        0.2105
@<TRIPOS>BOND
     1    15    16   ar
     2    15    20   ar
     3    15     6    1
     4    16    17   ar
     5    16    21    2
     6    17    18   ar
     7    17    23    1
     8    18    19   ar
     9    18    22    2
    10    19    20   ar
    11     6     7    1
    12     6    11    1
    13     7     8    1
    14     7     9    1
    15     8    13    1
    16     9    10    1
    17     9    12    1
    18    10    11    1
    19    10     5    1
    20    12    14    1
    21     5     4    1
    22     4     1    1
    23     1     2    2
    24     1     3    1
    25     1    24    1
    26    24    25    1
    27    25    26    2
    28    25    27    1
    29    25    28    1
    30    28    29    1
    31    29    30    1
    32    29    37    1
    33    30    31    1
    34    30    34    1
    35    31    32    1
    36    31    35    1
    37    32    33    1
    38    32    36    1
    39    33    41    1
    40    33    37    1
    41    41    42    1
    42    34    38    1
    43    35    39    1
    44    36    40    1
    45    42    43    1
@<TRIPOS>MOLECULE
GDU
 43 45 0 0 0
SMALL
GASTEIGER

@<TRIPOS>ATOM
      1 P          22.0671   72.8122   -5.2933 P.3     1  UNL1        0.2189
      2 O          23.2372   72.5114   -6.1477 O.2     1  UNL1       -0.5170
      3 O          22.1731   74.3249   -4.7515 O.3     1  UNL1       -0.4371
      4 O          20.7176   72.6430   -6.1517 O.3     1  UNL1       -0.3112
      5 C          20.6673   71.2809   -6.5793 C.3     1  UNL1        0.1811
      6 C          17.5690   71.2301   -4.7557 C.3     1  UNL1        0.2383
      7 C          17.1693   71.6620   -6.1898 C.3     1  UNL1        0.1895
      8 O          15.8490   71.2159   -6.5075 O.3     1  UNL1       -0.3779
      9 C          18.2249   70.9273   -7.0565 C.3     1  UNL1        0.1713
     10 C          19.3756   70.6340   -6.0760 C.3     1  UNL1        0.1764
     11 O          19.0112   71.1965   -4.8036 O.3     1  UNL1       -0.3308
     12 O          17.6835   69.7131   -7.5805 O.3     1  UNL1       -0.3794
     13 H          15.6624   71.5159   -7.4081 H       1  UNL1        0.2106
     14 H          16.9325   69.9588   -8.1376 H       1  UNL1        0.2105
     15 N          17.1082   72.2112   -3.7719 N.ar    1  UNL1       -0.2551
     16 C          15.9644   71.9943   -3.0990 C.ar    1  UNL1        0.3323
     17 N          15.5204   72.8788   -2.1867 N.ar    1  UNL1       -0.2743
     18 C          16.2141   74.0066   -1.9392 C.ar    1  UNL1        0.2626
     19 C          17.4177   74.2511   -2.6447 C.ar    1  UNL1        0.0795
     20 C          17.8424   73.3454   -3.5512 C.ar    1  UNL1        0.0869
     21 O          15.3281   70.9813   -3.3111 O.2     1  UNL1       -0.2464
     22 O          15.8105   74.8101   -1.1171 O.2     1  UNL1       -0.2670
     23 H          14.6950   72.7041   -1.7072 H       1  UNL1        0.1734
     24 O          22.0409   71.7969   -4.0440 O.3     1  UNL1       -0.2703
     25 P          23.4378   71.9784   -3.2657 P.3     1  UNL1        0.2208
     26 O          24.1973   70.7096   -3.3133 O.2     1  UNL1       -0.5170
     27 O          24.2969   73.1443   -3.9705 O.3     1  UNL1       -0.4371
     28 O          23.1515   72.3764   -1.7328 O.3     1  UNL1       -0.2858
     29 C          22.5953   71.2224   -1.1014 C.3     1  UNL1        0.2704
     30 C          21.2190   71.5679   -0.5307 C.3     1  UNL1        0.1967
     31 C          21.3692   72.7145    0.4738 C.3     1  UNL1        0.1715
     32 C          22.4258   72.3210    1.5122 C.3     1  UNL1        0.1694
     33 C          23.7123   71.9200    0.7860 C.3     1  UNL1        0.1761
     34 O          20.3484   71.9689   -1.5903 O.3     1  UNL1       -0.3775
     35 O          20.1184   72.9505    1.1237 O.3     1  UNL1       -0.3794
     36 O          21.9470   71.2216    2.2882 O.3     1  UNL1       -0.3794
     37 O          23.4605   70.7934   -0.0526 O.3     1  UNL1       -0.3258
     38 H          20.2891   71.2213   -2.2006 H       1  UNL1        0.2106
     39 H          19.4839   73.1822    0.4338 H       1  UNL1        0.2105
     40 H          21.1356   71.5172    2.7213 H       1  UNL1        0.2105
     41 C          24.7853   71.5578    1.8154 C.3     1  UNL1        0.1693
     42 O          25.7087   70.6351    1.2350 O.3     1  UNL1       -0.3794
     43 H          26.3671   70.4336    1.9141 H       1  UNL1        0.2105
@<TRIPOS>BOND
     1    15    16   ar
     2    15    20   ar
     3    15     6    1
     4    16    17   ar
     5    16    21    2
     6    17    18   ar
     7    17    23    1
     8    18    19   ar
     9    18    22    2
    10    19    20   ar
    11     6     7    1
    12     6    11    1
    13     7     8    1
    14     7     9    1
    15     8    13    1
    16     9    10    1
    17     9    12    1
    18    10    11    1
    19    10     5    1
    20    12    14    1
    21     5     4    1
    22     4     1    1
    23     1     2    2
    24     1     3    1
    25     1    24    1
    26    24    25    1
    27    25    26    2
    28    25    27    1
    29    25    28    1
    30    28    29    1
    31    29    30    1
    32    29    37    1
    33    30    31    1
    34    30    34    1
    35    31    32    1
    36    31    35    1
    37    32    33    1
    38    32    36    1
    39    33    41    1
    40    33    37    1
    41    41    42    1
    42    34    38    1
    43    35    39    1
    44    36    40    1
    45    42    43    1
