@<TRIPOS>MOLECULE
*****
 43 45 0 0 0
SMALL
GASTEIGER

@<TRIPOS>ATOM
      1 P          23.0875   71.6877   -2.5275 P.3     1  UNL1        0.2189
      2 O          23.4657   73.2125   -2.1409 O.co2   1  UNL1       -0.4371
      3 O          24.1770   70.9198   -3.2164 O.2     1  UNL1       -0.5170
      4 O          21.6999   71.8277   -3.3477 O.3     1  UNL1       -0.3112
      5 C          20.9362   70.6588   -3.5889 C.3     1  UNL1        0.1811
      6 O          18.8995   71.5538   -4.4969 O.3     1  UNL1       -0.3308
      7 O          17.4940   70.1028   -2.2810 O.3     1  UNL1       -0.3794
      8 O          17.0866   68.4602   -4.4193 O.3     1  UNL1       -0.3779
      9 C          18.6425   69.7100   -3.0306 C.3     1  UNL1        0.1713
     10 C          18.2382   69.2791   -4.4251 C.3     1  UNL1        0.1895
     11 C          19.4696   70.9585   -3.3108 C.3     1  UNL1        0.1764
     12 C          18.0030   70.6139   -5.1115 C.3     1  UNL1        0.2383
     13 H          16.9503   69.3220   -2.0897 H       1  UNL1        0.2105
     14 H          17.2870   67.6233   -3.9720 H       1  UNL1        0.2106
     15 O          16.1152   69.8711   -7.0768 O.2     1  UNL1       -0.2464
     16 O          19.1642   70.4459  -10.4848 O.2     1  UNL1       -0.2670
     17 N          18.2764   70.5611   -6.5200 N.ar    1  UNL1       -0.2551
     18 N          17.6349   70.1580   -8.7721 N.ar    1  UNL1       -0.2743
     19 C          17.2588   70.1745   -7.4230 C.ar    1  UNL1        0.3323
     20 C          19.5419   70.8909   -6.9930 C.ar    1  UNL1        0.0869
     21 C          19.8848   70.8689   -8.2827 C.ar    1  UNL1        0.0795
     22 C          18.8798   70.4760   -9.2915 C.ar    1  UNL1        0.2626
     23 H          16.9423   69.8914   -9.4195 H       1  UNL1        0.1734
     24 O          22.6130   71.0616   -1.1148 O.3     1  UNL1       -0.2703
     25 P          21.6324   71.6462    0.0296 P.3     1  UNL1        0.2208
     26 O          21.1354   70.3172    0.8068 O.co2   1  UNL1       -0.4371
     27 O          20.5212   72.5092   -0.4942 O.2     1  UNL1       -0.5170
     28 O          22.6174   72.3846    1.0735 O.3     1  UNL1       -0.2858
     29 O          24.3981   71.7994    2.5237 O.3     1  UNL1       -0.3258
     30 O          22.0756   73.9588    5.1684 O.3     1  UNL1       -0.3794
     31 O          24.5292   75.0854    4.1893 O.3     1  UNL1       -0.3794
     32 O          20.8152   72.2295    3.2189 O.3     1  UNL1       -0.3775
     33 C          22.6469   73.6389    3.8969 C.3     1  UNL1        0.1715
     34 C          24.1697   73.7168    4.0221 C.3     1  UNL1        0.1694
     35 C          22.2118   72.2311    3.4941 C.3     1  UNL1        0.1967
     36 C          24.8582   73.1311    2.7820 C.3     1  UNL1        0.1761
     37 C          22.9921   71.7245    2.2798 C.3     1  UNL1        0.2704
     38 H          22.3476   74.8517    5.4297 H       1  UNL1        0.2105
     39 H          24.0874   75.4433    4.9754 H       1  UNL1        0.2105
     40 H          20.3324   72.5519    3.9953 H       1  UNL1        0.2106
     41 O          26.7770   71.7072    2.7859 O.3     1  UNL1       -0.3794
     42 C          26.3739   73.0542    2.9520 C.3     1  UNL1        0.1693
     43 H          27.7395   71.6431    2.8912 H       1  UNL1        0.2105
@<TRIPOS>UNITY_ATOM_ATTR
2 1
charge -1
26 1
charge -1
@<TRIPOS>BOND
     1    25    28    1
     2    25    24    1
     3    25    26    1
     4    25    27    2
     5     1     4    1
     6     1    24    1
     7     1     2    1
     8     1     3    2
     9     6    11    1
    10     6    12    1
    11    29    36    1
    12    29    37    1
    13     7     9    1
    14     7    13    1
    15     8    10    1
    16     8    14    1
    17    28    37    1
    18     4     5    1
    19    30    33    1
    20    30    38    1
    21    31    34    1
    22    31    39    1
    23    32    35    1
    24    32    40    1
    25    41    42    1
    26    41    43    1
    27    15    19    2
    28    16    22    2
    29    17    12    1
    30    17    19   ar
    31    17    20   ar
    32    18    19   ar
    33    18    22   ar
    34    18    23    1
    35     9    10    1
    36     9    11    1
    37    10    12    1
    38    11     5    1
    39    33    34    1
    40    33    35    1
    41    34    36    1
    42    35    37    1
    43    36    42    1
    44    20    21   ar
    45    21    22   ar
@<TRIPOS>MOLECULE
*****
 43 45 0 0 0
SMALL
GASTEIGER

@<TRIPOS>ATOM
      1 P          21.1671   71.9504   -2.8919 P.3     1  UNL1        0.2189
      2 O          20.0929   73.1059   -2.5339 O.co2   1  UNL1       -0.4371
      3 O          22.5225   72.4492   -3.2990 O.2     1  UNL1       -0.5170
      4 O          20.4005   71.0312   -3.9806 O.3     1  UNL1       -0.3112
      5 C          19.5639   69.9868   -3.5145 C.3     1  UNL1        0.1811
      6 O          17.9117   71.2478   -4.7204 O.3     1  UNL1       -0.3308
      7 O          15.8724   69.8138   -3.0544 O.3     1  UNL1       -0.3794
      8 O          15.7720   68.4550   -5.4167 O.3     1  UNL1       -0.3779
      9 C          17.1065   69.3311   -3.5829 C.3     1  UNL1        0.1713
     10 C          16.9839   69.0959   -5.0739 C.3     1  UNL1        0.1895
     11 C          18.1193   70.4678   -3.5225 C.3     1  UNL1        0.1764
     12 C          17.0739   70.5090   -5.6244 C.3     1  UNL1        0.2383
     13 H          15.2098   69.1051   -3.0822 H       1  UNL1        0.2105
     14 H          15.7628   67.5597   -5.0437 H       1  UNL1        0.2106
     15 O          15.5994   70.3394   -8.0275 O.2     1  UNL1       -0.2464
     16 O          19.4075   70.6741  -10.6020 O.2     1  UNL1       -0.2670
     17 N          17.6545   70.5496   -6.9369 N.ar    1  UNL1       -0.2551
     18 N          17.4967   70.5064   -9.3074 N.ar    1  UNL1       -0.2743
     19 C          16.8256   70.4557   -8.0790 C.ar    1  UNL1        0.3323
     20 C          19.0313   70.6816   -7.0818 C.ar    1  UNL1        0.0869
     21 C          19.6559   70.7271   -8.2604 C.ar    1  UNL1        0.0795
     22 C          18.8627   70.6354   -9.5031 C.ar    1  UNL1        0.2626
     23 H          16.9397   70.4423  -10.1170 H       1  UNL1        0.1734
     24 O          21.1610   71.0252   -1.5664 O.3     1  UNL1       -0.2703
     25 P          21.9175   71.1972   -0.1483 P.3     1  UNL1        0.2208
     26 O          23.4788   71.0300   -0.5379 O.co2   1  UNL1       -0.4371
     27 O          21.4419   70.2567    0.9209 O.2     1  UNL1       -0.5170
     28 O          21.7533   72.7611    0.2153 O.3     1  UNL1       -0.2858
     29 O          23.2078   74.3702   -0.7397 O.3     1  UNL1       -0.3258
     30 O          21.9569   76.4949    2.5727 O.3     1  UNL1       -0.3794
     31 O          21.0006   77.2366   -0.0318 O.3     1  UNL1       -0.3794
     32 O          22.4511   73.6504    2.7838 O.3     1  UNL1       -0.3775
     33 C          21.8180   75.5773    1.4846 C.3     1  UNL1        0.1715
     34 C          22.0827   76.3346    0.1818 C.3     1  UNL1        0.1694
     35 C          22.8228   74.4401    1.6592 C.3     1  UNL1        0.1967
     36 C          22.2151   75.3687   -1.0033 C.3     1  UNL1        0.1761
     37 C          22.9125   73.5682    0.4055 C.3     1  UNL1        0.2704
     38 H          21.3213   77.2192    2.4682 H       1  UNL1        0.2105
     39 H          20.9276   77.8406    0.7239 H       1  UNL1        0.2105
     40 H          22.3980   74.2138    3.5710 H       1  UNL1        0.2106
     41 O          22.0363   75.4310   -3.3851 O.3     1  UNL1       -0.3794
     42 C          22.6350   76.0881   -2.2833 C.3     1  UNL1        0.1693
     43 H          22.2945   75.8783   -4.2068 H       1  UNL1        0.2105
@<TRIPOS>UNITY_ATOM_ATTR
2 1
charge -1
26 1
charge -1
@<TRIPOS>BOND
     1    25    28    1
     2    25    24    1
     3    25    26    1
     4    25    27    2
     5     1     4    1
     6     1    24    1
     7     1     2    1
     8     1     3    2
     9     6    11    1
    10     6    12    1
    11    29    36    1
    12    29    37    1
    13     7     9    1
    14     7    13    1
    15     8    10    1
    16     8    14    1
    17    28    37    1
    18     4     5    1
    19    30    33    1
    20    30    38    1
    21    31    34    1
    22    31    39    1
    23    32    35    1
    24    32    40    1
    25    41    42    1
    26    41    43    1
    27    15    19    2
    28    16    22    2
    29    17    12    1
    30    17    19   ar
    31    17    20   ar
    32    18    19   ar
    33    18    22   ar
    34    18    23    1
    35     9    10    1
    36     9    11    1
    37    10    12    1
    38    11     5    1
    39    33    34    1
    40    33    35    1
    41    34    36    1
    42    35    37    1
    43    36    42    1
    44    20    21   ar
    45    21    22   ar
@<TRIPOS>MOLECULE
*****
 43 45 0 0 0
SMALL
GASTEIGER

@<TRIPOS>ATOM
      1 P          22.1833   73.2061   -4.5706 P.3     1  UNL1        0.2189
      2 O          22.0640   74.8195   -4.5572 O.co2   1  UNL1       -0.4371
      3 O          23.0970   72.6469   -5.6213 O.2     1  UNL1       -0.5170
      4 O          20.6468   72.7035   -4.6359 O.3     1  UNL1       -0.3112
      5 C          19.6186   73.6772   -4.6875 C.3     1  UNL1        0.1811
      6 O          17.6190   72.6963   -5.5894 O.3     1  UNL1       -0.3308
      7 O          17.2408   71.4434   -2.8916 O.3     1  UNL1       -0.3794
      8 O          18.2624   69.3877   -4.3637 O.3     1  UNL1       -0.3779
      9 C          18.4482   71.6917   -3.6098 C.3     1  UNL1        0.1713
     10 C          18.5940   70.7059   -4.7501 C.3     1  UNL1        0.1895
     11 C          18.2902   73.0138   -4.3504 C.3     1  UNL1        0.1764
     12 C          17.6325   71.2723   -5.7811 C.3     1  UNL1        0.2383
     13 H          17.3179   70.6042   -2.4102 H       1  UNL1        0.2105
     14 H          18.9030   69.0723   -3.7073 H       1  UNL1        0.2106
     15 O          15.9154   70.2910   -7.7977 O.2     1  UNL1       -0.2464
     16 O          19.3147   70.2121  -10.9090 O.2     1  UNL1       -0.2670
     17 N          18.0422   70.9868   -7.1272 N.ar    1  UNL1       -0.2551
     18 N          17.6093   70.2526   -9.3453 N.ar    1  UNL1       -0.2743
     19 C          17.1017   70.4963   -8.0627 C.ar    1  UNL1        0.3323
     20 C          19.3636   71.1938   -7.5080 C.ar    1  UNL1        0.0869
     21 C          19.8321   70.9553   -8.7347 C.ar    1  UNL1        0.0795
     22 C          18.9144   70.4413   -9.7719 C.ar    1  UNL1        0.2626
     23 H          16.9724   69.9101  -10.0137 H       1  UNL1        0.1734
     24 O          22.6142   72.8609   -3.0514 O.3     1  UNL1       -0.2703
     25 P          22.8324   71.4433   -2.3059 P.3     1  UNL1        0.2208
     26 O          24.2111   70.8938   -2.9498 O.co2   1  UNL1       -0.4371
     27 O          21.6720   70.4986   -2.4284 O.2     1  UNL1       -0.5170
     28 O          23.2188   71.8349   -0.7885 O.3     1  UNL1       -0.2858
     29 O          24.4259   70.8732    1.0100 O.3     1  UNL1       -0.3258
     30 O          20.9793   71.9345    3.0213 O.3     1  UNL1       -0.3794
     31 O          23.3960   73.4207    3.4672 O.3     1  UNL1       -0.3794
     32 O          20.8160   70.9025    0.3217 O.3     1  UNL1       -0.3775
     33 C          22.0163   72.0790    2.0470 C.3     1  UNL1        0.1715
     34 C          23.3550   72.1723    2.7817 C.3     1  UNL1        0.1694
     35 C          21.9976   70.8689    1.1150 C.3     1  UNL1        0.1967
     36 C          24.5325   72.0606    1.8039 C.3     1  UNL1        0.1761
     37 C          23.2368   70.8270    0.2190 C.3     1  UNL1        0.2704
     38 H          20.9854   72.6999    3.6160 H       1  UNL1        0.2105
     39 H          22.6470   73.4787    4.0811 H       1  UNL1        0.2105
     40 H          20.0388   70.9286    0.9006 H       1  UNL1        0.2106
     41 O          26.5287   70.7950    2.1538 O.3     1  UNL1       -0.3794
     42 C          25.8744   71.9928    2.5299 C.3     1  UNL1        0.1693
     43 H          27.3844   70.7384    2.6080 H       1  UNL1        0.2105
@<TRIPOS>UNITY_ATOM_ATTR
2 1
charge -1
26 1
charge -1
@<TRIPOS>BOND
     1    25    28    1
     2    25    24    1
     3    25    26    1
     4    25    27    2
     5     1     4    1
     6     1    24    1
     7     1     2    1
     8     1     3    2
     9     6    11    1
    10     6    12    1
    11    29    36    1
    12    29    37    1
    13     7     9    1
    14     7    13    1
    15     8    10    1
    16     8    14    1
    17    28    37    1
    18     4     5    1
    19    30    33    1
    20    30    38    1
    21    31    34    1
    22    31    39    1
    23    32    35    1
    24    32    40    1
    25    41    42    1
    26    41    43    1
    27    15    19    2
    28    16    22    2
    29    17    12    1
    30    17    19   ar
    31    17    20   ar
    32    18    19   ar
    33    18    22   ar
    34    18    23    1
    35     9    10    1
    36     9    11    1
    37    10    12    1
    38    11     5    1
    39    33    34    1
    40    33    35    1
    41    34    36    1
    42    35    37    1
    43    36    42    1
    44    20    21   ar
    45    21    22   ar
@<TRIPOS>MOLECULE
*****
 43 45 0 0 0
SMALL
GASTEIGER

@<TRIPOS>ATOM
      1 P          21.6933   71.8884   -2.7618 P.3     1  UNL1        0.2189
      2 O          20.8509   73.2499   -2.5289 O.co2   1  UNL1       -0.4371
      3 O          23.1591   72.0856   -3.0148 O.2     1  UNL1       -0.5170
      4 O          20.8760   71.1207   -3.9282 O.3     1  UNL1       -0.3112
      5 C          19.9675   70.0987   -3.5568 C.3     1  UNL1        0.1811
      6 O          18.3274   71.4155   -4.7186 O.3     1  UNL1       -0.3308
      7 O          16.3133   70.2166   -2.8486 O.3     1  UNL1       -0.3794
      8 O          15.9570   68.7545   -5.1227 O.3     1  UNL1       -0.3779
      9 C          17.4719   69.6204   -3.4296 C.3     1  UNL1        0.1713
     10 C          17.2310   69.3218   -4.8947 C.3     1  UNL1        0.1895
     11 C          18.5625   70.6822   -3.4966 C.3     1  UNL1        0.1764
     12 C          17.3803   70.6960   -5.5250 C.3     1  UNL1        0.2383
     13 H          15.6030   69.5574   -2.7950 H       1  UNL1        0.2105
     14 H          15.9117   67.8816   -4.7024 H       1  UNL1        0.2106
     15 O          15.7502   70.3093   -7.7990 O.2     1  UNL1       -0.2464
     16 O          19.3711   70.4578  -10.6465 O.2     1  UNL1       -0.2670
     17 N          17.8707   70.6300   -6.8728 N.ar    1  UNL1       -0.2551
     18 N          17.5544   70.3837   -9.2150 N.ar    1  UNL1       -0.2743
     19 C          16.9683   70.4317   -7.9437 C.ar    1  UNL1        0.3323
     20 C          19.2325   70.7615   -7.1220 C.ar    1  UNL1        0.0869
     21 C          19.7757   70.7121   -8.3401 C.ar    1  UNL1        0.0795
     22 C          18.9021   70.5079   -9.5136 C.ar    1  UNL1        0.2626
     23 H          16.9452   70.2460   -9.9763 H       1  UNL1        0.1734
     24 O          21.3492   71.0181   -1.4438 O.3     1  UNL1       -0.2703
     25 P          21.9363   71.0923    0.0604 P.3     1  UNL1        0.2208
     26 O          23.5352   71.1837   -0.1694 O.co2   1  UNL1       -0.4371
     27 O          21.5018   69.9614    0.9471 O.2     1  UNL1       -0.5170
     28 O          21.5163   72.5576    0.5911 O.3     1  UNL1       -0.2858
     29 O          21.1465   72.3157    2.9194 O.3     1  UNL1       -0.3258
     30 O          20.2726   76.3322    2.5264 O.3     1  UNL1       -0.3794
     31 O          22.7115   75.5311    3.8140 O.3     1  UNL1       -0.3794
     32 O          19.4671   74.4704    0.4613 O.3     1  UNL1       -0.3775
     33 C          20.9639   75.1146    2.2350 C.3     1  UNL1        0.1715
     34 C          21.6467   74.6323    3.5164 C.3     1  UNL1        0.1694
     35 C          19.9593   74.0769    1.7378 C.3     1  UNL1        0.1967
     36 C          22.1829   73.2036    3.3544 C.3     1  UNL1        0.1761
     37 C          20.5809   72.6813    1.6592 C.3     1  UNL1        0.2704
     38 H          20.9049   76.9955    2.8421 H       1  UNL1        0.2105
     39 H          22.3596   76.4297    3.9134 H       1  UNL1        0.2105
     40 H          19.0759   75.3552    0.5244 H       1  UNL1        0.2106
     41 O          21.8024   72.9379    5.6982 O.3     1  UNL1       -0.3794
     42 C          22.7272   72.6447    4.6672 C.3     1  UNL1        0.1693
     43 H          22.1355   72.5879    6.5398 H       1  UNL1        0.2105
@<TRIPOS>UNITY_ATOM_ATTR
2 1
charge -1
26 1
charge -1
@<TRIPOS>BOND
     1    25    28    1
     2    25    24    1
     3    25    26    1
     4    25    27    2
     5     1     4    1
     6     1    24    1
     7     1     2    1
     8     1     3    2
     9     6    11    1
    10     6    12    1
    11    29    36    1
    12    29    37    1
    13     7     9    1
    14     7    13    1
    15     8    10    1
    16     8    14    1
    17    28    37    1
    18     4     5    1
    19    30    33    1
    20    30    38    1
    21    31    34    1
    22    31    39    1
    23    32    35    1
    24    32    40    1
    25    41    42    1
    26    41    43    1
    27    15    19    2
    28    16    22    2
    29    17    12    1
    30    17    19   ar
    31    17    20   ar
    32    18    19   ar
    33    18    22   ar
    34    18    23    1
    35     9    10    1
    36     9    11    1
    37    10    12    1
    38    11     5    1
    39    33    34    1
    40    33    35    1
    41    34    36    1
    42    35    37    1
    43    36    42    1
    44    20    21   ar
    45    21    22   ar
@<TRIPOS>MOLECULE
*****
 43 45 0 0 0
SMALL
GASTEIGER

@<TRIPOS>ATOM
      1 P          22.0631   71.5805   -2.9322 P.3     1  UNL1        0.2189
      2 O          21.5533   73.1159   -2.9134 O.co2   1  UNL1       -0.4371
      3 O          23.5442   71.4065   -3.0981 O.2     1  UNL1       -0.5170
      4 O          21.1422   70.8793   -4.0628 O.3     1  UNL1       -0.3112
      5 C          20.1999   69.9021   -3.6568 C.3     1  UNL1        0.1811
      6 O          18.5782   71.3253   -4.7142 O.3     1  UNL1       -0.3308
      7 O          16.5973   70.2034   -2.7627 O.3     1  UNL1       -0.3794
      8 O          16.0492   68.8029   -5.0376 O.3     1  UNL1       -0.3779
      9 C          17.6913   69.5562   -3.4105 C.3     1  UNL1        0.1713
     10 C          17.3619   69.2969   -4.8658 C.3     1  UNL1        0.1895
     11 C          18.8335   70.5590   -3.5168 C.3     1  UNL1        0.1764
     12 C          17.5544   70.6721   -5.4823 C.3     1  UNL1        0.2383
     13 H          15.8557   69.5824   -2.6831 H       1  UNL1        0.2105
     14 H          15.9774   67.9264   -4.6285 H       1  UNL1        0.2106
     15 O          15.8066   70.2784   -7.6659 O.2     1  UNL1       -0.2464
     16 O          19.2713   70.4249  -10.7015 O.2     1  UNL1       -0.2670
     17 N          17.9727   70.6036   -6.8541 N.ar    1  UNL1       -0.2551
     18 N          17.5332   70.3519   -9.1757 N.ar    1  UNL1       -0.2743
     19 C          17.0151   70.4020   -7.8752 C.ar    1  UNL1        0.3323
     20 C          19.3192   70.7362   -7.1753 C.ar    1  UNL1        0.0869
     21 C          19.7972   70.6848   -8.4204 C.ar    1  UNL1        0.0795
     22 C          18.8629   70.4770   -9.5455 C.ar    1  UNL1        0.2626
     23 H          16.8846   70.2118   -9.9033 H       1  UNL1        0.1734
     24 O          21.4656   70.9823   -1.5545 O.3     1  UNL1       -0.2703
     25 P          22.0338   71.0296   -0.0420 P.3     1  UNL1        0.2208
     26 O          23.6381   71.0562   -0.2490 O.co2   1  UNL1       -0.4371
     27 O          21.5410   69.9157    0.8357 O.2     1  UNL1       -0.5170
     28 O          21.6664   72.5098    0.4862 O.3     1  UNL1       -0.2858
     29 O          22.3876   74.6665    1.1537 O.3     1  UNL1       -0.3258
     30 O          21.8075   72.9824    4.8791 O.3     1  UNL1       -0.3794
     31 O          19.9620   74.9600    3.9140 O.3     1  UNL1       -0.3794
     32 O          22.9221   71.3914    2.7329 O.3     1  UNL1       -0.3775
     33 C          21.5333   73.2064    3.4934 C.3     1  UNL1        0.1715
     34 C          21.2197   74.6915    3.3005 C.3     1  UNL1        0.1694
     35 C          22.7561   72.8039    2.6711 C.3     1  UNL1        0.1967
     36 C          21.1775   75.0599    1.8114 C.3     1  UNL1        0.1761
     37 C          22.6335   73.2602    1.2162 C.3     1  UNL1        0.2704
     38 H          21.0348   73.2356    5.4067 H       1  UNL1        0.2105
     39 H          20.0020   74.7226    4.8538 H       1  UNL1        0.2105
     40 H          22.9988   71.1152    3.6590 H       1  UNL1        0.2106
     41 O          19.7593   76.8069    1.0079 O.3     1  UNL1       -0.3794
     42 C          21.0228   76.5641    1.5985 C.3     1  UNL1        0.1693
     43 H          19.6468   77.7604    0.8669 H       1  UNL1        0.2105
@<TRIPOS>UNITY_ATOM_ATTR
2 1
charge -1
26 1
charge -1
@<TRIPOS>BOND
     1    25    28    1
     2    25    24    1
     3    25    26    1
     4    25    27    2
     5     1     4    1
     6     1    24    1
     7     1     2    1
     8     1     3    2
     9     6    11    1
    10     6    12    1
    11    29    36    1
    12    29    37    1
    13     7     9    1
    14     7    13    1
    15     8    10    1
    16     8    14    1
    17    28    37    1
    18     4     5    1
    19    30    33    1
    20    30    38    1
    21    31    34    1
    22    31    39    1
    23    32    35    1
    24    32    40    1
    25    41    42    1
    26    41    43    1
    27    15    19    2
    28    16    22    2
    29    17    12    1
    30    17    19   ar
    31    17    20   ar
    32    18    19   ar
    33    18    22   ar
    34    18    23    1
    35     9    10    1
    36     9    11    1
    37    10    12    1
    38    11     5    1
    39    33    34    1
    40    33    35    1
    41    34    36    1
    42    35    37    1
    43    36    42    1
    44    20    21   ar
    45    21    22   ar
@<TRIPOS>MOLECULE
*****
 43 45 0 0 0
SMALL
GASTEIGER

@<TRIPOS>ATOM
      1 P          22.8029   71.8150   -3.4531 P.3     1  UNL1        0.2189
      2 O          24.0014   70.7832   -3.1122 O.co2   1  UNL1       -0.4371
      3 O          23.0002   72.6261   -4.7000 O.2     1  UNL1       -0.5170
      4 O          22.6184   72.6612   -2.0864 O.3     1  UNL1       -0.3112
      5 C          23.6184   72.5590   -1.0877 C.3     1  UNL1        0.1811
      6 O          24.4608   71.1331    0.6533 O.3     1  UNL1       -0.3308
      7 O          21.6240   70.2410    1.0379 O.3     1  UNL1       -0.3794
      8 O          21.9691   72.0202    3.0755 O.3     1  UNL1       -0.3779
      9 C          22.1254   71.5328    0.6987 C.3     1  UNL1        0.1713
     10 C          22.7521   72.1887    1.9114 C.3     1  UNL1        0.1895
     11 C          23.3279   71.3438   -0.2177 C.3     1  UNL1        0.1764
     12 C          24.0907   71.4754    1.9989 C.3     1  UNL1        0.2383
     13 H          20.8552   70.3360    1.6225 H       1  UNL1        0.2105
     14 H          21.1282   72.4922    2.9709 H       1  UNL1        0.2106
     15 O          26.7770   70.6754    2.3474 O.2     1  UNL1       -0.2464
     16 O          27.9379   74.7346    4.1956 O.2     1  UNL1       -0.2670
     17 N          25.1163   72.3033    2.5683 N.ar    1  UNL1       -0.2551
     18 N          27.3529   72.6973    3.2672 N.ar    1  UNL1       -0.2743
     19 C          26.4337   71.8057    2.6998 C.ar    1  UNL1        0.3323
     20 C          24.8115   73.5933    2.9890 C.ar    1  UNL1        0.0869
     21 C          25.6994   74.4305    3.5293 C.ar    1  UNL1        0.0795
     22 C          27.0982   73.9883    3.7020 C.ar    1  UNL1        0.2626
     23 H          28.2769   72.3722    3.3691 H       1  UNL1        0.1734
     24 O          21.4970   70.8625   -3.4697 O.3     1  UNL1       -0.2703
     25 P          20.0288   71.0626   -2.8237 P.3     1  UNL1        0.2208
     26 O          19.8697   72.6712   -2.7551 O.co2   1  UNL1       -0.4371
     27 O          19.8347   70.3644   -1.5089 O.2     1  UNL1       -0.5170
     28 O          19.0058   70.6009   -3.9836 O.3     1  UNL1       -0.2858
     29 O          19.1311   72.1156   -5.8020 O.3     1  UNL1       -0.3258
     30 O          15.9576   69.8059   -7.0847 O.3     1  UNL1       -0.3794
     31 O          18.5092   69.5534   -8.3783 O.3     1  UNL1       -0.3794
     32 O          16.2182   70.4716   -4.2796 O.3     1  UNL1       -0.3775
     33 C          17.2072   70.0584   -6.4365 C.3     1  UNL1        0.1715
     34 C          18.1847   70.6083   -7.4771 C.3     1  UNL1        0.1694
     35 C          16.9914   71.0712   -5.3135 C.3     1  UNL1        0.1967
     36 C          19.4558   71.1516   -6.8105 C.3     1  UNL1        0.1761
     37 C          18.3190   71.5845   -4.7530 C.3     1  UNL1        0.2704
     38 H          16.0876   69.1632   -7.7985 H       1  UNL1        0.2105
     39 H          17.6980   69.2189   -8.7921 H       1  UNL1        0.2105
     40 H          15.3803   70.1510   -4.6471 H       1  UNL1        0.2106
     41 O          20.0039   71.4426   -9.1179 O.3     1  UNL1       -0.3794
     42 C          20.3747   71.8469   -7.8127 C.3     1  UNL1        0.1693
     43 H          20.5802   71.8775   -9.7663 H       1  UNL1        0.2105
@<TRIPOS>UNITY_ATOM_ATTR
2 1
charge -1
26 1
charge -1
@<TRIPOS>BOND
     1    25    28    1
     2    25    24    1
     3    25    26    1
     4    25    27    2
     5     1     4    1
     6     1    24    1
     7     1     2    1
     8     1     3    2
     9     6    11    1
    10     6    12    1
    11    29    36    1
    12    29    37    1
    13     7     9    1
    14     7    13    1
    15     8    10    1
    16     8    14    1
    17    28    37    1
    18     4     5    1
    19    30    33    1
    20    30    38    1
    21    31    34    1
    22    31    39    1
    23    32    35    1
    24    32    40    1
    25    41    42    1
    26    41    43    1
    27    15    19    2
    28    16    22    2
    29    17    12    1
    30    17    19   ar
    31    17    20   ar
    32    18    19   ar
    33    18    22   ar
    34    18    23    1
    35     9    10    1
    36     9    11    1
    37    10    12    1
    38    11     5    1
    39    33    34    1
    40    33    35    1
    41    34    36    1
    42    35    37    1
    43    36    42    1
    44    20    21   ar
    45    21    22   ar
@<TRIPOS>MOLECULE
*****
 43 45 0 0 0
SMALL
GASTEIGER

@<TRIPOS>ATOM
      1 P          21.5905   72.4847   -5.6946 P.3     1  UNL1        0.2189
      2 O          20.8355   73.8701   -6.0524 O.co2   1  UNL1       -0.4371
      3 O          23.0817   72.5147   -5.8590 O.2     1  UNL1       -0.5170
      4 O          20.8085   71.3770   -6.5775 O.3     1  UNL1       -0.3112
      5 C          20.1329   71.8000   -7.7490 C.3     1  UNL1        0.1811
      6 O          18.8392   69.8279   -7.2896 O.3     1  UNL1       -0.3308
      7 O          18.0009   69.9349  -10.1665 O.3     1  UNL1       -0.3794
      8 O          15.8419   70.9914   -8.8786 O.3     1  UNL1       -0.3779
      9 C          18.2435   71.0070   -9.2570 C.3     1  UNL1        0.1713
     10 C          17.1070   71.1201   -8.2625 C.3     1  UNL1        0.1895
     11 C          19.4106   70.6083   -8.3624 C.3     1  UNL1        0.1764
     12 C          17.4103   69.9791   -7.3063 C.3     1  UNL1        0.2383
     13 H          17.2598   70.1665  -10.7488 H       1  UNL1        0.2105
     14 H          15.6958   71.7407   -9.4769 H       1  UNL1        0.2106
     15 O          16.3148   68.0357   -5.5740 O.2     1  UNL1       -0.2464
     16 O          15.6925   71.1218   -2.2080 O.2     1  UNL1       -0.2670
     17 N          16.9542   70.2471   -5.9716 N.ar    1  UNL1       -0.2551
     18 N          16.0060   69.5739   -3.8993 N.ar    1  UNL1       -0.2743
     19 C          16.4194   69.2006   -5.1845 C.ar    1  UNL1        0.3323
     20 C          17.0397   71.5356   -5.4556 C.ar    1  UNL1        0.0869
     21 C          16.6398   71.8754   -4.2285 C.ar    1  UNL1        0.0795
     22 C          16.0692   70.8410   -3.3416 C.ar    1  UNL1        0.2626
     23 H          15.6298   68.8615   -3.3331 H       1  UNL1        0.1734
     24 O          21.0857   72.1734   -4.1909 O.3     1  UNL1       -0.2703
     25 P          20.7323   70.7768   -3.4575 P.3     1  UNL1        0.2208
     26 O          21.9578   70.5826   -2.4192 O.co2   1  UNL1       -0.4371
     27 O          20.5274   69.6234   -4.3964 O.2     1  UNL1       -0.5170
     28 O          19.4585   71.1155   -2.5260 O.3     1  UNL1       -0.2858
     29 O          20.3826   71.7212   -0.4294 O.3     1  UNL1       -0.3258
     30 O          21.9833   74.7369   -2.7519 O.3     1  UNL1       -0.3794
     31 O          23.6829   72.6269   -1.7992 O.3     1  UNL1       -0.3794
     32 O          19.2783   73.8253   -3.2328 O.3     1  UNL1       -0.3775
     33 C          21.5258   73.4110   -2.4723 C.3     1  UNL1        0.1715
     34 C          22.3598   72.8492   -1.3192 C.3     1  UNL1        0.1694
     35 C          20.0475   73.4632   -2.0910 C.3     1  UNL1        0.1967
     36 C          21.7582   71.5419   -0.7860 C.3     1  UNL1        0.1761
     37 C          19.5622   72.1266   -1.5269 C.3     1  UNL1        0.2704
     38 H          22.9212   74.7108   -2.9952 H       1  UNL1        0.2105
     39 H          24.0511   73.4600   -2.1334 H       1  UNL1        0.2105
     40 H          19.5950   74.6731   -3.5803 H       1  UNL1        0.2106
     41 O          21.6259   70.1581    1.1573 O.3     1  UNL1       -0.3794
     42 C          22.4823   71.0472    0.4641 C.3     1  UNL1        0.1693
     43 H          22.0738   69.8349    1.9552 H       1  UNL1        0.2105
@<TRIPOS>UNITY_ATOM_ATTR
2 1
charge -1
26 1
charge -1
@<TRIPOS>BOND
     1    25    28    1
     2    25    24    1
     3    25    26    1
     4    25    27    2
     5     1     4    1
     6     1    24    1
     7     1     2    1
     8     1     3    2
     9     6    11    1
    10     6    12    1
    11    29    36    1
    12    29    37    1
    13     7     9    1
    14     7    13    1
    15     8    10    1
    16     8    14    1
    17    28    37    1
    18     4     5    1
    19    30    33    1
    20    30    38    1
    21    31    34    1
    22    31    39    1
    23    32    35    1
    24    32    40    1
    25    41    42    1
    26    41    43    1
    27    15    19    2
    28    16    22    2
    29    17    12    1
    30    17    19   ar
    31    17    20   ar
    32    18    19   ar
    33    18    22   ar
    34    18    23    1
    35     9    10    1
    36     9    11    1
    37    10    12    1
    38    11     5    1
    39    33    34    1
    40    33    35    1
    41    34    36    1
    42    35    37    1
    43    36    42    1
    44    20    21   ar
    45    21    22   ar
@<TRIPOS>MOLECULE
*****
 43 45 0 0 0
SMALL
GASTEIGER

@<TRIPOS>ATOM
      1 P          20.5995   73.1713   -2.8723 P.3     1  UNL1        0.2189
      2 O          19.2670   73.8291   -2.2326 O.co2   1  UNL1       -0.4371
      3 O          21.5993   74.1555   -3.4045 O.2     1  UNL1       -0.5170
      4 O          20.0287   72.1010   -3.9431 O.3     1  UNL1       -0.3112
      5 C          19.3420   70.9602   -3.4584 C.3     1  UNL1        0.1811
      6 O          17.5806   71.7586   -4.8846 O.3     1  UNL1       -0.3308
      7 O          15.7034   70.2561   -3.0931 O.3     1  UNL1       -0.3794
      8 O          15.9434   68.5870   -5.2362 O.3     1  UNL1       -0.3779
      9 C          17.0243   69.9118   -3.5077 C.3     1  UNL1        0.1713
     10 C          17.0202   69.4568   -4.9522 C.3     1  UNL1        0.1895
     11 C          17.8426   71.1950   -3.5807 C.3     1  UNL1        0.1764
     12 C          16.9182   70.7765   -5.6979 C.3     1  UNL1        0.2383
     13 H          15.1619   69.4525   -3.0388 H       1  UNL1        0.2105
     14 H          16.0540   67.7620   -4.7383 H       1  UNL1        0.2106
     15 O          15.5399   70.5702   -8.1547 O.2     1  UNL1       -0.2464
     16 O          19.4655   70.6034  -10.5693 O.2     1  UNL1       -0.2670
     17 N          17.5550   70.7296   -6.9838 N.ar    1  UNL1       -0.2551
     18 N          17.4957   70.5871   -9.3550 N.ar    1  UNL1       -0.2743
     19 C          16.7715   70.6245   -8.1566 C.ar    1  UNL1        0.3323
     20 C          18.9416   70.7881   -7.0730 C.ar    1  UNL1        0.0869
     21 C          19.6170   70.7500   -8.2234 C.ar    1  UNL1        0.0795
     22 C          18.8734   70.6408   -9.4951 C.ar    1  UNL1        0.2626
     23 H          16.9708   70.5137  -10.1850 H       1  UNL1        0.1734
     24 O          21.1504   72.2318   -1.6779 O.3     1  UNL1       -0.2703
     25 P          20.7710   72.1794   -0.1075 P.3     1  UNL1        0.2208
     26 O          20.6811   70.5935    0.1999 O.co2   1  UNL1       -0.4371
     27 O          19.5347   72.9511    0.2530 O.2     1  UNL1       -0.5170
     28 O          22.1090   72.6667    0.6525 O.3     1  UNL1       -0.2858
     29 O          24.1338   73.6806   -0.0465 O.3     1  UNL1       -0.3258
     30 O          25.6667   70.8884    2.5812 O.3     1  UNL1       -0.3794
     31 O          25.6582   73.6664    3.3099 O.3     1  UNL1       -0.3794
     32 O          23.4228   70.1982    0.8878 O.3     1  UNL1       -0.3775
     33 C          24.7100   71.8352    2.0979 C.3     1  UNL1        0.1715
     34 C          25.3966   73.1982    1.9898 C.3     1  UNL1        0.1694
     35 C          24.2025   71.3788    0.7313 C.3     1  UNL1        0.1967
     36 C          24.5184   74.2022    1.2309 C.3     1  UNL1        0.1761
     37 C          23.3811   72.4691    0.0410 C.3     1  UNL1        0.2704
     38 H          25.9926   71.1720    3.4489 H       1  UNL1        0.2105
     39 H          26.2131   73.0231    3.7783 H       1  UNL1        0.2105
     40 H          23.9541   69.5156    1.3256 H       1  UNL1        0.2106
     41 O          25.0192   75.9043   -0.3693 O.3     1  UNL1       -0.3794
     42 C          25.2470   75.5194    0.9739 C.3     1  UNL1        0.1693
     43 H          25.4767   76.7414   -0.5472 H       1  UNL1        0.2105
@<TRIPOS>UNITY_ATOM_ATTR
2 1
charge -1
26 1
charge -1
@<TRIPOS>BOND
     1    25    28    1
     2    25    24    1
     3    25    26    1
     4    25    27    2
     5     1     4    1
     6     1    24    1
     7     1     2    1
     8     1     3    2
     9     6    11    1
    10     6    12    1
    11    29    36    1
    12    29    37    1
    13     7     9    1
    14     7    13    1
    15     8    10    1
    16     8    14    1
    17    28    37    1
    18     4     5    1
    19    30    33    1
    20    30    38    1
    21    31    34    1
    22    31    39    1
    23    32    35    1
    24    32    40    1
    25    41    42    1
    26    41    43    1
    27    15    19    2
    28    16    22    2
    29    17    12    1
    30    17    19   ar
    31    17    20   ar
    32    18    19   ar
    33    18    22   ar
    34    18    23    1
    35     9    10    1
    36     9    11    1
    37    10    12    1
    38    11     5    1
    39    33    34    1
    40    33    35    1
    41    34    36    1
    42    35    37    1
    43    36    42    1
    44    20    21   ar
    45    21    22   ar
@<TRIPOS>MOLECULE
*****
 43 45 0 0 0
SMALL
GASTEIGER

@<TRIPOS>ATOM
      1 P          21.9067   72.5262   -5.8400 P.3     1  UNL1        0.2189
      2 O          21.3177   73.9684   -5.4035 O.co2   1  UNL1       -0.4371
      3 O          23.0610   72.5764   -6.7973 O.2     1  UNL1       -0.5170
      4 O          20.6045   71.7134   -6.3515 O.3     1  UNL1       -0.3112
      5 C          20.0496   72.0494   -7.6112 C.3     1  UNL1        0.1811
      6 O          18.8962   69.9912   -7.1560 O.3     1  UNL1       -0.3308
      7 O          18.0969   70.0176  -10.0459 O.3     1  UNL1       -0.3794
      8 O          15.8469   70.9222   -8.7986 O.3     1  UNL1       -0.3779
      9 C          18.2466   71.1105   -9.1412 C.3     1  UNL1        0.1713
     10 C          17.0896   71.1469   -8.1646 C.3     1  UNL1        0.1895
     11 C          19.4256   70.8041   -8.2261 C.3     1  UNL1        0.1764
     12 C          17.4605   70.0375   -7.1952 C.3     1  UNL1        0.2383
     13 H          17.3499   70.1906  -10.6408 H       1  UNL1        0.2105
     14 H          15.6558   71.6548   -9.4048 H       1  UNL1        0.2106
     15 O          16.3067   68.0640   -5.5363 O.2     1  UNL1       -0.2464
     16 O          15.5944   71.0841   -2.1284 O.2     1  UNL1       -0.2670
     17 N          16.9654   70.2804   -5.8695 N.ar    1  UNL1       -0.2551
     18 N          15.9531   69.5694   -3.8407 N.ar    1  UNL1       -0.2743
     19 C          16.4036   69.2204   -5.1203 C.ar    1  UNL1        0.3323
     20 C          17.0400   71.5579   -5.3252 C.ar    1  UNL1        0.0869
     21 C          16.6047   71.8744   -4.1039 C.ar    1  UNL1        0.0795
     22 C          16.0041   70.8247   -3.2557 C.ar    1  UNL1        0.2626
     23 H          15.5576   68.8472   -3.3006 H       1  UNL1        0.1734
     24 O          22.2388   71.8249   -4.4219 O.3     1  UNL1       -0.2703
     25 P          23.4680   72.0385   -3.3941 P.3     1  UNL1        0.2208
     26 O          24.4405   73.0605   -4.1860 O.co2   1  UNL1       -0.4371
     27 O          24.1323   70.7654   -2.9562 O.2     1  UNL1       -0.5170
     28 O          22.8465   72.9168   -2.1910 O.3     1  UNL1       -0.2858
     29 O          21.2473   71.9728   -0.7186 O.3     1  UNL1       -0.3258
     30 O          20.3764   75.9709   -0.1634 O.3     1  UNL1       -0.3794
     31 O          21.7187   74.5103    1.9135 O.3     1  UNL1       -0.3794
     32 O          21.0625   74.9953   -2.8010 O.3     1  UNL1       -0.3775
     33 C          21.2221   74.8426   -0.4025 C.3     1  UNL1        0.1715
     34 C          21.1003   73.8908    0.7891 C.3     1  UNL1        0.1694
     35 C          20.7791   74.1509   -1.6905 C.3     1  UNL1        0.1967
     36 C          21.7656   72.5406    0.4900 C.3     1  UNL1        0.1761
     37 C          21.4639   72.7945   -1.8674 C.3     1  UNL1        0.2704
     38 H          20.6526   76.4148    0.6528 H       1  UNL1        0.2105
     39 H          21.2897   75.3621    2.0914 H       1  UNL1        0.2105
     40 H          20.6231   75.8505   -2.6771 H       1  UNL1        0.2106
     41 O          21.7046   70.2238    1.0711 O.3     1  UNL1       -0.3794
     42 C          21.5199   71.5232    1.6020 C.3     1  UNL1        0.1693
     43 H          21.5518   69.5658    1.7677 H       1  UNL1        0.2105
@<TRIPOS>UNITY_ATOM_ATTR
2 1
charge -1
26 1
charge -1
@<TRIPOS>BOND
     1    25    28    1
     2    25    24    1
     3    25    26    1
     4    25    27    2
     5     1     4    1
     6     1    24    1
     7     1     2    1
     8     1     3    2
     9     6    11    1
    10     6    12    1
    11    29    36    1
    12    29    37    1
    13     7     9    1
    14     7    13    1
    15     8    10    1
    16     8    14    1
    17    28    37    1
    18     4     5    1
    19    30    33    1
    20    30    38    1
    21    31    34    1
    22    31    39    1
    23    32    35    1
    24    32    40    1
    25    41    42    1
    26    41    43    1
    27    15    19    2
    28    16    22    2
    29    17    12    1
    30    17    19   ar
    31    17    20   ar
    32    18    19   ar
    33    18    22   ar
    34    18    23    1
    35     9    10    1
    36     9    11    1
    37    10    12    1
    38    11     5    1
    39    33    34    1
    40    33    35    1
    41    34    36    1
    42    35    37    1
    43    36    42    1
    44    20    21   ar
    45    21    22   ar
@<TRIPOS>MOLECULE
*****
 43 45 0 0 0
SMALL
GASTEIGER

@<TRIPOS>ATOM
      1 P          21.7867   72.4329   -5.5737 P.3     1  UNL1        0.2189
      2 O          21.0931   73.8527   -5.2267 O.co2   1  UNL1       -0.4371
      3 O          23.0572   72.5253   -6.3666 O.2     1  UNL1       -0.5170
      4 O          20.5954   71.5744   -6.2530 O.3     1  UNL1       -0.3112
      5 C          20.1456   71.9460   -7.5443 C.3     1  UNL1        0.1811
      6 O          18.9012   69.9271   -7.1580 O.3     1  UNL1       -0.3308
      7 O          18.1309   70.0700  -10.0523 O.3     1  UNL1       -0.3794
      8 O          15.9099   71.0344   -8.7979 O.3     1  UNL1       -0.3779
      9 C          18.3186   71.1293   -9.1153 C.3     1  UNL1        0.1713
     10 C          17.1551   71.1875   -8.1476 C.3     1  UNL1        0.1895
     11 C          19.4749   70.7467   -8.1999 C.3     1  UNL1        0.1764
     12 C          17.4692   70.0361   -7.2076 C.3     1  UNL1        0.2383
     13 H          17.3976   70.2917  -10.6482 H       1  UNL1        0.2105
     14 H          15.7560   71.7915   -9.3843 H       1  UNL1        0.2106
     15 O          16.2596   68.0554   -5.5976 O.2     1  UNL1       -0.2464
     16 O          15.5997   71.0178   -2.1291 O.2     1  UNL1       -0.2670
     17 N          16.9725   70.2621   -5.8796 N.ar    1  UNL1       -0.2551
     18 N          15.9322   69.5320   -3.8718 N.ar    1  UNL1       -0.2743
     19 C          16.3816   69.2000   -5.1563 C.ar    1  UNL1        0.3323
     20 C          17.0741   71.5255   -5.3074 C.ar    1  UNL1        0.0869
     21 C          16.6395   71.8261   -4.0818 C.ar    1  UNL1        0.0795
     22 C          16.0095   70.7730   -3.2596 C.ar    1  UNL1        0.2626
     23 H          15.5166   68.8080   -3.3494 H       1  UNL1        0.1734
     24 O          21.9490   71.7430   -4.1209 O.3     1  UNL1       -0.2703
     25 P          23.1098   71.8801   -3.0044 P.3     1  UNL1        0.2208
     26 O          23.6341   73.3983   -3.1987 O.co2   1  UNL1       -0.4371
     27 O          24.1846   70.8365   -3.1027 O.2     1  UNL1       -0.5170
     28 O          22.3217   71.8981   -1.5959 O.3     1  UNL1       -0.2858
     29 O          23.9721   72.5228   -0.0140 O.3     1  UNL1       -0.3258
     30 O          20.7160   72.2337    2.5088 O.3     1  UNL1       -0.3794
     31 O          21.7656   74.8217    1.8393 O.3     1  UNL1       -0.3794
     32 O          21.0441   70.3322    0.3510 O.3     1  UNL1       -0.3775
     33 C          21.3928   72.5255    1.2832 C.3     1  UNL1        0.1715
     34 C          22.4452   73.6007    1.5608 C.3     1  UNL1        0.1694
     35 C          22.0518   71.2502    0.7610 C.3     1  UNL1        0.1967
     36 C          23.3882   73.7753    0.3627 C.3     1  UNL1        0.1761
     37 C          23.0067   71.5417   -0.3980 C.3     1  UNL1        0.2704
     38 H          20.2949   73.0392    2.8455 H       1  UNL1        0.2105
     39 H          21.1731   74.6978    2.5974 H       1  UNL1        0.2105
     40 H          20.4463   70.1556    1.0935 H       1  UNL1        0.2106
     41 O          25.3306   74.1562    1.7009 O.3     1  UNL1       -0.3794
     42 C          24.5398   74.7283    0.6754 C.3     1  UNL1        0.1693
     43 H          26.0677   74.7517    1.9102 H       1  UNL1        0.2105
@<TRIPOS>UNITY_ATOM_ATTR
2 1
charge -1
26 1
charge -1
@<TRIPOS>BOND
     1    25    28    1
     2    25    24    1
     3    25    26    1
     4    25    27    2
     5     1     4    1
     6     1    24    1
     7     1     2    1
     8     1     3    2
     9     6    11    1
    10     6    12    1
    11    29    36    1
    12    29    37    1
    13     7     9    1
    14     7    13    1
    15     8    10    1
    16     8    14    1
    17    28    37    1
    18     4     5    1
    19    30    33    1
    20    30    38    1
    21    31    34    1
    22    31    39    1
    23    32    35    1
    24    32    40    1
    25    41    42    1
    26    41    43    1
    27    15    19    2
    28    16    22    2
    29    17    12    1
    30    17    19   ar
    31    17    20   ar
    32    18    19   ar
    33    18    22   ar
    34    18    23    1
    35     9    10    1
    36     9    11    1
    37    10    12    1
    38    11     5    1
    39    33    34    1
    40    33    35    1
    41    34    36    1
    42    35    37    1
    43    36    42    1
    44    20    21   ar
    45    21    22   ar
@<TRIPOS>MOLECULE
*****
 43 45 0 0 0
SMALL
GASTEIGER

@<TRIPOS>ATOM
      1 P          23.2507   73.7838   -3.8743 P.3     1  UNL1        0.2189
      2 O          23.3903   75.1868   -3.0810 O.co2   1  UNL1       -0.4371
      3 O          24.5486   73.1714   -4.3122 O.2     1  UNL1       -0.5170
      4 O          22.1934   74.1088   -5.0552 O.3     1  UNL1       -0.3112
      5 C          21.0186   73.3219   -5.1462 C.3     1  UNL1        0.1811
      6 O          20.6596   71.0207   -5.7374 O.3     1  UNL1       -0.3308
      7 O          21.1167   71.8732   -8.5756 O.3     1  UNL1       -0.3794
      8 O          18.3988   71.6965   -8.4384 O.3     1  UNL1       -0.3779
      9 C          20.4695   72.5754   -7.5157 C.3     1  UNL1        0.1713
     10 C          19.1037   71.9789   -7.2467 C.3     1  UNL1        0.1895
     11 C          21.2132   72.2633   -6.2231 C.3     1  UNL1        0.1764
     12 C          19.4561   70.7249   -6.4648 C.3     1  UNL1        0.2383
     13 H          20.6596   72.0573   -9.4117 H       1  UNL1        0.2105
     14 H          18.1979   72.5257   -8.8996 H       1  UNL1        0.2106
     15 O          16.9682   69.6064   -7.1977 O.2     1  UNL1       -0.2464
     16 O          15.5886   69.3382   -2.8084 O.2     1  UNL1       -0.2670
     17 N          18.4282   70.3529   -5.5339 N.ar    1  UNL1       -0.2551
     18 N          16.2834   69.4736   -5.0116 N.ar    1  UNL1       -0.2743
     19 C          17.2148   69.8001   -6.0055 C.ar    1  UNL1        0.3323
     20 C          18.6287   70.5369   -4.1702 C.ar    1  UNL1        0.0869
     21 C          17.7299   70.2215   -3.2353 C.ar    1  UNL1        0.0795
     22 C          16.4356   69.6386   -3.6440 C.ar    1  UNL1        0.2626
     23 H          15.4304   69.0873   -5.3166 H       1  UNL1        0.1734
     24 O          22.3878   72.8738   -2.8543 O.3     1  UNL1       -0.2703
     25 P          22.7232   71.4569   -2.1523 P.3     1  UNL1        0.2208
     26 O          24.0519   70.9621   -2.9315 O.co2   1  UNL1       -0.4371
     27 O          21.5886   70.4741   -2.1770 O.2     1  UNL1       -0.5170
     28 O          23.2391   71.8458   -0.6733 O.3     1  UNL1       -0.2858
     29 O          24.5515   70.9144    1.0664 O.3     1  UNL1       -0.3258
     30 O          21.1782   71.8941    3.2371 O.3     1  UNL1       -0.3794
     31 O          23.5768   73.4380    3.5704 O.3     1  UNL1       -0.3794
     32 O          20.9138   70.8569    0.5475 O.3     1  UNL1       -0.3775
     33 C          22.1648   72.0628    2.2155 C.3     1  UNL1        0.1715
     34 C          23.5338   72.1885    2.8869 C.3     1  UNL1        0.1694
     35 C          22.1316   70.8521    1.2847 C.3     1  UNL1        0.1967
     36 C          24.6667   72.1045    1.8551 C.3     1  UNL1        0.1761
     37 C          23.3282   70.8392    0.3318 C.3     1  UNL1        0.2704
     38 H          21.1937   72.6598    3.8312 H       1  UNL1        0.2105
     39 H          22.8561   73.4784    4.2186 H       1  UNL1        0.2105
     40 H          20.1640   70.8647    1.1620 H       1  UNL1        0.2106
     41 O          26.5531   70.7524    2.4226 O.3     1  UNL1       -0.3794
     42 C          26.0421   72.0692    2.5176 C.3     1  UNL1        0.1693
     43 H          27.4284   70.7149    2.8399 H       1  UNL1        0.2105
@<TRIPOS>UNITY_ATOM_ATTR
2 1
charge -1
26 1
charge -1
@<TRIPOS>BOND
     1    25    28    1
     2    25    24    1
     3    25    26    1
     4    25    27    2
     5     1     4    1
     6     1    24    1
     7     1     2    1
     8     1     3    2
     9     6    11    1
    10     6    12    1
    11    29    36    1
    12    29    37    1
    13     7     9    1
    14     7    13    1
    15     8    10    1
    16     8    14    1
    17    28    37    1
    18     4     5    1
    19    30    33    1
    20    30    38    1
    21    31    34    1
    22    31    39    1
    23    32    35    1
    24    32    40    1
    25    41    42    1
    26    41    43    1
    27    15    19    2
    28    16    22    2
    29    17    12    1
    30    17    19   ar
    31    17    20   ar
    32    18    19   ar
    33    18    22   ar
    34    18    23    1
    35     9    10    1
    36     9    11    1
    37    10    12    1
    38    11     5    1
    39    33    34    1
    40    33    35    1
    41    34    36    1
    42    35    37    1
    43    36    42    1
    44    20    21   ar
    45    21    22   ar
@<TRIPOS>MOLECULE
*****
 43 45 0 0 0
SMALL
GASTEIGER

@<TRIPOS>ATOM
      1 P          22.7511   72.8616   -4.4300 P.3     1  UNL1        0.2189
      2 O          23.1704   73.5917   -5.8115 O.co2   1  UNL1       -0.4371
      3 O          23.7761   71.9157   -3.8767 O.2     1  UNL1       -0.5170
      4 O          21.3032   72.2169   -4.7553 O.3     1  UNL1       -0.3112
      5 C          20.7991   71.2151   -3.8892 C.3     1  UNL1        0.1811
      6 O          18.7345   71.9358   -4.8849 O.3     1  UNL1       -0.3308
      7 O          17.3705   70.6068   -2.5688 O.3     1  UNL1       -0.3794
      8 O          17.0657   68.7771   -4.5678 O.3     1  UNL1       -0.3779
      9 C          18.5451   70.2084   -3.2738 C.3     1  UNL1        0.1713
     10 C          18.1782   69.6461   -4.6313 C.3     1  UNL1        0.1895
     11 C          19.3169   71.4672   -3.6490 C.3     1  UNL1        0.1764
     12 C          17.8900   70.9076   -5.4274 C.3     1  UNL1        0.2383
     13 H          16.8612   69.8195   -2.3184 H       1  UNL1        0.2105
     14 H          17.2991   67.9901   -4.0513 H       1  UNL1        0.2106
     15 O          15.9416   70.4919   -7.4297 O.2     1  UNL1       -0.2464
     16 O          19.1293   70.3247  -10.7541 O.2     1  UNL1       -0.2670
     17 N          18.1828   70.7525   -6.8244 N.ar    1  UNL1       -0.2551
     18 N          17.5304   70.4092   -9.0834 N.ar    1  UNL1       -0.2743
     19 C          17.1313   70.5473   -7.7478 C.ar    1  UNL1        0.3323
     20 C          19.5003   70.8048   -7.2662 C.ar    1  UNL1        0.0869
     21 C          19.8644   70.6700   -8.5432 C.ar    1  UNL1        0.0795
     22 C          18.8267   70.4525   -9.5717 C.ar    1  UNL1        0.2626
     23 H          16.8150   70.2649   -9.7445 H       1  UNL1        0.1734
     24 O          22.3869   74.1018   -3.4594 O.3     1  UNL1       -0.2703
     25 P          23.1257   74.6680   -2.1378 P.3     1  UNL1        0.2208
     26 O          22.4546   76.1259   -1.9334 O.co2   1  UNL1       -0.4371
     27 O          24.6241   74.6834   -2.2294 O.2     1  UNL1       -0.5170
     28 O          22.5387   73.7757   -0.9278 O.3     1  UNL1       -0.2858
     29 O          23.4994   73.7059    1.2376 O.3     1  UNL1       -0.3258
     30 O          21.7171   69.9814    1.1861 O.3     1  UNL1       -0.3794
     31 O          20.5946   72.0682    2.8089 O.3     1  UNL1       -0.3794
     32 O          22.9678   71.0169   -1.2104 O.3     1  UNL1       -0.3775
     33 C          21.8334   71.3745    0.8841 C.3     1  UNL1        0.1715
     34 C          21.8816   72.1487    2.2028 C.3     1  UNL1        0.1694
     35 C          23.1102   71.6056    0.0779 C.3     1  UNL1        0.1967
     36 C          22.2722   73.6146    1.9706 C.3     1  UNL1        0.1761
     37 C          23.4341   73.0949   -0.0525 C.3     1  UNL1        0.2704
     38 H          20.9081   69.8279    1.6975 H       1  UNL1        0.2105
     39 H          20.3598   71.1375    2.9496 H       1  UNL1        0.2105
     40 H          22.7633   70.0742   -1.1141 H       1  UNL1        0.2106
     41 O          22.6452   73.4183    4.3225 O.3     1  UNL1       -0.3794
     42 C          22.4800   74.3659    3.2838 C.3     1  UNL1        0.1693
     43 H          22.7787   73.8821    5.1643 H       1  UNL1        0.2105
@<TRIPOS>UNITY_ATOM_ATTR
2 1
charge -1
26 1
charge -1
@<TRIPOS>BOND
     1    25    28    1
     2    25    24    1
     3    25    26    1
     4    25    27    2
     5     1     4    1
     6     1    24    1
     7     1     2    1
     8     1     3    2
     9     6    11    1
    10     6    12    1
    11    29    36    1
    12    29    37    1
    13     7     9    1
    14     7    13    1
    15     8    10    1
    16     8    14    1
    17    28    37    1
    18     4     5    1
    19    30    33    1
    20    30    38    1
    21    31    34    1
    22    31    39    1
    23    32    35    1
    24    32    40    1
    25    41    42    1
    26    41    43    1
    27    15    19    2
    28    16    22    2
    29    17    12    1
    30    17    19   ar
    31    17    20   ar
    32    18    19   ar
    33    18    22   ar
    34    18    23    1
    35     9    10    1
    36     9    11    1
    37    10    12    1
    38    11     5    1
    39    33    34    1
    40    33    35    1
    41    34    36    1
    42    35    37    1
    43    36    42    1
    44    20    21   ar
    45    21    22   ar
@<TRIPOS>MOLECULE
*****
 43 45 0 0 0
SMALL
GASTEIGER

@<TRIPOS>ATOM
      1 P          22.3220   72.9830   -6.8170 P.3     1  UNL1        0.2189
      2 O          21.3899   74.1149   -6.1334 O.co2   1  UNL1       -0.4371
      3 O          23.1196   73.4482   -7.9997 O.2     1  UNL1       -0.5170
      4 O          21.3035   71.7568   -7.0948 O.3     1  UNL1       -0.3112
      5 C          19.9762   72.0567   -7.4901 C.3     1  UNL1        0.1811
      6 O          18.7837   70.0086   -7.0942 O.3     1  UNL1       -0.3308
      7 O          18.0911   70.0667  -10.0110 O.3     1  UNL1       -0.3794
      8 O          15.8073   70.9877   -8.8393 O.3     1  UNL1       -0.3779
      9 C          18.2199   71.1508   -9.0925 C.3     1  UNL1        0.1713
     10 C          17.0284   71.1931   -8.1586 C.3     1  UNL1        0.1895
     11 C          19.3611   70.8236   -8.1376 C.3     1  UNL1        0.1764
     12 C          17.3510   70.0719   -7.1854 C.3     1  UNL1        0.2383
     13 H          17.3684   70.2530  -10.6314 H       1  UNL1        0.2105
     14 H          15.6469   71.7272   -9.4461 H       1  UNL1        0.2106
     15 O          16.5107   68.0406   -5.4118 O.2     1  UNL1       -0.2464
     16 O          15.2921   71.1035   -2.1907 O.2     1  UNL1       -0.2670
     17 N          16.8105   70.3102   -5.8767 N.ar    1  UNL1       -0.2551
     18 N          15.9048   69.5673   -3.8093 N.ar    1  UNL1       -0.2743
     19 C          16.4178   69.2201   -5.0656 C.ar    1  UNL1        0.3323
     20 C          16.6749   71.6130   -5.4097 C.ar    1  UNL1        0.0869
     21 C          16.1826   71.9273   -4.2096 C.ar    1  UNL1        0.0795
     22 C          15.7489   70.8469   -3.3004 C.ar    1  UNL1        0.2626
     23 H          15.6243   68.8243   -3.2271 H       1  UNL1        0.1734
     24 O          23.2087   72.4449   -5.5772 O.3     1  UNL1       -0.2703
     25 P          22.8828   72.3617   -3.9961 P.3     1  UNL1        0.2208
     26 O          24.0873   71.4503   -3.4164 O.co2   1  UNL1       -0.4371
     27 O          21.5087   71.8477   -3.6774 O.2     1  UNL1       -0.5170
     28 O          23.1884   73.8447   -3.4374 O.3     1  UNL1       -0.2858
     29 O          25.0326   74.9240   -4.4624 O.3     1  UNL1       -0.3258
     30 O          24.5292   77.4215   -1.2127 O.3     1  UNL1       -0.3794
     31 O          23.7816   78.3336   -3.8313 O.3     1  UNL1       -0.3794
     32 O          24.1683   74.5655   -0.9085 O.3     1  UNL1       -0.3775
     33 C          24.1045   76.5534   -2.2670 C.3     1  UNL1        0.1715
     34 C          24.5543   77.1595   -3.5978 C.3     1  UNL1        0.1694
     35 C          24.7335   75.1763   -2.0635 C.3     1  UNL1        0.1967
     36 C          24.3728   76.1624   -4.7501 C.3     1  UNL1        0.1761
     37 C          24.5374   74.2794   -3.2871 C.3     1  UNL1        0.2704
     38 H          24.1330   78.2975   -1.3357 H       1  UNL1        0.2105
     39 H          23.9048   78.9547   -3.0963 H       1  UNL1        0.2105
     40 H          24.2993   75.1428   -0.1408 H       1  UNL1        0.2106
     41 O          24.5036   75.8659   -7.1174 O.3     1  UNL1       -0.3794
     42 C          24.9601   76.6872   -6.0585 C.3     1  UNL1        0.1693
     43 H          24.8692   76.1883   -7.9565 H       1  UNL1        0.2105
@<TRIPOS>UNITY_ATOM_ATTR
2 1
charge -1
26 1
charge -1
@<TRIPOS>BOND
     1    25    28    1
     2    25    24    1
     3    25    26    1
     4    25    27    2
     5     1     4    1
     6     1    24    1
     7     1     2    1
     8     1     3    2
     9     6    11    1
    10     6    12    1
    11    29    36    1
    12    29    37    1
    13     7     9    1
    14     7    13    1
    15     8    10    1
    16     8    14    1
    17    28    37    1
    18     4     5    1
    19    30    33    1
    20    30    38    1
    21    31    34    1
    22    31    39    1
    23    32    35    1
    24    32    40    1
    25    41    42    1
    26    41    43    1
    27    15    19    2
    28    16    22    2
    29    17    12    1
    30    17    19   ar
    31    17    20   ar
    32    18    19   ar
    33    18    22   ar
    34    18    23    1
    35     9    10    1
    36     9    11    1
    37    10    12    1
    38    11     5    1
    39    33    34    1
    40    33    35    1
    41    34    36    1
    42    35    37    1
    43    36    42    1
    44    20    21   ar
    45    21    22   ar
@<TRIPOS>MOLECULE
*****
 43 45 0 0 0
SMALL
GASTEIGER

@<TRIPOS>ATOM
      1 P          23.3924   72.3288   -3.4955 P.3     1  UNL1        0.2189
      2 O          23.9908   70.8453   -3.2535 O.co2   1  UNL1       -0.4371
      3 O          24.3830   73.3376   -3.9979 O.2     1  UNL1       -0.5170
      4 O          22.6713   72.6903   -2.0930 O.3     1  UNL1       -0.3112
      5 C          23.4672   72.7651   -0.9231 C.3     1  UNL1        0.1811
      6 O          24.4851   71.2666    0.6556 O.3     1  UNL1       -0.3308
      7 O          21.7175   70.2401    1.1820 O.3     1  UNL1       -0.3794
      8 O          22.1494   71.8993    3.3026 O.3     1  UNL1       -0.3779
      9 C          22.1469   71.5696    0.8938 C.3     1  UNL1        0.1713
     10 C          22.8380   72.1719    2.0993 C.3     1  UNL1        0.1895
     11 C          23.2844   71.4867   -0.1165 C.3     1  UNL1        0.1764
     12 C          24.2036   71.5083    2.0438 C.3     1  UNL1        0.2383
     13 H          20.9910   70.2673    1.8250 H       1  UNL1        0.2105
     14 H          21.2871   72.3432    3.2896 H       1  UNL1        0.2106
     15 O          26.8787   70.6839    2.4208 O.2     1  UNL1       -0.2464
     16 O          28.0886   74.7784    4.1563 O.2     1  UNL1       -0.2670
     17 N          25.2387   72.3387    2.5919 N.ar    1  UNL1       -0.2551
     18 N          27.4790   72.7234    3.2844 N.ar    1  UNL1       -0.2743
     19 C          26.5493   71.8280    2.7403 C.ar    1  UNL1        0.3323
     20 C          24.9499   73.6438    2.9754 C.ar    1  UNL1        0.0869
     21 C          25.8475   74.4845    3.4938 C.ar    1  UNL1        0.0795
     22 C          27.2401   74.0293    3.6821 C.ar    1  UNL1        0.2626
     23 H          28.3985   72.3894    3.3975 H       1  UNL1        0.1734
     24 O          22.1443   72.0600   -4.4871 O.3     1  UNL1       -0.2703
     25 P          20.6650   72.7100   -4.5318 P.3     1  UNL1        0.2208
     26 O          20.9602   74.2977   -4.6307 O.co2   1  UNL1       -0.4371
     27 O          19.7840   72.3144   -3.3824 O.2     1  UNL1       -0.5170
     28 O          20.0875   72.3114   -5.9853 O.3     1  UNL1       -0.2858
     29 O          19.2481   70.0981   -6.0993 O.3     1  UNL1       -0.3258
     30 O          19.3398   70.9775  -10.1328 O.3     1  UNL1       -0.3794
     31 O          16.8157   70.8300   -8.7707 O.3     1  UNL1       -0.3794
     32 O          21.4601   71.9184   -8.4012 O.3     1  UNL1       -0.3775
     33 C          19.1684   71.2598   -8.7412 C.3     1  UNL1        0.1715
     34 C          18.0419   70.3728   -8.2072 C.3     1  UNL1        0.1694
     35 C          20.4762   70.9678   -8.0079 C.3     1  UNL1        0.1967
     36 C          17.9771   70.4224   -6.6747 C.3     1  UNL1        0.1761
     37 C          20.2905   70.9940   -6.4897 C.3     1  UNL1        0.2704
     38 H          18.5131   71.1613  -10.6042 H       1  UNL1        0.2105
     39 H          16.8700   70.7942   -9.7387 H       1  UNL1        0.2105
     40 H          21.5686   71.8918   -9.3642 H       1  UNL1        0.2106
     41 O          15.7332   69.6088   -6.7850 O.3     1  UNL1       -0.3794
     42 C          16.9656   69.4259   -6.1126 C.3     1  UNL1        0.1693
     43 H          15.0798   68.9809   -6.4377 H       1  UNL1        0.2105
@<TRIPOS>UNITY_ATOM_ATTR
2 1
charge -1
26 1
charge -1
@<TRIPOS>BOND
     1    25    28    1
     2    25    24    1
     3    25    26    1
     4    25    27    2
     5     1     4    1
     6     1    24    1
     7     1     2    1
     8     1     3    2
     9     6    11    1
    10     6    12    1
    11    29    36    1
    12    29    37    1
    13     7     9    1
    14     7    13    1
    15     8    10    1
    16     8    14    1
    17    28    37    1
    18     4     5    1
    19    30    33    1
    20    30    38    1
    21    31    34    1
    22    31    39    1
    23    32    35    1
    24    32    40    1
    25    41    42    1
    26    41    43    1
    27    15    19    2
    28    16    22    2
    29    17    12    1
    30    17    19   ar
    31    17    20   ar
    32    18    19   ar
    33    18    22   ar
    34    18    23    1
    35     9    10    1
    36     9    11    1
    37    10    12    1
    38    11     5    1
    39    33    34    1
    40    33    35    1
    41    34    36    1
    42    35    37    1
    43    36    42    1
    44    20    21   ar
    45    21    22   ar
@<TRIPOS>MOLECULE
*****
 43 45 0 0 0
SMALL
GASTEIGER

@<TRIPOS>ATOM
      1 P          22.6684   73.0639   -4.8400 P.3     1  UNL1        0.2189
      2 O          24.0376   72.3362   -4.3781 O.co2   1  UNL1       -0.4371
      3 O          22.8514   74.2263   -5.7710 O.2     1  UNL1       -0.5170
      4 O          21.9135   73.3915   -3.4469 O.3     1  UNL1       -0.3112
      5 C          22.6045   73.1574   -2.2322 C.3     1  UNL1        0.1811
      6 O          23.2791   71.2881   -0.8815 O.3     1  UNL1       -0.3308
      7 O          20.3675   70.5879   -0.7282 O.3     1  UNL1       -0.3794
      8 O          20.8167   71.7919    1.6771 O.3     1  UNL1       -0.3779
      9 C          20.9866   71.8731   -0.7470 C.3     1  UNL1        0.1713
     10 C          21.6388   72.1621    0.5890 C.3     1  UNL1        0.1895
     11 C          22.1896   71.8009   -1.6792 C.3     1  UNL1        0.1764
     12 C          22.9082   71.3316    0.5061 C.3     1  UNL1        0.2383
     13 H          19.5962   70.6093   -0.1395 H       1  UNL1        0.2105
     14 H          20.0226   72.3486    1.6866 H       1  UNL1        0.2106
     15 O          24.8067   69.8340    1.9659 O.2     1  UNL1       -0.2464
     16 O          27.0055   73.6369    3.3606 O.2     1  UNL1       -0.2670
     17 N          23.9877   71.9046    1.2596 N.ar    1  UNL1       -0.2551
     18 N          25.9001   71.7287    2.6590 N.ar    1  UNL1       -0.2743
     19 C          24.8855   71.0642    1.9582 C.ar    1  UNL1        0.3323
     20 C          24.1481   73.2854    1.3002 C.ar    1  UNL1        0.0869
     21 C          25.1201   73.9036    1.9742 C.ar    1  UNL1        0.0795
     22 C          26.1004   73.0982    2.7309 C.ar    1  UNL1        0.2626
     23 H          26.5371   71.1636    3.1535 H       1  UNL1        0.1734
     24 O          21.7967   71.8459   -5.4479 O.3     1  UNL1       -0.2703
     25 P          20.9941   71.7084   -6.8443 P.3     1  UNL1        0.2208
     26 O          21.2400   70.1651   -7.2632 O.co2   1  UNL1       -0.4371
     27 O          21.4020   72.7061   -7.8893 O.2     1  UNL1       -0.5170
     28 O          19.4361   71.7746   -6.4283 O.3     1  UNL1       -0.2858
     29 O          17.7681   70.2741   -5.6647 O.3     1  UNL1       -0.3258
     30 O          15.6602   72.1143   -8.7014 O.3     1  UNL1       -0.3794
     31 O          15.0107   72.7020   -5.9663 O.3     1  UNL1       -0.3794
     32 O          18.4711   71.5174   -9.0508 O.3     1  UNL1       -0.3775
     33 C          16.6008   72.0418   -7.6266 C.3     1  UNL1        0.1715
     34 C          15.8513   71.6212   -6.3609 C.3     1  UNL1        0.1694
     35 C          17.6808   71.0197   -7.9765 C.3     1  UNL1        0.1967
     36 C          16.8274   71.2638   -5.2319 C.3     1  UNL1        0.1761
     37 C          18.5665   70.6988   -6.7712 C.3     1  UNL1        0.2704
     38 H          14.9720   72.7619   -8.4858 H       1  UNL1        0.2105
     39 H          14.3995   72.9180   -6.6882 H       1  UNL1        0.2105
     40 H          17.8990   71.7165   -9.8077 H       1  UNL1        0.2106
     41 O          15.1111   71.6120   -3.6064 O.3     1  UNL1       -0.3794
     42 C          16.1071   70.6916   -4.0129 C.3     1  UNL1        0.1693
     43 H          14.6442   71.2609   -2.8315 H       1  UNL1        0.2105
@<TRIPOS>UNITY_ATOM_ATTR
2 1
charge -1
26 1
charge -1
@<TRIPOS>BOND
     1    25    28    1
     2    25    24    1
     3    25    26    1
     4    25    27    2
     5     1     4    1
     6     1    24    1
     7     1     2    1
     8     1     3    2
     9     6    11    1
    10     6    12    1
    11    29    36    1
    12    29    37    1
    13     7     9    1
    14     7    13    1
    15     8    10    1
    16     8    14    1
    17    28    37    1
    18     4     5    1
    19    30    33    1
    20    30    38    1
    21    31    34    1
    22    31    39    1
    23    32    35    1
    24    32    40    1
    25    41    42    1
    26    41    43    1
    27    15    19    2
    28    16    22    2
    29    17    12    1
    30    17    19   ar
    31    17    20   ar
    32    18    19   ar
    33    18    22   ar
    34    18    23    1
    35     9    10    1
    36     9    11    1
    37    10    12    1
    38    11     5    1
    39    33    34    1
    40    33    35    1
    41    34    36    1
    42    35    37    1
    43    36    42    1
    44    20    21   ar
    45    21    22   ar
@<TRIPOS>MOLECULE
*****
 43 45 0 0 0
SMALL
GASTEIGER

@<TRIPOS>ATOM
      1 P          22.1870   73.2149   -4.7476 P.3     1  UNL1        0.2189
      2 O          22.5400   74.7812   -4.5489 O.co2   1  UNL1       -0.4371
      3 O          23.0018   72.5091   -5.7914 O.2     1  UNL1       -0.5170
      4 O          20.5858   73.2040   -4.9800 O.3     1  UNL1       -0.3112
      5 C          19.7777   72.4607   -4.0843 C.3     1  UNL1        0.1811
      6 O          18.0915   73.0478   -5.6924 O.3     1  UNL1       -0.3308
      7 O          16.0933   72.4329   -3.5430 O.3     1  UNL1       -0.3794
      8 O          16.0137   70.1875   -5.0884 O.3     1  UNL1       -0.3779
      9 C          17.3359   71.7931   -3.8294 C.3     1  UNL1        0.1713
     10 C          17.2120   70.9363   -5.0720 C.3     1  UNL1        0.1895
     11 C          18.3224   72.8639   -4.2784 C.3     1  UNL1        0.1764
     12 C          17.2669   71.9760   -6.1784 C.3     1  UNL1        0.2383
     13 H          15.4471   71.7690   -3.2537 H       1  UNL1        0.2105
     14 H          16.0269   69.5402   -4.3663 H       1  UNL1        0.2106
     15 O          15.8027   70.6557   -8.2010 O.2     1  UNL1       -0.2464
     16 O          19.5728   70.0304  -10.7770 O.2     1  UNL1       -0.2670
     17 N          17.8405   71.4582   -7.3885 N.ar    1  UNL1       -0.2551
     18 N          17.6811   70.3456   -9.4820 N.ar    1  UNL1       -0.2743
     19 C          17.0177   70.8110   -8.3396 C.ar    1  UNL1        0.3323
     20 C          19.2045   71.5948   -7.6226 C.ar    1  UNL1        0.0869
     21 C          19.8220   71.1443   -8.7167 C.ar    1  UNL1        0.0795
     22 C          19.0343   70.4561   -9.7598 C.ar    1  UNL1        0.2626
     23 H          17.1281   69.8910  -10.1583 H       1  UNL1        0.1734
     24 O          22.3415   72.6153   -3.2544 O.3     1  UNL1       -0.2703
     25 P          22.6614   71.1165   -2.7402 P.3     1  UNL1        0.2208
     26 O          24.2497   70.9637   -3.0074 O.co2   1  UNL1       -0.4371
     27 O          21.8200   70.0525   -3.3835 O.2     1  UNL1       -0.5170
     28 O          22.5242   71.1977   -1.1341 O.3     1  UNL1       -0.2858
     29 O          22.1722   73.3331   -0.1682 O.3     1  UNL1       -0.3258
     30 O          23.4514   71.2941    3.1869 O.3     1  UNL1       -0.3794
     31 O          20.6844   72.0223    2.9393 O.3     1  UNL1       -0.3794
     32 O          24.6716   70.7561    0.6176 O.3     1  UNL1       -0.3775
     33 C          22.7782   71.4500    1.9347 C.3     1  UNL1        0.1715
     34 C          21.7117   72.5350    2.0955 C.3     1  UNL1        0.1694
     35 C          23.7954   71.8498    0.8675 C.3     1  UNL1        0.1967
     36 C          21.1307   72.9466    0.7360 C.3     1  UNL1        0.1761
     37 C          23.1113   72.2881   -0.4287 C.3     1  UNL1        0.2704
     38 H          22.8112   71.0397    3.8688 H       1  UNL1        0.2105
     39 H          21.0645   71.7657    3.7943 H       1  UNL1        0.2105
     40 H          25.0986   70.4883    1.4457 H       1  UNL1        0.2106
     41 O          20.4306   74.7880    2.0880 O.3     1  UNL1       -0.3794
     42 C          20.1804   74.1359    0.8565 C.3     1  UNL1        0.1693
     43 H          19.8332   75.5474    2.1782 H       1  UNL1        0.2105
@<TRIPOS>UNITY_ATOM_ATTR
2 1
charge -1
26 1
charge -1
@<TRIPOS>BOND
     1    25    28    1
     2    25    24    1
     3    25    26    1
     4    25    27    2
     5     1     4    1
     6     1    24    1
     7     1     2    1
     8     1     3    2
     9     6    11    1
    10     6    12    1
    11    29    36    1
    12    29    37    1
    13     7     9    1
    14     7    13    1
    15     8    10    1
    16     8    14    1
    17    28    37    1
    18     4     5    1
    19    30    33    1
    20    30    38    1
    21    31    34    1
    22    31    39    1
    23    32    35    1
    24    32    40    1
    25    41    42    1
    26    41    43    1
    27    15    19    2
    28    16    22    2
    29    17    12    1
    30    17    19   ar
    31    17    20   ar
    32    18    19   ar
    33    18    22   ar
    34    18    23    1
    35     9    10    1
    36     9    11    1
    37    10    12    1
    38    11     5    1
    39    33    34    1
    40    33    35    1
    41    34    36    1
    42    35    37    1
    43    36    42    1
    44    20    21   ar
    45    21    22   ar
@<TRIPOS>MOLECULE
*****
 43 45 0 0 0
SMALL
GASTEIGER

@<TRIPOS>ATOM
      1 P          20.9210   71.9108   -4.8477 P.3     1  UNL1        0.2189
      2 O          20.1122   73.3001   -4.6658 O.co2   1  UNL1       -0.4371
      3 O          21.8442   71.8649   -6.0296 O.2     1  UNL1       -0.5170
      4 O          19.7636   70.7805   -4.8158 O.3     1  UNL1       -0.3112
      5 C          19.1336   70.4926   -3.5797 C.3     1  UNL1        0.1811
      6 O          17.4201   71.4573   -4.9606 O.3     1  UNL1       -0.3308
      7 O          15.4699   69.8773   -3.3201 O.3     1  UNL1       -0.3794
      8 O          15.6925   68.3773   -5.5866 O.3     1  UNL1       -0.3779
      9 C          16.7861   69.5254   -3.7434 C.3     1  UNL1        0.1713
     10 C          16.7908   69.1872   -5.2196 C.3     1  UNL1        0.1895
     11 C          17.6442   70.7837   -3.7027 C.3     1  UNL1        0.1764
     12 C          16.7408   70.5646   -5.8586 C.3     1  UNL1        0.2383
     13 H          14.9034   69.0895   -3.3375 H       1  UNL1        0.2105
     14 H          15.7700   67.5122   -5.1548 H       1  UNL1        0.2106
     15 O          16.2559   72.5105   -7.8476 O.2     1  UNL1       -0.2464
     16 O          19.3122   70.6005  -10.7203 O.2     1  UNL1       -0.2670
     17 N          17.3961   70.6000   -7.1356 N.ar    1  UNL1       -0.2551
     18 N          17.7782   71.5580   -9.2763 N.ar    1  UNL1       -0.2743
     19 C          17.0798   71.6193   -8.0637 C.ar    1  UNL1        0.3323
     20 C          18.3410   69.6315   -7.4568 C.ar    1  UNL1        0.0869
     21 C          18.9972   69.5863   -8.6180 C.ar    1  UNL1        0.0795
     22 C          18.7253   70.6149   -9.6427 C.ar    1  UNL1        0.2626
     23 H          17.5740   72.2578   -9.9385 H       1  UNL1        0.1734
     24 O          21.6500   71.7247   -3.4170 O.3     1  UNL1       -0.2703
     25 P          22.9789   72.4122   -2.8053 P.3     1  UNL1        0.2208
     26 O          24.1658   71.8069   -3.7231 O.co2   1  UNL1       -0.4371
     27 O          23.1626   72.1928   -1.3315 O.2     1  UNL1       -0.5170
     28 O          22.8754   73.9623   -3.2431 O.3     1  UNL1       -0.2858
     29 O          23.7290   74.5235   -5.3815 O.3     1  UNL1       -0.3258
     30 O          23.5618   78.3023   -3.7252 O.3     1  UNL1       -0.3794
     31 O          21.6655   77.5560   -5.7489 O.3     1  UNL1       -0.3794
     32 O          24.3649   76.0469   -2.0981 O.3     1  UNL1       -0.3775
     33 C          23.1272   76.9589   -3.9523 C.3     1  UNL1        0.1715
     34 C          22.8318   76.7961   -5.4446 C.3     1  UNL1        0.1694
     35 C          24.2299   75.9968   -3.5144 C.3     1  UNL1        0.1967
     36 C          22.6186   75.3208   -5.8094 C.3     1  UNL1        0.1761
     37 C          23.9435   74.5646   -3.9694 C.3     1  UNL1        0.2704
     38 H          22.8659   78.9183   -4.0007 H       1  UNL1        0.2105
     39 H          21.8132   78.4855   -5.5133 H       1  UNL1        0.2105
     40 H          24.5462   76.9585   -1.8228 H       1  UNL1        0.2106
     41 O          21.1026   75.1412   -7.6474 O.3     1  UNL1       -0.3794
     42 C          22.4789   75.1188   -7.3166 C.3     1  UNL1        0.1693
     43 H          20.9984   75.0141   -8.6038 H       1  UNL1        0.2105
@<TRIPOS>UNITY_ATOM_ATTR
2 1
charge -1
26 1
charge -1
@<TRIPOS>BOND
     1    25    28    1
     2    25    24    1
     3    25    26    1
     4    25    27    2
     5     1     4    1
     6     1    24    1
     7     1     2    1
     8     1     3    2
     9     6    11    1
    10     6    12    1
    11    29    36    1
    12    29    37    1
    13     7     9    1
    14     7    13    1
    15     8    10    1
    16     8    14    1
    17    28    37    1
    18     4     5    1
    19    30    33    1
    20    30    38    1
    21    31    34    1
    22    31    39    1
    23    32    35    1
    24    32    40    1
    25    41    42    1
    26    41    43    1
    27    15    19    2
    28    16    22    2
    29    17    12    1
    30    17    19   ar
    31    17    20   ar
    32    18    19   ar
    33    18    22   ar
    34    18    23    1
    35     9    10    1
    36     9    11    1
    37    10    12    1
    38    11     5    1
    39    33    34    1
    40    33    35    1
    41    34    36    1
    42    35    37    1
    43    36    42    1
    44    20    21   ar
    45    21    22   ar
@<TRIPOS>MOLECULE
*****
 43 45 0 0 0
SMALL
GASTEIGER

@<TRIPOS>ATOM
      1 P          19.7426   70.8511   -2.6763 P.3     1  UNL1        0.2189
      2 O          19.9021   70.4684   -1.1125 O.co2   1  UNL1       -0.4371
      3 O          20.5355   69.9973   -3.6217 O.2     1  UNL1       -0.5170
      4 O          20.0640   72.4362   -2.7230 O.3     1  UNL1       -0.3112
      5 C          20.0742   73.1601   -1.5050 C.3     1  UNL1        0.1811
      6 O          21.9194   74.3087   -0.4802 O.3     1  UNL1       -0.3308
      7 O          22.4037   75.5408   -3.1706 O.3     1  UNL1       -0.3794
      8 O          24.2834   73.5675   -3.0735 O.3     1  UNL1       -0.3779
      9 C          21.9538   74.2259   -2.8483 C.3     1  UNL1        0.1713
     10 C          23.1019   73.3924   -2.3184 C.3     1  UNL1        0.1895
     11 C          21.0448   74.3266   -1.6297 C.3     1  UNL1        0.1764
     12 C          23.2354   73.9084   -0.8957 C.3     1  UNL1        0.2383
     13 H          22.9858   75.5022   -3.9463 H       1  UNL1        0.2105
     14 H          24.1480   73.2239   -3.9703 H       1  UNL1        0.2106
     15 O          23.0747   71.1273   -1.3623 O.2     1  UNL1       -0.2464
     16 O          25.1430   70.1513    2.6390 O.2     1  UNL1       -0.2670
     17 N          23.7243   72.9048    0.0072 N.ar    1  UNL1       -0.2551
     18 N          24.1048   70.6436    0.6304 N.ar    1  UNL1       -0.2743
     19 C          23.5937   71.5353   -0.3212 C.ar    1  UNL1        0.3323
     20 C          24.3258   73.2822    1.2029 C.ar    1  UNL1        0.0869
     21 C          24.8069   72.4194    2.1003 C.ar    1  UNL1        0.0795
     22 C          24.7101   70.9697    1.8337 C.ar    1  UNL1        0.2626
     23 H          24.0246   69.6842    0.4232 H       1  UNL1        0.1734
     24 O          18.1429   70.7979   -2.9022 O.3     1  UNL1       -0.2703
     25 P          17.2007   69.6597   -3.5577 P.3     1  UNL1        0.2208
     26 O          15.7099   70.1208   -3.1305 O.co2   1  UNL1       -0.4371
     27 O          17.5555   68.2585   -3.1521 O.2     1  UNL1       -0.5170
     28 O          17.2728   69.9348   -5.1464 O.3     1  UNL1       -0.2858
     29 O          18.8847   71.2057   -6.3311 O.3     1  UNL1       -0.3258
     30 O          15.5789   71.9760   -8.6826 O.3     1  UNL1       -0.3794
     31 O          17.6452   70.2406   -9.6659 O.3     1  UNL1       -0.3794
     32 O          15.2993   71.8177   -5.8057 O.3     1  UNL1       -0.3775
     33 C          16.4234   71.1868   -7.8403 C.3     1  UNL1        0.1715
     34 C          17.7922   71.0647   -8.5129 C.3     1  UNL1        0.1694
     35 C          16.5517   71.8707   -6.4805 C.3     1  UNL1        0.1967
     36 C          18.8286   70.4627   -7.5544 C.3     1  UNL1        0.1761
     37 C          17.6429   71.2255   -5.6243 C.3     1  UNL1        0.2704
     38 H          15.4930   71.5470   -9.5475 H       1  UNL1        0.2105
     39 H          16.9877   70.6316  -10.2626 H       1  UNL1        0.2105
     40 H          14.6170   72.2296   -6.3578 H       1  UNL1        0.2106
     41 O          20.3155   71.5368   -9.0856 O.3     1  UNL1       -0.3794
     42 C          20.2348   70.4774   -8.1500 C.3     1  UNL1        0.1693
     43 H          21.2052   71.5585   -9.4726 H       1  UNL1        0.2105
@<TRIPOS>UNITY_ATOM_ATTR
2 1
charge -1
26 1
charge -1
@<TRIPOS>BOND
     1    25    28    1
     2    25    24    1
     3    25    26    1
     4    25    27    2
     5     1     4    1
     6     1    24    1
     7     1     2    1
     8     1     3    2
     9     6    11    1
    10     6    12    1
    11    29    36    1
    12    29    37    1
    13     7     9    1
    14     7    13    1
    15     8    10    1
    16     8    14    1
    17    28    37    1
    18     4     5    1
    19    30    33    1
    20    30    38    1
    21    31    34    1
    22    31    39    1
    23    32    35    1
    24    32    40    1
    25    41    42    1
    26    41    43    1
    27    15    19    2
    28    16    22    2
    29    17    12    1
    30    17    19   ar
    31    17    20   ar
    32    18    19   ar
    33    18    22   ar
    34    18    23    1
    35     9    10    1
    36     9    11    1
    37    10    12    1
    38    11     5    1
    39    33    34    1
    40    33    35    1
    41    34    36    1
    42    35    37    1
    43    36    42    1
    44    20    21   ar
    45    21    22   ar
@<TRIPOS>MOLECULE
*****
 43 45 0 0 0
SMALL
GASTEIGER

@<TRIPOS>ATOM
      1 P          18.3272   73.2235   -2.7870 P.3     1  UNL1        0.2189
      2 O          17.0173   74.1253   -2.4899 O.co2   1  UNL1       -0.4371
      3 O          18.1741   71.7629   -2.4795 O.2     1  UNL1       -0.5170
      4 O          19.5128   73.9878   -1.9944 O.3     1  UNL1       -0.3112
      5 C          20.3387   73.2348   -1.1234 C.3     1  UNL1        0.1811
      6 O          20.4022   72.2346    1.0605 O.3     1  UNL1       -0.3308
      7 O          18.8627   74.6309    1.9977 O.3     1  UNL1       -0.3794
      8 O          21.4074   75.2136    2.7863 O.3     1  UNL1       -0.3779
      9 C          19.8879   74.5473    1.0090 C.3     1  UNL1        0.1713
     10 C          21.2398   74.3669    1.6674 C.3     1  UNL1        0.1895
     11 C          19.7172   73.2279    0.2665 C.3     1  UNL1        0.1764
     12 C          21.2120   72.8959    2.0462 C.3     1  UNL1        0.2383
     13 H          18.9510   75.4657    2.4849 H       1  UNL1        0.2105
     14 H          21.4187   76.1382    2.4935 H       1  UNL1        0.2106
     15 O          21.7775   70.2673    1.1811 O.2     1  UNL1       -0.2464
     16 O          26.2704   70.7372    2.0945 O.2     1  UNL1       -0.2670
     17 N          22.5209   72.3057    2.0468 N.ar    1  UNL1       -0.2551
     18 N          24.0142   70.5035    1.6364 N.ar    1  UNL1       -0.2743
     19 C          22.6969   70.9778    1.5927 C.ar    1  UNL1        0.3323
     20 C          23.6128   73.0418    2.4937 C.ar    1  UNL1        0.0869
     21 C          24.8624   72.5744    2.5302 C.ar    1  UNL1        0.0795
     22 C          25.1324   71.1959    2.0732 C.ar    1  UNL1        0.2626
     23 H          24.1609   69.5807    1.3254 H       1  UNL1        0.1734
     24 O          18.6530   73.5546   -4.3353 O.3     1  UNL1       -0.2703
     25 P          20.0105   73.3801   -5.1952 P.3     1  UNL1        0.2208
     26 O          20.7979   72.2042   -4.4111 O.co2   1  UNL1       -0.4371
     27 O          20.7985   74.6466   -5.3650 O.2     1  UNL1       -0.5170
     28 O          19.5331   72.6988   -6.5784 O.3     1  UNL1       -0.2858
     29 O          18.6789   70.5733   -5.9708 O.3     1  UNL1       -0.3258
     30 O          18.0891   70.3792  -10.0531 O.3     1  UNL1       -0.3794
     31 O          15.8317   70.7078   -8.3083 O.3     1  UNL1       -0.3794
     32 O          20.4753   71.6322   -8.9970 O.3     1  UNL1       -0.3775
     33 C          18.1569   71.0181   -8.7754 C.3     1  UNL1        0.1715
     34 C          17.1341   70.3532   -7.8519 C.3     1  UNL1        0.1694
     35 C          19.5690   70.8627   -8.2140 C.3     1  UNL1        0.1967
     36 C          17.3300   70.7987   -6.3965 C.3     1  UNL1        0.1761
     37 C          19.6433   71.2878   -6.7464 C.3     1  UNL1        0.2704
     38 H          17.1951   70.4746  -10.4154 H       1  UNL1        0.2105
     39 H          15.7211   70.4214   -9.2286 H       1  UNL1        0.2105
     40 H          20.4190   71.3533   -9.9238 H       1  UNL1        0.2106
     41 O          16.0014   68.8391   -6.0743 O.3     1  UNL1       -0.3794
     42 C          16.4249   70.0299   -5.4363 C.3     1  UNL1        0.1693
     43 H          15.4248   68.3393   -5.4748 H       1  UNL1        0.2105
@<TRIPOS>UNITY_ATOM_ATTR
2 1
charge -1
26 1
charge -1
@<TRIPOS>BOND
     1    25    28    1
     2    25    24    1
     3    25    26    1
     4    25    27    2
     5     1     4    1
     6     1    24    1
     7     1     2    1
     8     1     3    2
     9     6    11    1
    10     6    12    1
    11    29    36    1
    12    29    37    1
    13     7     9    1
    14     7    13    1
    15     8    10    1
    16     8    14    1
    17    28    37    1
    18     4     5    1
    19    30    33    1
    20    30    38    1
    21    31    34    1
    22    31    39    1
    23    32    35    1
    24    32    40    1
    25    41    42    1
    26    41    43    1
    27    15    19    2
    28    16    22    2
    29    17    12    1
    30    17    19   ar
    31    17    20   ar
    32    18    19   ar
    33    18    22   ar
    34    18    23    1
    35     9    10    1
    36     9    11    1
    37    10    12    1
    38    11     5    1
    39    33    34    1
    40    33    35    1
    41    34    36    1
    42    35    37    1
    43    36    42    1
    44    20    21   ar
    45    21    22   ar
@<TRIPOS>MOLECULE
*****
 43 45 0 0 0
SMALL
GASTEIGER

@<TRIPOS>ATOM
      1 P          22.0720   72.8440   -5.0704 P.3     1  UNL1        0.2189
      2 O          21.4136   74.3140   -5.2222 O.co2   1  UNL1       -0.4371
      3 O          23.3886   72.6643   -5.7673 O.2     1  UNL1       -0.5170
      4 O          20.8902   71.8396   -5.5312 O.3     1  UNL1       -0.3112
      5 C          19.7002   71.7982   -4.7631 C.3     1  UNL1        0.1811
      6 O          18.0365   70.1823   -4.1349 O.3     1  UNL1       -0.3308
      7 O          17.5111   69.8598   -7.0693 O.3     1  UNL1       -0.3794
      8 O          15.4624   71.4736   -6.2726 O.3     1  UNL1       -0.3779
      9 C          17.8531   71.0360   -6.3380 C.3     1  UNL1        0.1713
     10 C          16.6650   71.5180   -5.5319 C.3     1  UNL1        0.1895
     11 C          18.8386   70.6394   -5.2458 C.3     1  UNL1        0.1764
     12 C          16.6660   70.5511   -4.3601 C.3     1  UNL1        0.2383
     13 H          16.8827   70.0880   -7.7729 H       1  UNL1        0.2105
     14 H          15.5109   72.1060   -7.0064 H       1  UNL1        0.2106
     15 O          15.5386   69.0890   -2.2226 O.2     1  UNL1       -0.2464
     16 O          14.6749   72.9228    0.1851 O.2     1  UNL1       -0.2670
     17 N          16.1391   71.1417   -3.1622 N.ar    1  UNL1       -0.2551
     18 N          15.1096   70.9991   -1.0254 N.ar    1  UNL1       -0.2743
     19 C          15.5942   70.3183   -2.1495 C.ar    1  UNL1        0.3323
     20 C          16.1664   72.5226   -3.0006 C.ar    1  UNL1        0.0869
     21 C          15.6990   73.1564   -1.9230 C.ar    1  UNL1        0.0795
     22 C          15.1131   72.3695   -0.8187 C.ar    1  UNL1        0.2626
     23 H          14.7250   70.4461   -0.3071 H       1  UNL1        0.1734
     24 O          22.1243   72.6329   -3.4686 O.3     1  UNL1       -0.2703
     25 P          22.6214   71.3781   -2.5790 P.3     1  UNL1        0.2208
     26 O          24.1208   71.1081   -3.1234 O.co2   1  UNL1       -0.4371
     27 O          21.7154   70.1825   -2.6410 O.2     1  UNL1       -0.5170
     28 O          22.8286   71.9842   -1.0976 O.3     1  UNL1       -0.2858
     29 O          24.2716   71.5146    0.7228 O.3     1  UNL1       -0.3258
     30 O          20.7135   71.8973    2.7830 O.3     1  UNL1       -0.3794
     31 O          22.7034   73.9572    2.9950 O.3     1  UNL1       -0.3794
     32 O          20.7499   70.6083    0.1913 O.3     1  UNL1       -0.3775
     33 C          21.6630   72.1956    1.7560 C.3     1  UNL1        0.1715
     34 C          22.9538   72.6772    2.4214 C.3     1  UNL1        0.1694
     35 C          21.9205   70.9349    0.9327 C.3     1  UNL1        0.1967
     36 C          24.1020   72.7616    1.4067 C.3     1  UNL1        0.1761
     37 C          23.1132   71.1092   -0.0092 C.3     1  UNL1        0.2704
     38 H          20.5452   72.6937    3.3092 H       1  UNL1        0.2105
     39 H          21.9760   73.8901    3.6335 H       1  UNL1        0.2105
     40 H          20.0022   70.5003    0.7989 H       1  UNL1        0.2106
     41 O          25.1731   73.7708    3.2891 O.3     1  UNL1       -0.3794
     42 C          25.4349   73.0875    2.0771 C.3     1  UNL1        0.1693
     43 H          26.0124   73.9844    3.7270 H       1  UNL1        0.2105
@<TRIPOS>UNITY_ATOM_ATTR
2 1
charge -1
26 1
charge -1
@<TRIPOS>BOND
     1    25    28    1
     2    25    24    1
     3    25    26    1
     4    25    27    2
     5     1     4    1
     6     1    24    1
     7     1     2    1
     8     1     3    2
     9     6    11    1
    10     6    12    1
    11    29    36    1
    12    29    37    1
    13     7     9    1
    14     7    13    1
    15     8    10    1
    16     8    14    1
    17    28    37    1
    18     4     5    1
    19    30    33    1
    20    30    38    1
    21    31    34    1
    22    31    39    1
    23    32    35    1
    24    32    40    1
    25    41    42    1
    26    41    43    1
    27    15    19    2
    28    16    22    2
    29    17    12    1
    30    17    19   ar
    31    17    20   ar
    32    18    19   ar
    33    18    22   ar
    34    18    23    1
    35     9    10    1
    36     9    11    1
    37    10    12    1
    38    11     5    1
    39    33    34    1
    40    33    35    1
    41    34    36    1
    42    35    37    1
    43    36    42    1
    44    20    21   ar
    45    21    22   ar
