@<TRIPOS>MOLECULE
UDP-glaA
 43 45 0 0 0
SMALL
GASTEIGER

@<TRIPOS>ATOM
      1 P          22.8633   72.0694   -3.4965 P.3     1  UNL1        0.2189
      2 O          23.6470   72.9043   -4.6393 O.3     1  UNL1       -0.4371
      3 O          23.6485   70.9484   -2.8810 O.2     1  UNL1       -0.5170
      4 O          21.4733   71.6466   -4.2070 O.3     1  UNL1       -0.3112
      5 C          20.6637   70.6655   -3.5815 C.3     1  UNL1        0.1811
      6 O          18.8708   71.8428   -4.6648 O.3     1  UNL1       -0.3308
      7 O          17.0973   70.7433   -2.5114 O.3     1  UNL1       -0.3794
      8 O          16.5648   69.0975   -4.6193 O.3     1  UNL1       -0.3779
      9 C          18.2121   70.1338   -3.1621 C.3     1  UNL1        0.1713
     10 C          17.8348   69.7140   -4.5671 C.3     1  UNL1        0.1895
     11 C          19.2533   71.2147   -3.4213 C.3     1  UNL1        0.1764
     12 C          17.8729   71.0369   -5.3130 C.3     1  UNL1        0.2383
     13 H          17.3966   71.0302   -1.6318 H       1  UNL1        0.2105
     14 H          16.5915   68.3223   -4.0324 H       1  UNL1        0.2106
     15 O          16.0280   70.4833   -7.3782 O.2     1  UNL1       -0.2464
     16 O          19.3440   70.4430  -10.5785 O.2     1  UNL1       -0.2670
     17 N          18.2264   70.8774   -6.6946 N.ar    1  UNL1       -0.2551
     18 N          17.6805   70.4630   -8.9704 N.ar    1  UNL1       -0.2743
     19 C          17.2237   70.6000   -7.6530 C.ar    1  UNL1        0.3323
     20 C          19.5547   70.9956   -7.0883 C.ar    1  UNL1        0.0869
     21 C          19.9742   70.8627   -8.3485 C.ar    1  UNL1        0.0795
     22 C          18.9907   70.5715   -9.4103 C.ar    1  UNL1        0.2626
     23 H          16.9771   70.2628   -9.6763 H       1  UNL1        0.1734
     24 O          22.4045   73.2203   -2.4573 O.3     1  UNL1       -0.2703
     25 P          23.2226   74.4593   -1.8184 P.3     1  UNL1        0.2208
     26 O          22.3960   75.7524   -2.3290 O.3     1  UNL1       -0.4371
     27 O          24.6830   74.4791   -2.1685 O.2     1  UNL1       -0.5170
     28 O          22.9174   74.3783   -0.2359 O.3     1  UNL1       -0.2858
     29 O          21.5739   72.4747    0.1773 O.3     1  UNL1       -0.3226
     30 O          21.9333   74.1280    3.9743 O.3     1  UNL1       -0.3794
     31 O          21.5213   75.8369    1.6471 O.3     1  UNL1       -0.3775
     32 O          20.9351   71.7914    2.8909 O.3     1  UNL1       -0.3792
     33 C          22.3056   73.7656    2.6475 C.3     1  UNL1        0.1718
     34 C          21.3658   74.4219    1.6305 C.3     1  UNL1        0.1968
     35 C          22.2404   72.2417    2.5137 C.3     1  UNL1        0.1723
     36 C          21.6496   73.9036    0.2152 C.3     1  UNL1        0.2706
     37 C          22.4975   71.8425    1.0622 C.3     1  UNL1        0.1830
     38 H          22.5520   73.6892    4.5828 H       1  UNL1        0.2105
     39 H          20.9153   76.2065    0.9830 H       1  UNL1        0.2106
     40 H          20.3115   72.0233    2.1821 H       1  UNL1        0.2106
     41 O          23.3566   69.6837    1.3862 O.co2   1  UNL1       -0.5466
     42 O          21.3609   69.8542    0.2977 O.co2   1  UNL1       -0.5466
     43 C          22.3157   70.3719    0.8587 C.2     1  UNL1        0.0799
@<TRIPOS>UNITY_ATOM_ATTR
41 1
charge -1
@<TRIPOS>BOND
     1     1     4    1
     2     1    24    1
     3     1     2    1
     4     1     3    2
     5    25    28    1
     6    25    24    1
     7    25    26    1
     8    25    27    2
     9     6    11    1
    10     6    12    1
    11    29    36    1
    12    29    37    1
    13     7     9    1
    14     7    13    1
    15     8    10    1
    16     8    14    1
    17     4     5    1
    18    28    36    1
    19    30    33    1
    20    30    38    1
    21    31    34    1
    22    31    39    1
    23    32    35    1
    24    32    40    1
    25    41    43   ar
    26    15    19    2
    27    42    43   ar
    28    16    22    2
    29    17    12    1
    30    17    19   ar
    31    17    20   ar
    32    18    19   ar
    33    18    22   ar
    34    18    23    1
    35     9    10    1
    36     9    11    1
    37    10    12    1
    38    11     5    1
    39    33    34    1
    40    33    35    1
    41    34    36    1
    42    35    37    1
    43    37    43    1
    44    20    21   ar
    45    21    22   ar
@<TRIPOS>MOLECULE
UDP-glaA
 43 45 0 0 0
SMALL
GASTEIGER

@<TRIPOS>ATOM
      1 P          22.4851   71.4691   -2.5066 P.3     1  UNL1        0.2189
      2 O          21.3840   72.6543   -2.5018 O.3     1  UNL1       -0.4371
      3 O          23.5581   71.6061   -3.5469 O.2     1  UNL1       -0.5170
      4 O          21.6016   70.1166   -2.5819 O.3     1  UNL1       -0.3112
      5 C          20.7497   69.9252   -3.6985 C.3     1  UNL1        0.1811
      6 O          19.1450   71.4444   -4.6426 O.3     1  UNL1       -0.3308
      7 O          17.2552   70.4664   -2.5298 O.3     1  UNL1       -0.3794
      8 O          16.4419   69.0906   -4.7393 O.3     1  UNL1       -0.3779
      9 C          18.2519   69.7453   -3.2540 C.3     1  UNL1        0.1713
     10 C          17.7928   69.4988   -4.6756 C.3     1  UNL1        0.1895
     11 C          19.4441   70.6704   -3.4600 C.3     1  UNL1        0.1764
     12 C          18.0244   70.8542   -5.3217 C.3     1  UNL1        0.2383
     13 H          17.6086   70.6347   -1.6397 H       1  UNL1        0.2105
     14 H          16.3568   68.2773   -4.2126 H       1  UNL1        0.2106
     15 O          16.0962   70.4661   -7.3482 O.2     1  UNL1       -0.2464
     16 O          19.3053   70.4671  -10.6558 O.2     1  UNL1       -0.2670
     17 N          18.3279   70.7500   -6.7204 N.ar    1  UNL1       -0.2551
     18 N          17.6955   70.4663   -8.9939 N.ar    1  UNL1       -0.2743
     19 C          17.2859   70.5546   -7.6569 C.ar    1  UNL1        0.3323
     20 C          19.6465   70.8412   -7.1523 C.ar    1  UNL1        0.0869
     21 C          20.0208   70.7555   -8.4307 C.ar    1  UNL1        0.0795
     22 C          18.9941   70.5507   -9.4717 C.ar    1  UNL1        0.2626
     23 H          16.9633   70.3252   -9.6846 H       1  UNL1        0.1734
     24 O          23.0223   71.4674   -0.9812 O.3     1  UNL1       -0.2703
     25 P          22.4529   70.7352    0.3425 P.3     1  UNL1        0.2208
     26 O          23.5313   69.5596    0.6092 O.3     1  UNL1       -0.4371
     27 O          21.0338   70.2588    0.2208 O.2     1  UNL1       -0.5170
     28 O          22.7005   71.7946    1.5343 O.3     1  UNL1       -0.2858
     29 O          21.9722   72.5244    3.6642 O.3     1  UNL1       -0.3226
     30 O          21.3006   75.8872    1.3147 O.3     1  UNL1       -0.3794
     31 O          20.6868   73.2232    0.2986 O.3     1  UNL1       -0.3775
     32 O          21.2278   75.2752    4.0073 O.3     1  UNL1       -0.3792
     33 C          21.9373   74.6972    1.7718 C.3     1  UNL1        0.1718
     34 C          20.9817   73.5042    1.6628 C.3     1  UNL1        0.1968
     35 C          22.3664   74.8933    3.2284 C.3     1  UNL1        0.1723
     36 C          21.5951   72.2561    2.3097 C.3     1  UNL1        0.2706
     37 C          22.9222   73.5825    3.7806 C.3     1  UNL1        0.1830
     38 H          21.9397   76.6146    1.4039 H       1  UNL1        0.2105
     39 H          20.0885   72.4574    0.2795 H       1  UNL1        0.2106
     40 H          20.6613   74.4946    4.1296 H       1  UNL1        0.2106
     41 O          24.4741   74.2048    5.4263 O.co2   1  UNL1       -0.5466
     42 O          22.4787   73.3681    6.1443 O.co2   1  UNL1       -0.5466
     43 C          23.2341   73.6918    5.2393 C.2     1  UNL1        0.0799
@<TRIPOS>UNITY_ATOM_ATTR
41 1
charge -1
@<TRIPOS>BOND
     1     1     4    1
     2     1    24    1
     3     1     2    1
     4     1     3    2
     5    25    28    1
     6    25    24    1
     7    25    26    1
     8    25    27    2
     9     6    11    1
    10     6    12    1
    11    29    36    1
    12    29    37    1
    13     7     9    1
    14     7    13    1
    15     8    10    1
    16     8    14    1
    17     4     5    1
    18    28    36    1
    19    30    33    1
    20    30    38    1
    21    31    34    1
    22    31    39    1
    23    32    35    1
    24    32    40    1
    25    41    43   ar
    26    15    19    2
    27    42    43   ar
    28    16    22    2
    29    17    12    1
    30    17    19   ar
    31    17    20   ar
    32    18    19   ar
    33    18    22   ar
    34    18    23    1
    35     9    10    1
    36     9    11    1
    37    10    12    1
    38    11     5    1
    39    33    34    1
    40    33    35    1
    41    34    36    1
    42    35    37    1
    43    37    43    1
    44    20    21   ar
    45    21    22   ar
@<TRIPOS>MOLECULE
UDP-glaA
 43 45 0 0 0
SMALL
GASTEIGER

@<TRIPOS>ATOM
      1 P          22.5009   71.5119   -2.2334 P.3     1  UNL1        0.2189
      2 O          21.4837   72.7691   -2.2778 O.3     1  UNL1       -0.4371
      3 O          23.6526   71.5954   -3.1919 O.2     1  UNL1       -0.5170
      4 O          21.5370   70.2244   -2.4033 O.3     1  UNL1       -0.3112
      5 C          20.7612   70.1101   -3.5841 C.3     1  UNL1        0.1811
      6 O          19.0970   71.5372   -4.5682 O.3     1  UNL1       -0.3308
      7 O          17.2402   70.5237   -2.4430 O.3     1  UNL1       -0.3794
      8 O          16.4994   69.0664   -4.6255 O.3     1  UNL1       -0.3779
      9 C          18.2712   69.8312   -3.1468 C.3     1  UNL1        0.1713
     10 C          17.8309   69.5343   -4.5647 C.3     1  UNL1        0.1895
     11 C          19.4232   70.8027   -3.3676 C.3     1  UNL1        0.1764
     12 C          18.0069   70.8841   -5.2392 C.3     1  UNL1        0.2383
     13 H          17.5812   70.7265   -1.5552 H       1  UNL1        0.2105
     14 H          16.4469   68.2616   -4.0815 H       1  UNL1        0.2106
     15 O          16.0955   70.4741   -7.2773 O.2     1  UNL1       -0.2464
     16 O          19.3327   70.4324  -10.5572 O.2     1  UNL1       -0.2670
     17 N          18.3221   70.7631   -6.6340 N.ar    1  UNL1       -0.2551
     18 N          17.7088   70.4531   -8.9092 N.ar    1  UNL1       -0.2743
     19 C          17.2879   70.5577   -7.5769 C.ar    1  UNL1        0.3323
     20 C          19.6444   70.8478   -7.0556 C.ar    1  UNL1        0.0869
     21 C          20.0295   70.7465   -8.3297 C.ar    1  UNL1        0.0795
     22 C          19.0115   70.5304   -9.3769 C.ar    1  UNL1        0.2626
     23 H          16.9823   70.3046   -9.6044 H       1  UNL1        0.1734
     24 O          22.9256   71.4443   -0.6745 O.3     1  UNL1       -0.2703
     25 P          22.0575   71.1105    0.6474 P.3     1  UNL1        0.2208
     26 O          21.9943   69.4943    0.6514 O.3     1  UNL1       -0.4371
     27 O          20.7155   71.7835    0.6892 O.2     1  UNL1       -0.5170
     28 O          23.0294   71.4842    1.8801 O.3     1  UNL1       -0.2858
     29 O          23.6949   73.7458    2.0852 O.3     1  UNL1       -0.3226
     30 O          19.6888   74.1083    1.0369 O.3     1  UNL1       -0.3794
     31 O          20.5448   72.0655    2.9343 O.3     1  UNL1       -0.3775
     32 O          21.8451   75.8086    1.3356 O.3     1  UNL1       -0.3792
     33 C          21.0033   73.5597    1.0732 C.3     1  UNL1        0.1718
     34 C          21.3691   73.1426    2.5017 C.3     1  UNL1        0.1968
     35 C          21.9931   74.6115    0.5649 C.3     1  UNL1        0.1723
     36 C          22.8389   72.7118    2.5823 C.3     1  UNL1        0.2706
     37 C          23.4207   74.0946    0.7292 C.3     1  UNL1        0.1830
     38 H          19.5012   74.3600    0.1165 H       1  UNL1        0.2105
     39 H          20.8186   71.8307    3.8369 H       1  UNL1        0.2106
     40 H          22.2338   75.6602    2.2143 H       1  UNL1        0.2106
     41 O          24.5628   76.0418    1.3679 O.co2   1  UNL1       -0.5466
     42 O          25.0469   75.1809   -0.6868 O.co2   1  UNL1       -0.5466
     43 C          24.4265   75.1402    0.3658 C.2     1  UNL1        0.0799
@<TRIPOS>UNITY_ATOM_ATTR
41 1
charge -1
@<TRIPOS>BOND
     1     1     4    1
     2     1    24    1
     3     1     2    1
     4     1     3    2
     5    25    28    1
     6    25    24    1
     7    25    26    1
     8    25    27    2
     9     6    11    1
    10     6    12    1
    11    29    36    1
    12    29    37    1
    13     7     9    1
    14     7    13    1
    15     8    10    1
    16     8    14    1
    17     4     5    1
    18    28    36    1
    19    30    33    1
    20    30    38    1
    21    31    34    1
    22    31    39    1
    23    32    35    1
    24    32    40    1
    25    41    43   ar
    26    15    19    2
    27    42    43   ar
    28    16    22    2
    29    17    12    1
    30    17    19   ar
    31    17    20   ar
    32    18    19   ar
    33    18    22   ar
    34    18    23    1
    35     9    10    1
    36     9    11    1
    37    10    12    1
    38    11     5    1
    39    33    34    1
    40    33    35    1
    41    34    36    1
    42    35    37    1
    43    37    43    1
    44    20    21   ar
    45    21    22   ar
@<TRIPOS>MOLECULE
UDP-glaA
 43 45 0 0 0
SMALL
GASTEIGER

@<TRIPOS>ATOM
      1 P          22.9977   72.0807   -3.4203 P.3     1  UNL1        0.2189
      2 O          23.7109   72.9462   -4.5863 O.3     1  UNL1       -0.4371
      3 O          23.5454   70.6959   -3.2350 O.2     1  UNL1       -0.5170
      4 O          21.4225   72.1720   -3.7753 O.3     1  UNL1       -0.3112
      5 C          20.6134   71.0271   -3.5658 C.3     1  UNL1        0.1811
      6 O          18.7384   72.0115   -4.7014 O.3     1  UNL1       -0.3308
      7 O          17.0442   70.8490   -2.5175 O.3     1  UNL1       -0.3794
      8 O          16.6664   69.0885   -4.5654 O.3     1  UNL1       -0.3779
      9 C          18.2106   70.3102   -3.1394 C.3     1  UNL1        0.1713
     10 C          17.8807   69.8094   -4.5297 C.3     1  UNL1        0.1895
     11 C          19.1613   71.4633   -3.4334 C.3     1  UNL1        0.1764
     12 C          17.8157   71.1027   -5.3241 C.3     1  UNL1        0.2383
     13 H          17.3116   71.1918   -1.6477 H       1  UNL1        0.2105
     14 H          16.7520   68.3402   -3.9498 H       1  UNL1        0.2106
     15 O          16.0100   70.4868   -7.4064 O.2     1  UNL1       -0.2464
     16 O          19.3750   70.4309  -10.5548 O.2     1  UNL1       -0.2670
     17 N          18.1924   70.9223   -6.6970 N.ar    1  UNL1       -0.2551
     18 N          17.6869   70.4588   -8.9727 N.ar    1  UNL1       -0.2743
     19 C          17.2081   70.6141   -7.6651 C.ar    1  UNL1        0.3323
     20 C          19.5249   71.0506   -7.0728 C.ar    1  UNL1        0.0869
     21 C          19.9655   70.9000   -8.3238 C.ar    1  UNL1        0.0795
     22 C          19.0022   70.5764   -9.3947 C.ar    1  UNL1        0.2626
     23 H          16.9971   70.2364   -9.6853 H       1  UNL1        0.1734
     24 O          23.1338   73.0379   -2.1239 O.3     1  UNL1       -0.2703
     25 P          22.3919   72.9907   -0.6886 P.3     1  UNL1        0.2208
     26 O          22.6745   71.4836   -0.1741 O.3     1  UNL1       -0.4371
     27 O          20.9389   73.3683   -0.7336 O.2     1  UNL1       -0.5170
     28 O          23.2941   73.9251    0.2689 O.3     1  UNL1       -0.2858
     29 O          21.9712   74.1131    2.2219 O.3     1  UNL1       -0.3226
     30 O          25.5091   75.9595    3.3853 O.3     1  UNL1       -0.3794
     31 O          24.4090   76.4099    0.7220 O.3     1  UNL1       -0.3775
     32 O          23.1700   75.1533    4.6135 O.3     1  UNL1       -0.3792
     33 C          24.6560   75.0376    2.7126 C.3     1  UNL1        0.1718
     34 C          23.6937   75.7819    1.7808 C.3     1  UNL1        0.1968
     35 C          23.8655   74.2427    3.7555 C.3     1  UNL1        0.1723
     36 C          22.6607   74.8179    1.1842 C.3     1  UNL1        0.2706
     37 C          22.8436   73.3504    3.0543 C.3     1  UNL1        0.1830
     38 H          26.0977   75.4458    3.9643 H       1  UNL1        0.2105
     39 H          23.7595   76.8589    0.1550 H       1  UNL1        0.2106
     40 H          22.4199   75.5288    4.1221 H       1  UNL1        0.2106
     41 O          20.8419   72.1866    3.4319 O.co2   1  UNL1       -0.5466
     42 O          22.2079   72.5126    5.2277 O.co2   1  UNL1       -0.5466
     43 C          21.9604   72.6518    4.0387 C.2     1  UNL1        0.0799
@<TRIPOS>UNITY_ATOM_ATTR
41 1
charge -1
@<TRIPOS>BOND
     1     1     4    1
     2     1    24    1
     3     1     2    1
     4     1     3    2
     5    25    28    1
     6    25    24    1
     7    25    26    1
     8    25    27    2
     9     6    11    1
    10     6    12    1
    11    29    36    1
    12    29    37    1
    13     7     9    1
    14     7    13    1
    15     8    10    1
    16     8    14    1
    17     4     5    1
    18    28    36    1
    19    30    33    1
    20    30    38    1
    21    31    34    1
    22    31    39    1
    23    32    35    1
    24    32    40    1
    25    41    43   ar
    26    15    19    2
    27    42    43   ar
    28    16    22    2
    29    17    12    1
    30    17    19   ar
    31    17    20   ar
    32    18    19   ar
    33    18    22   ar
    34    18    23    1
    35     9    10    1
    36     9    11    1
    37    10    12    1
    38    11     5    1
    39    33    34    1
    40    33    35    1
    41    34    36    1
    42    35    37    1
    43    37    43    1
    44    20    21   ar
    45    21    22   ar
@<TRIPOS>MOLECULE
UDP-glaA
 43 45 0 0 0
SMALL
GASTEIGER

@<TRIPOS>ATOM
      1 P          22.0066   73.8999   -6.0808 P.3     1  UNL1        0.2189
      2 O          22.3183   75.4478   -6.4333 O.3     1  UNL1       -0.4371
      3 O          22.8181   72.8996   -6.8508 O.2     1  UNL1       -0.5170
      4 O          20.4022   73.7784   -6.2440 O.3     1  UNL1       -0.3112
      5 C          19.7768   74.4611   -7.3174 C.3     1  UNL1        0.1811
      6 O          19.6433   72.1331   -7.8977 O.3     1  UNL1       -0.3308
      7 O          17.9971   73.0055  -10.2473 O.3     1  UNL1       -0.3794
      8 O          16.1076   72.1178   -8.4930 O.3     1  UNL1       -0.3779
      9 C          18.0340   73.5372   -8.9230 C.3     1  UNL1        0.1713
     10 C          17.3225   72.6068   -7.9635 C.3     1  UNL1        0.1895
     11 C          19.4727   73.4660   -8.4282 C.3     1  UNL1        0.1764
     12 C          18.3550   71.5106   -7.7625 C.3     1  UNL1        0.2383
     13 H          18.4972   73.6138  -10.8178 H       1  UNL1        0.2105
     14 H          15.5461   72.8860   -8.6950 H       1  UNL1        0.2106
     15 O          16.1940   69.9107   -6.8990 O.2     1  UNL1       -0.2464
     16 O          18.1116   69.2311   -2.7638 O.2     1  UNL1       -0.2670
     17 N          18.2638   70.9026   -6.4659 N.ar    1  UNL1       -0.2551
     18 N          17.1501   69.5738   -4.8402 N.ar    1  UNL1       -0.2743
     19 C          17.1354   70.1181   -6.1312 C.ar    1  UNL1        0.3323
     20 C          19.2854   71.0863   -5.5407 C.ar    1  UNL1        0.0869
     21 C          19.2849   70.5602   -4.3139 C.ar    1  UNL1        0.0795
     22 C          18.1428   69.7287   -3.8851 C.ar    1  UNL1        0.2626
     23 H          16.3486   69.0066   -4.5776 H       1  UNL1        0.1734
     24 O          22.2138   73.8445   -4.4779 O.3     1  UNL1       -0.2703
     25 P          23.3312   73.0996   -3.5784 P.3     1  UNL1        0.2208
     26 O          24.7101   73.8105   -4.0359 O.3     1  UNL1       -0.4371
     27 O          23.3313   71.6035   -3.7106 O.2     1  UNL1       -0.5170
     28 O          23.0731   73.6363   -2.0786 O.3     1  UNL1       -0.2858
     29 O          21.4847   72.0874   -1.2556 O.3     1  UNL1       -0.3226
     30 O          22.4214   74.2701    2.1558 O.3     1  UNL1       -0.3794
     31 O          22.0900   75.6078   -0.4145 O.3     1  UNL1       -0.3775
     32 O          20.9775   71.9898    1.5678 O.3     1  UNL1       -0.3792
     33 C          22.6180   73.6313    0.8974 C.3     1  UNL1        0.1718
     34 C          21.7114   74.2579   -0.1674 C.3     1  UNL1        0.1968
     35 C          22.3010   72.1405    1.0439 C.3     1  UNL1        0.1723
     36 C          21.7888   73.4680   -1.4799 C.3     1  UNL1        0.2706
     37 C          22.3679   71.4648   -0.3240 C.3     1  UNL1        0.1830
     38 H          23.0119   73.8408    2.7981 H       1  UNL1        0.2105
     39 H          21.4963   75.9584   -1.0997 H       1  UNL1        0.2106
     40 H          20.3408   72.2023    0.8645 H       1  UNL1        0.2106
     41 O          21.3447   69.6514   -1.4051 O.co2   1  UNL1       -0.5466
     42 O          22.1010   69.3026    0.7171 O.co2   1  UNL1       -0.5466
     43 C          21.9388   70.0339   -0.2490 C.2     1  UNL1        0.0799
@<TRIPOS>UNITY_ATOM_ATTR
41 1
charge -1
@<TRIPOS>BOND
     1     1     4    1
     2     1    24    1
     3     1     2    1
     4     1     3    2
     5    25    28    1
     6    25    24    1
     7    25    26    1
     8    25    27    2
     9     6    11    1
    10     6    12    1
    11    29    36    1
    12    29    37    1
    13     7     9    1
    14     7    13    1
    15     8    10    1
    16     8    14    1
    17     4     5    1
    18    28    36    1
    19    30    33    1
    20    30    38    1
    21    31    34    1
    22    31    39    1
    23    32    35    1
    24    32    40    1
    25    41    43   ar
    26    15    19    2
    27    42    43   ar
    28    16    22    2
    29    17    12    1
    30    17    19   ar
    31    17    20   ar
    32    18    19   ar
    33    18    22   ar
    34    18    23    1
    35     9    10    1
    36     9    11    1
    37    10    12    1
    38    11     5    1
    39    33    34    1
    40    33    35    1
    41    34    36    1
    42    35    37    1
    43    37    43    1
    44    20    21   ar
    45    21    22   ar
@<TRIPOS>MOLECULE
UDP-glaA
 43 45 0 0 0
SMALL
GASTEIGER

@<TRIPOS>ATOM
      1 P          22.8398   71.7998   -2.3443 P.3     1  UNL1        0.2189
      2 O          23.5777   73.2352   -2.4562 O.3     1  UNL1       -0.4371
      3 O          23.4074   70.7258   -3.2255 O.2     1  UNL1       -0.5170
      4 O          21.2770   72.1459   -2.5758 O.3     1  UNL1       -0.3112
      5 C          20.5548   71.4033   -3.5433 C.3     1  UNL1        0.1811
      6 O          18.6169   72.2148   -4.7096 O.3     1  UNL1       -0.3308
      7 O          17.0053   71.0091   -2.4869 O.3     1  UNL1       -0.3794
      8 O          16.7557   69.1592   -4.4747 O.3     1  UNL1       -0.3779
      9 C          18.2078   70.5335   -3.0915 C.3     1  UNL1        0.1713
     10 C          17.9162   69.9646   -4.4640 C.3     1  UNL1        0.1895
     11 C          19.0753   71.7403   -3.4244 C.3     1  UNL1        0.1764
     12 C          17.7614   71.2230   -5.3010 C.3     1  UNL1        0.2383
     13 H          17.2465   71.3986   -1.6292 H       1  UNL1        0.2105
     14 H          16.8929   68.4397   -3.8347 H       1  UNL1        0.2106
     15 O          16.0185   70.3621   -7.3496 O.2     1  UNL1       -0.2464
     16 O          19.3719   70.4917  -10.5082 O.2     1  UNL1       -0.2670
     17 N          18.1521   71.0240   -6.6675 N.ar    1  UNL1       -0.2551
     18 N          17.6896   70.4267   -8.9210 N.ar    1  UNL1       -0.2743
     19 C          17.1996   70.5888   -7.6184 C.ar    1  UNL1        0.3323
     20 C          19.4669   71.2594   -7.0538 C.ar    1  UNL1        0.0869
     21 C          19.9184   71.1007   -8.2999 C.ar    1  UNL1        0.0795
     22 C          18.9881   70.6479   -9.3530 C.ar    1  UNL1        0.2626
     23 H          17.0226   70.1139   -9.6212 H       1  UNL1        0.1734
     24 O          22.9099   71.4788   -0.7609 O.3     1  UNL1       -0.2703
     25 P          22.0242   70.4894    0.1606 P.3     1  UNL1        0.2208
     26 O          23.1376   69.6485    0.9788 O.3     1  UNL1       -0.4371
     27 O          21.0478   69.6436   -0.6056 O.2     1  UNL1       -0.5170
     28 O          21.3485   71.4537    1.2639 O.3     1  UNL1       -0.2858
     29 O          21.7592   73.7733    1.0396 O.3     1  UNL1       -0.3226
     30 O          20.1608   73.5383    4.8696 O.3     1  UNL1       -0.3794
     31 O          22.0590   71.5330    3.9307 O.3     1  UNL1       -0.3775
     32 O          20.8522   75.5479    3.1052 O.3     1  UNL1       -0.3792
     33 C          20.3600   73.2156    3.4961 C.3     1  UNL1        0.1718
     34 C          21.8041   72.7615    3.2578 C.3     1  UNL1        0.1968
     35 C          20.0529   74.4523    2.6473 C.3     1  UNL1        0.1723
     36 C          22.0753   72.5772    1.7595 C.3     1  UNL1        0.2706
     37 C          20.3966   74.1703    1.1863 C.3     1  UNL1        0.1830
     38 H          19.2365   73.8221    4.9732 H       1  UNL1        0.2105
     39 H          22.9791   71.2814    3.7435 H       1  UNL1        0.2106
     40 H          21.7695   75.4023    2.8180 H       1  UNL1        0.2106
     41 O          21.2128   75.4604   -0.5951 O.co2   1  UNL1       -0.5466
     42 O          19.3438   76.2204    0.4663 O.co2   1  UNL1       -0.5466
     43 C          20.2348   75.3929    0.3402 C.2     1  UNL1        0.0799
@<TRIPOS>UNITY_ATOM_ATTR
41 1
charge -1
@<TRIPOS>BOND
     1     1     4    1
     2     1    24    1
     3     1     2    1
     4     1     3    2
     5    25    28    1
     6    25    24    1
     7    25    26    1
     8    25    27    2
     9     6    11    1
    10     6    12    1
    11    29    36    1
    12    29    37    1
    13     7     9    1
    14     7    13    1
    15     8    10    1
    16     8    14    1
    17     4     5    1
    18    28    36    1
    19    30    33    1
    20    30    38    1
    21    31    34    1
    22    31    39    1
    23    32    35    1
    24    32    40    1
    25    41    43   ar
    26    15    19    2
    27    42    43   ar
    28    16    22    2
    29    17    12    1
    30    17    19   ar
    31    17    20   ar
    32    18    19   ar
    33    18    22   ar
    34    18    23    1
    35     9    10    1
    36     9    11    1
    37    10    12    1
    38    11     5    1
    39    33    34    1
    40    33    35    1
    41    34    36    1
    42    35    37    1
    43    37    43    1
    44    20    21   ar
    45    21    22   ar
@<TRIPOS>MOLECULE
UDP-glaA
 43 45 0 0 0
SMALL
GASTEIGER

@<TRIPOS>ATOM
      1 P          21.9282   71.2667   -1.5570 P.3     1  UNL1        0.2189
      2 O          23.3987   70.8022   -1.0680 O.3     1  UNL1       -0.4371
      3 O          21.0377   71.7955   -0.4709 O.2     1  UNL1       -0.5170
      4 O          21.3641   69.9856   -2.3670 O.3     1  UNL1       -0.3112
      5 C          20.7488   70.1976   -3.6262 C.3     1  UNL1        0.1811
      6 O          19.0497   71.5818   -4.6117 O.3     1  UNL1       -0.3308
      7 O          17.2159   70.5168   -2.4918 O.3     1  UNL1       -0.3794
      8 O          16.5181   69.0437   -4.6778 O.3     1  UNL1       -0.3779
      9 C          18.2661   69.8527   -3.1944 C.3     1  UNL1        0.1713
     10 C          17.8367   69.5463   -4.6137 C.3     1  UNL1        0.1895
     11 C          19.3927   70.8544   -3.4115 C.3     1  UNL1        0.1764
     12 C          17.9784   70.9013   -5.2859 C.3     1  UNL1        0.2383
     13 H          17.5497   70.7272   -1.6030 H       1  UNL1        0.2105
     14 H          16.4856   68.2371   -4.1351 H       1  UNL1        0.2106
     15 O          16.0737   70.5276   -7.3372 O.2     1  UNL1       -0.2464
     16 O          19.3267   70.4881  -10.6014 O.2     1  UNL1       -0.2670
     17 N          18.2996   70.7906   -6.6802 N.ar    1  UNL1       -0.2551
     18 N          17.6949   70.5076   -8.9612 N.ar    1  UNL1       -0.2743
     19 C          17.2683   70.6034   -7.6300 C.ar    1  UNL1        0.3323
     20 C          19.6247   70.8675   -7.0945 C.ar    1  UNL1        0.0869
     21 C          20.0152   70.7749   -8.3676 C.ar    1  UNL1        0.0795
     22 C          19.0005   70.5778   -9.4217 C.ar    1  UNL1        0.2626
     23 H          16.9706   70.3722   -9.6614 H       1  UNL1        0.1734
     24 O          22.2557   72.3255   -2.7346 O.3     1  UNL1       -0.2703
     25 P          23.2386   73.6083   -2.7639 P.3     1  UNL1        0.2208
     26 O          24.3561   73.1946   -3.8576 O.3     1  UNL1       -0.4371
     27 O          23.7955   73.9884   -1.4218 O.2     1  UNL1       -0.5170
     28 O          22.3757   74.7685   -3.4804 O.3     1  UNL1       -0.2858
     29 O          23.0288   74.8634   -5.7529 O.3     1  UNL1       -0.3226
     30 O          20.1776   77.8808   -5.5392 O.3     1  UNL1       -0.3794
     31 O          22.1120   77.5152   -3.3874 O.3     1  UNL1       -0.3775
     32 O          21.6060   76.6092   -7.5324 O.3     1  UNL1       -0.3792
     33 C          20.8175   76.6411   -5.2493 C.3     1  UNL1        0.1718
     34 C          22.2109   76.8840   -4.6597 C.3     1  UNL1        0.1968
     35 C          20.9300   75.8278   -6.5417 C.3     1  UNL1        0.1723
     36 C          22.9732   75.5621   -4.5048 C.3     1  UNL1        0.2706
     37 C          21.7387   74.5589   -6.2808 C.3     1  UNL1        0.1830
     38 H          19.3023   77.6790   -5.9116 H       1  UNL1        0.2105
     39 H          23.0153   77.6395   -3.0506 H       1  UNL1        0.2106
     40 H          22.5505   76.6464   -7.3049 H       1  UNL1        0.2106
     41 O          22.7876   72.7310   -7.3116 O.co2   1  UNL1       -0.5466
     42 O          21.5256   74.0880   -8.6393 O.co2   1  UNL1       -0.5466
     43 C          21.9847   73.7972   -7.5443 C.2     1  UNL1        0.0799
@<TRIPOS>UNITY_ATOM_ATTR
41 1
charge -1
@<TRIPOS>BOND
     1     1     4    1
     2     1    24    1
     3     1     2    1
     4     1     3    2
     5    25    28    1
     6    25    24    1
     7    25    26    1
     8    25    27    2
     9     6    11    1
    10     6    12    1
    11    29    36    1
    12    29    37    1
    13     7     9    1
    14     7    13    1
    15     8    10    1
    16     8    14    1
    17     4     5    1
    18    28    36    1
    19    30    33    1
    20    30    38    1
    21    31    34    1
    22    31    39    1
    23    32    35    1
    24    32    40    1
    25    41    43   ar
    26    15    19    2
    27    42    43   ar
    28    16    22    2
    29    17    12    1
    30    17    19   ar
    31    17    20   ar
    32    18    19   ar
    33    18    22   ar
    34    18    23    1
    35     9    10    1
    36     9    11    1
    37    10    12    1
    38    11     5    1
    39    33    34    1
    40    33    35    1
    41    34    36    1
    42    35    37    1
    43    37    43    1
    44    20    21   ar
    45    21    22   ar
@<TRIPOS>MOLECULE
UDP-glaA
 43 45 0 0 0
SMALL
GASTEIGER

@<TRIPOS>ATOM
      1 P          21.8286   70.9792   -1.2367 P.3     1  UNL1        0.2189
      2 O          23.3210   70.4584   -1.5819 O.3     1  UNL1       -0.4371
      3 O          20.8772   69.9139   -0.7762 O.2     1  UNL1       -0.5170
      4 O          21.3841   71.7940   -2.5611 O.3     1  UNL1       -0.3112
      5 C          20.6218   71.1193   -3.5475 C.3     1  UNL1        0.1811
      6 O          18.7361   72.0747   -4.6901 O.3     1  UNL1       -0.3308
      7 O          17.0532   70.8983   -2.5049 O.3     1  UNL1       -0.3794
      8 O          16.7023   69.1253   -4.5467 O.3     1  UNL1       -0.3779
      9 C          18.2278   70.3726   -3.1227 C.3     1  UNL1        0.1713
     10 C          17.9070   69.8622   -4.5116 C.3     1  UNL1        0.1895
     11 C          19.1637   71.5369   -3.4193 C.3     1  UNL1        0.1764
     12 C          17.8265   71.1515   -5.3111 C.3     1  UNL1        0.2383
     13 H          17.3145   71.2478   -1.6359 H       1  UNL1        0.2105
     14 H          16.7966   68.3805   -3.9282 H       1  UNL1        0.2106
     15 O          16.0462   70.4281   -7.3805 O.2     1  UNL1       -0.2464
     16 O          19.4035   70.4846  -10.5370 O.2     1  UNL1       -0.2670
     17 N          18.2080   70.9709   -6.6826 N.ar    1  UNL1       -0.2551
     18 N          17.7192   70.4562   -8.9508 N.ar    1  UNL1       -0.2743
     19 C          17.2367   70.6063   -7.6440 C.ar    1  UNL1        0.3323
     20 C          19.5326   71.1547   -7.0635 C.ar    1  UNL1        0.0869
     21 C          19.9769   71.0083   -8.3137 C.ar    1  UNL1        0.0795
     22 C          19.0269   70.6278   -9.3779 C.ar    1  UNL1        0.2626
     23 H          17.0387   70.1937   -9.6587 H       1  UNL1        0.1734
     24 O          22.0955   72.1553   -0.1593 O.3     1  UNL1       -0.2703
     25 P          21.5179   73.6622   -0.0698 P.3     1  UNL1        0.2208
     26 O          19.9183   73.4541   -0.1886 O.3     1  UNL1       -0.4371
     27 O          22.0974   74.6054   -1.0849 O.2     1  UNL1       -0.5170
     28 O          21.7597   74.1025    1.4637 O.3     1  UNL1       -0.2858
     29 O          23.7606   74.3328    2.7058 O.3     1  UNL1       -0.3226
     30 O          21.0780   73.0424    5.6071 O.3     1  UNL1       -0.3794
     31 O          21.0421   71.8781    2.9333 O.3     1  UNL1       -0.3775
     32 O          23.6705   73.9941    5.5546 O.3     1  UNL1       -0.3792
     33 C          21.5447   73.7163    4.4416 C.3     1  UNL1        0.1718
     34 C          22.0893   72.7086    3.4237 C.3     1  UNL1        0.1968
     35 C          22.6464   74.6998    4.8461 C.3     1  UNL1        0.1723
     36 C          22.7492   73.4318    2.2430 C.3     1  UNL1        0.2706
     37 C          23.2577   75.3282    3.5957 C.3     1  UNL1        0.1830
     38 H          20.7456   73.7174    6.2230 H       1  UNL1        0.2105
     39 H          21.4318   71.2652    2.2874 H       1  UNL1        0.2106
     40 H          24.1790   73.4651    4.9168 H       1  UNL1        0.2106
     41 O          24.2201   76.8361    5.1135 O.co2   1  UNL1       -0.5466
     42 O          25.4316   76.3211    3.2523 O.co2   1  UNL1       -0.5466
     43 C          24.4254   76.1986    3.9357 C.2     1  UNL1        0.0799
@<TRIPOS>UNITY_ATOM_ATTR
41 1
charge -1
@<TRIPOS>BOND
     1     1     4    1
     2     1    24    1
     3     1     2    1
     4     1     3    2
     5    25    28    1
     6    25    24    1
     7    25    26    1
     8    25    27    2
     9     6    11    1
    10     6    12    1
    11    29    36    1
    12    29    37    1
    13     7     9    1
    14     7    13    1
    15     8    10    1
    16     8    14    1
    17     4     5    1
    18    28    36    1
    19    30    33    1
    20    30    38    1
    21    31    34    1
    22    31    39    1
    23    32    35    1
    24    32    40    1
    25    41    43   ar
    26    15    19    2
    27    42    43   ar
    28    16    22    2
    29    17    12    1
    30    17    19   ar
    31    17    20   ar
    32    18    19   ar
    33    18    22   ar
    34    18    23    1
    35     9    10    1
    36     9    11    1
    37    10    12    1
    38    11     5    1
    39    33    34    1
    40    33    35    1
    41    34    36    1
    42    35    37    1
    43    37    43    1
    44    20    21   ar
    45    21    22   ar
@<TRIPOS>MOLECULE
UDP-glaA
 43 45 0 0 0
SMALL
GASTEIGER

@<TRIPOS>ATOM
      1 P          21.7372   71.5664   -1.6053 P.3     1  UNL1        0.2189
      2 O          23.1965   71.2076   -1.0060 O.3     1  UNL1       -0.4371
      3 O          20.7787   72.1681   -0.6198 O.2     1  UNL1       -0.5170
      4 O          21.2545   70.1908   -2.3053 O.3     1  UNL1       -0.3112
      5 C          20.6163   70.2614   -3.5690 C.3     1  UNL1        0.1811
      6 O          18.9624   71.6453   -4.6290 O.3     1  UNL1       -0.3308
      7 O          17.0596   70.6515   -2.5355 O.3     1  UNL1       -0.3794
      8 O          16.3991   69.1394   -4.7064 O.3     1  UNL1       -0.3779
      9 C          18.1187   69.9584   -3.1954 C.3     1  UNL1        0.1713
     10 C          17.7223   69.6262   -4.6185 C.3     1  UNL1        0.1895
     11 C          19.2640   70.9404   -3.4046 C.3     1  UNL1        0.1764
     12 C          17.8999   70.9639   -5.3163 C.3     1  UNL1        0.2383
     13 H          17.3729   70.8773   -1.6430 H       1  UNL1        0.2105
     14 H          16.3416   68.3455   -4.1472 H       1  UNL1        0.2106
     15 O          16.0500   70.5053   -7.4002 O.2     1  UNL1       -0.2464
     16 O          19.3806   70.4185  -10.5843 O.2     1  UNL1       -0.2670
     17 N          18.2558   70.8181   -6.6988 N.ar    1  UNL1       -0.2551
     18 N          17.7098   70.4619   -8.9844 N.ar    1  UNL1       -0.2743
     19 C          17.2502   70.5895   -7.6669 C.ar    1  UNL1        0.3323
     20 C          19.5893   70.9017   -7.0838 C.ar    1  UNL1        0.0869
     21 C          20.0114   70.7784   -8.3441 C.ar    1  UNL1        0.0795
     22 C          19.0251   70.5372   -9.4158 C.ar    1  UNL1        0.2626
     23 H          17.0044   70.2965   -9.6972 H       1  UNL1        0.1734
     24 O          22.0872   72.5134   -2.8686 O.3     1  UNL1       -0.2703
     25 P          23.2240   73.6460   -3.0619 P.3     1  UNL1        0.2208
     26 O          22.3839   74.9324   -3.5673 O.3     1  UNL1       -0.4371
     27 O          24.3474   73.2420   -3.9733 O.2     1  UNL1       -0.5170
     28 O          23.6851   74.0228   -1.5621 O.3     1  UNL1       -0.2858
     29 O          22.3424   74.8620    0.1964 O.3     1  UNL1       -0.3226
     30 O          26.0697   76.4611    1.1072 O.3     1  UNL1       -0.3794
     31 O          25.1287   76.3745   -1.6520 O.3     1  UNL1       -0.3775
     32 O          23.6023   76.2986    2.3382 O.3     1  UNL1       -0.3792
     33 C          25.1150   75.5204    0.6233 C.3     1  UNL1        0.1718
     34 C          24.2984   76.1287   -0.5219 C.3     1  UNL1        0.1968
     35 C          24.1870   75.1204    1.7736 C.3     1  UNL1        0.1723
     36 C          23.1574   75.1902   -0.9337 C.3     1  UNL1        0.2706
     37 C          23.0705   74.2231    1.2439 C.3     1  UNL1        0.1830
     38 H          26.5605   76.0352    1.8305 H       1  UNL1        0.2105
     39 H          24.5679   76.7492   -2.3520 H       1  UNL1        0.2106
     40 H          22.9292   76.6348    1.7226 H       1  UNL1        0.2106
     41 O          21.0366   74.7924    2.2651 O.co2   1  UNL1       -0.5466
     42 O          22.1537   72.9929    3.1082 O.co2   1  UNL1       -0.5466
     43 C          22.0664   73.9130    2.3081 C.2     1  UNL1        0.0799
@<TRIPOS>UNITY_ATOM_ATTR
41 1
charge -1
@<TRIPOS>BOND
     1     1     4    1
     2     1    24    1
     3     1     2    1
     4     1     3    2
     5    25    28    1
     6    25    24    1
     7    25    26    1
     8    25    27    2
     9     6    11    1
    10     6    12    1
    11    29    36    1
    12    29    37    1
    13     7     9    1
    14     7    13    1
    15     8    10    1
    16     8    14    1
    17     4     5    1
    18    28    36    1
    19    30    33    1
    20    30    38    1
    21    31    34    1
    22    31    39    1
    23    32    35    1
    24    32    40    1
    25    41    43   ar
    26    15    19    2
    27    42    43   ar
    28    16    22    2
    29    17    12    1
    30    17    19   ar
    31    17    20   ar
    32    18    19   ar
    33    18    22   ar
    34    18    23    1
    35     9    10    1
    36     9    11    1
    37    10    12    1
    38    11     5    1
    39    33    34    1
    40    33    35    1
    41    34    36    1
    42    35    37    1
    43    37    43    1
    44    20    21   ar
    45    21    22   ar
@<TRIPOS>MOLECULE
UDP-glaA
 43 45 0 0 0
SMALL
GASTEIGER

@<TRIPOS>ATOM
      1 P          22.9811   72.0289   -2.9396 P.3     1  UNL1        0.2189
      2 O          23.5666   70.5432   -3.1991 O.3     1  UNL1       -0.4371
      3 O          22.9204   72.4425   -1.4983 O.2     1  UNL1       -0.5170
      4 O          21.5718   72.0364   -3.7330 O.3     1  UNL1       -0.3112
      5 C          20.7244   70.9058   -3.6194 C.3     1  UNL1        0.1811
      6 O          18.8544   71.9533   -4.7057 O.3     1  UNL1       -0.3308
      7 O          17.1724   70.8068   -2.5040 O.3     1  UNL1       -0.3794
      8 O          16.7094   69.0836   -4.5661 O.3     1  UNL1       -0.3779
      9 C          18.3122   70.2461   -3.1553 C.3     1  UNL1        0.1713
     10 C          17.9427   69.7722   -4.5450 C.3     1  UNL1        0.1895
     11 C          19.2870   71.3778   -3.4532 C.3     1  UNL1        0.1764
     12 C          17.8964   71.0770   -5.3217 C.3     1  UNL1        0.2383
     13 H          17.4654   71.1311   -1.6353 H       1  UNL1        0.2105
     14 H          16.7872   68.3254   -3.9618 H       1  UNL1        0.2106
     15 O          16.0472   70.4518   -7.3626 O.2     1  UNL1       -0.2464
     16 O          19.3365   70.4377  -10.5905 O.2     1  UNL1       -0.2670
     17 N          18.2418   70.9048   -6.7039 N.ar    1  UNL1       -0.2551
     18 N          17.6865   70.4447   -8.9685 N.ar    1  UNL1       -0.2743
     19 C          17.2376   70.5910   -7.6494 C.ar    1  UNL1        0.3323
     20 C          19.5638   71.0467   -7.1108 C.ar    1  UNL1        0.0869
     21 C          19.9758   70.9045   -8.3725 C.ar    1  UNL1        0.0795
     22 C          18.9901   70.5757   -9.4213 C.ar    1  UNL1        0.2626
     23 H          16.9819   70.2184   -9.6653 H       1  UNL1        0.1734
     24 O          23.9252   72.9576   -3.8676 O.3     1  UNL1       -0.2703
     25 P          24.1010   74.5632   -3.9295 P.3     1  UNL1        0.2208
     26 O          25.7057   74.7590   -3.9817 O.3     1  UNL1       -0.4371
     27 O          23.4225   75.3007   -2.8107 O.2     1  UNL1       -0.5170
     28 O          23.5912   74.9739   -5.4044 O.3     1  UNL1       -0.2858
     29 O          21.6294   76.1045   -6.0920 O.3     1  UNL1       -0.3226
     30 O          22.2879   73.4965   -9.2612 O.3     1  UNL1       -0.3794
     31 O          22.6807   72.6133   -6.5096 O.3     1  UNL1       -0.3775
     32 O          20.5983   75.6150   -8.7256 O.3     1  UNL1       -0.3792
     33 C          22.5984   74.3742   -8.1826 C.3     1  UNL1        0.1718
     34 C          22.0303   73.8278   -6.8684 C.3     1  UNL1        0.1968
     35 C          22.0014   75.7528   -8.4784 C.3     1  UNL1        0.1723
     36 C          22.2090   74.8453   -5.7348 C.3     1  UNL1        0.2706
     37 C          22.2003   76.6678   -7.2720 C.3     1  UNL1        0.1830
     38 H          22.6637   73.8822  -10.0709 H       1  UNL1        0.2105
     39 H          22.2958   72.3115   -5.6696 H       1  UNL1        0.2106
     40 H          20.1508   75.4447   -7.8795 H       1  UNL1        0.2106
     41 O          21.8580   78.8490   -6.4790 O.co2   1  UNL1       -0.5466
     42 O          20.7613   78.2540   -8.3870 O.co2   1  UNL1       -0.5466
     43 C          21.5188   77.9849   -7.4659 C.2     1  UNL1        0.0799
@<TRIPOS>UNITY_ATOM_ATTR
41 1
charge -1
@<TRIPOS>BOND
     1     1     4    1
     2     1    24    1
     3     1     2    1
     4     1     3    2
     5    25    28    1
     6    25    24    1
     7    25    26    1
     8    25    27    2
     9     6    11    1
    10     6    12    1
    11    29    36    1
    12    29    37    1
    13     7     9    1
    14     7    13    1
    15     8    10    1
    16     8    14    1
    17     4     5    1
    18    28    36    1
    19    30    33    1
    20    30    38    1
    21    31    34    1
    22    31    39    1
    23    32    35    1
    24    32    40    1
    25    41    43   ar
    26    15    19    2
    27    42    43   ar
    28    16    22    2
    29    17    12    1
    30    17    19   ar
    31    17    20   ar
    32    18    19   ar
    33    18    22   ar
    34    18    23    1
    35     9    10    1
    36     9    11    1
    37    10    12    1
    38    11     5    1
    39    33    34    1
    40    33    35    1
    41    34    36    1
    42    35    37    1
    43    37    43    1
    44    20    21   ar
    45    21    22   ar
@<TRIPOS>MOLECULE
UDP-glaA
 43 45 0 0 0
SMALL
GASTEIGER

@<TRIPOS>ATOM
      1 P          22.2492   72.7985   -3.8208 P.3     1  UNL1        0.2189
      2 O          23.8158   72.6234   -4.1846 O.3     1  UNL1       -0.4371
      3 O          21.9637   73.0931   -2.3773 O.2     1  UNL1       -0.5170
      4 O          21.5593   71.4620   -4.4153 O.3     1  UNL1       -0.3112
      5 C          20.8129   70.6369   -3.5370 C.3     1  UNL1        0.1811
      6 O          19.0413   71.8734   -4.5889 O.3     1  UNL1       -0.3308
      7 O          17.2746   70.8476   -2.3939 O.3     1  UNL1       -0.3794
      8 O          16.6396   69.2132   -4.4823 O.3     1  UNL1       -0.3779
      9 C          18.3530   70.1956   -3.0646 C.3     1  UNL1        0.1713
     10 C          17.9317   69.7837   -4.4594 C.3     1  UNL1        0.1895
     11 C          19.4267   71.2372   -3.3504 C.3     1  UNL1        0.1764
     12 C          18.0018   71.1013   -5.2124 C.3     1  UNL1        0.2383
     13 H          17.6022   71.1272   -1.5221 H       1  UNL1        0.2105
     14 H          16.6506   68.4400   -3.8923 H       1  UNL1        0.2106
     15 O          16.1132   70.4703   -7.2150 O.2     1  UNL1       -0.2464
     16 O          19.3400   70.4398  -10.5052 O.2     1  UNL1       -0.2670
     17 N          18.3205   70.9234   -6.6002 N.ar    1  UNL1       -0.2551
     18 N          17.7214   70.4550   -8.8520 N.ar    1  UNL1       -0.2743
     19 C          17.2981   70.6070   -7.5250 C.ar    1  UNL1        0.3323
     20 C          19.6346   71.0622   -7.0329 C.ar    1  UNL1        0.0869
     21 C          20.0222   70.9145   -8.3017 C.ar    1  UNL1        0.0795
     22 C          19.0163   70.5828   -9.3302 C.ar    1  UNL1        0.2626
     23 H          17.0033   70.2268   -9.5342 H       1  UNL1        0.1734
     24 O          21.7640   73.9465   -4.8512 O.3     1  UNL1       -0.2703
     25 P          22.1640   75.5086   -4.9631 P.3     1  UNL1        0.2208
     26 O          23.4860   75.4874   -5.8948 O.3     1  UNL1       -0.4371
     27 O          22.3495   76.1933   -3.6393 O.2     1  UNL1       -0.5170
     28 O          21.0180   76.1585   -5.8949 O.3     1  UNL1       -0.2858
     29 O          19.1525   74.9767   -6.7450 O.3     1  UNL1       -0.3226
     30 O          19.5262   78.0920   -9.4716 O.3     1  UNL1       -0.3794
     31 O          21.8914   76.7233   -8.4524 O.3     1  UNL1       -0.3775
     32 O          17.6956   76.0893   -8.9536 O.3     1  UNL1       -0.3792
     33 C          19.5742   77.4175   -8.2174 C.3     1  UNL1        0.1718
     34 C          20.5612   76.2469   -8.2775 C.3     1  UNL1        0.1968
     35 C          18.1724   76.9038   -7.8774 C.3     1  UNL1        0.1723
     36 C          20.4933   75.4125   -6.9924 C.3     1  UNL1        0.2706
     37 C          18.2301   76.0565   -6.6082 C.3     1  UNL1        0.1830
     38 H          18.8889   78.8217   -9.3881 H       1  UNL1        0.2105
     39 H          22.4795   75.9498   -8.4751 H       1  UNL1        0.2106
     40 H          18.1679   75.2399   -8.9308 H       1  UNL1        0.2106
     41 O          16.8473   74.1733   -6.8201 O.co2   1  UNL1       -0.5466
     42 O          15.9995   75.9618   -5.6890 O.co2   1  UNL1       -0.5466
     43 C          16.9066   75.4270   -6.3098 C.2     1  UNL1        0.0799
@<TRIPOS>UNITY_ATOM_ATTR
41 1
charge -1
@<TRIPOS>BOND
     1     1     4    1
     2     1    24    1
     3     1     2    1
     4     1     3    2
     5    25    28    1
     6    25    24    1
     7    25    26    1
     8    25    27    2
     9     6    11    1
    10     6    12    1
    11    29    36    1
    12    29    37    1
    13     7     9    1
    14     7    13    1
    15     8    10    1
    16     8    14    1
    17     4     5    1
    18    28    36    1
    19    30    33    1
    20    30    38    1
    21    31    34    1
    22    31    39    1
    23    32    35    1
    24    32    40    1
    25    41    43   ar
    26    15    19    2
    27    42    43   ar
    28    16    22    2
    29    17    12    1
    30    17    19   ar
    31    17    20   ar
    32    18    19   ar
    33    18    22   ar
    34    18    23    1
    35     9    10    1
    36     9    11    1
    37    10    12    1
    38    11     5    1
    39    33    34    1
    40    33    35    1
    41    34    36    1
    42    35    37    1
    43    37    43    1
    44    20    21   ar
    45    21    22   ar
@<TRIPOS>MOLECULE
UDP-glaA
 43 45 0 0 0
SMALL
GASTEIGER

@<TRIPOS>ATOM
      1 P          22.3301   72.8804   -3.6991 P.3     1  UNL1        0.2189
      2 O          23.8885   72.5859   -4.0186 O.3     1  UNL1       -0.4371
      3 O          22.0151   73.1204   -2.2516 O.2     1  UNL1       -0.5170
      4 O          21.5499   71.6453   -4.3928 O.3     1  UNL1       -0.3112
      5 C          20.8141   70.7590   -3.5667 C.3     1  UNL1        0.1811
      6 O          18.9917   71.9074   -4.6318 O.3     1  UNL1       -0.3308
      7 O          17.2717   70.8398   -2.4197 O.3     1  UNL1       -0.3794
      8 O          16.7016   69.1525   -4.4846 O.3     1  UNL1       -0.3779
      9 C          18.3751   70.2236   -3.0835 C.3     1  UNL1        0.1713
     10 C          17.9692   69.7759   -4.4718 C.3     1  UNL1        0.1895
     11 C          19.4047   71.3045   -3.3856 C.3     1  UNL1        0.1764
     12 C          17.9840   71.0849   -5.2427 C.3     1  UNL1        0.2383
     13 H          17.5888   71.1445   -1.5524 H       1  UNL1        0.2105
     14 H          16.7451   68.3885   -3.8841 H       1  UNL1        0.2106
     15 O          16.1069   70.4208   -7.2455 O.2     1  UNL1       -0.2464
     16 O          19.3416   70.4032  -10.5281 O.2     1  UNL1       -0.2670
     17 N          18.3079   70.9013   -6.6286 N.ar    1  UNL1       -0.2551
     18 N          17.7190   70.4120   -8.8787 N.ar    1  UNL1       -0.2743
     19 C          17.2910   70.5681   -7.5537 C.ar    1  UNL1        0.3323
     20 C          19.6215   71.0512   -7.0592 C.ar    1  UNL1        0.0869
     21 C          20.0135   70.8994   -8.3261 C.ar    1  UNL1        0.0795
     22 C          19.0136   70.5504   -9.3547 C.ar    1  UNL1        0.2626
     23 H          17.0050   70.1718   -9.5611 H       1  UNL1        0.1734
     24 O          21.9879   74.1216   -4.6776 O.3     1  UNL1       -0.2703
     25 P          21.9930   74.2332   -6.2901 P.3     1  UNL1        0.2208
     26 O          20.4221   74.3420   -6.6595 O.3     1  UNL1       -0.4371
     27 O          22.7168   73.1141   -6.9827 O.2     1  UNL1       -0.5170
     28 O          22.5873   75.7018   -6.5965 O.3     1  UNL1       -0.2858
     29 O          24.8591   76.2305   -6.9951 O.3     1  UNL1       -0.3226
     30 O          23.3841   79.8105   -5.4827 O.3     1  UNL1       -0.3794
     31 O          22.5695   77.2631   -4.3195 O.3     1  UNL1       -0.3775
     32 O          25.7323   78.9429   -6.6501 O.3     1  UNL1       -0.3792
     33 C          23.3889   78.5757   -6.1936 C.3     1  UNL1        0.1718
     34 C          23.6496   77.4084   -5.2355 C.3     1  UNL1        0.1968
     35 C          24.4799   78.6263   -7.2667 C.3     1  UNL1        0.1723
     36 C          23.8273   76.0977   -6.0119 C.3     1  UNL1        0.2706
     37 C          24.5968   77.2628   -7.9445 C.3     1  UNL1        0.1830
     38 H          23.2185   80.5195   -6.1273 H       1  UNL1        0.2105
     39 H          22.7743   76.5089   -3.7416 H       1  UNL1        0.2106
     40 H          26.0450   78.1600   -6.1660 H       1  UNL1        0.2106
     41 O          26.8557   76.7484   -8.3135 O.co2   1  UNL1       -0.5466
     42 O          25.6781   77.5788  -10.0800 O.co2   1  UNL1       -0.5466
     43 C          25.7380   77.2279   -8.9105 C.2     1  UNL1        0.0799
@<TRIPOS>UNITY_ATOM_ATTR
41 1
charge -1
@<TRIPOS>BOND
     1     1     4    1
     2     1    24    1
     3     1     2    1
     4     1     3    2
     5    25    28    1
     6    25    24    1
     7    25    26    1
     8    25    27    2
     9     6    11    1
    10     6    12    1
    11    29    36    1
    12    29    37    1
    13     7     9    1
    14     7    13    1
    15     8    10    1
    16     8    14    1
    17     4     5    1
    18    28    36    1
    19    30    33    1
    20    30    38    1
    21    31    34    1
    22    31    39    1
    23    32    35    1
    24    32    40    1
    25    41    43   ar
    26    15    19    2
    27    42    43   ar
    28    16    22    2
    29    17    12    1
    30    17    19   ar
    31    17    20   ar
    32    18    19   ar
    33    18    22   ar
    34    18    23    1
    35     9    10    1
    36     9    11    1
    37    10    12    1
    38    11     5    1
    39    33    34    1
    40    33    35    1
    41    34    36    1
    42    35    37    1
    43    37    43    1
    44    20    21   ar
    45    21    22   ar
@<TRIPOS>MOLECULE
UDP-glaA
 43 45 0 0 0
SMALL
GASTEIGER

@<TRIPOS>ATOM
      1 P          21.6571   70.6945   -1.0744 P.3     1  UNL1        0.2189
      2 O          23.2695   70.6516   -0.9487 O.3     1  UNL1       -0.4371
      3 O          20.9871   69.3517   -1.0861 O.2     1  UNL1       -0.5170
      4 O          21.3919   71.6237   -2.3712 O.3     1  UNL1       -0.3112
      5 C          20.6422   71.0865   -3.4476 C.3     1  UNL1        0.1811
      6 O          18.7904   72.1016   -4.5943 O.3     1  UNL1       -0.3308
      7 O          17.0644   70.9674   -2.4204 O.3     1  UNL1       -0.3794
      8 O          16.6697   69.2131   -4.4704 O.3     1  UNL1       -0.3779
      9 C          18.2255   70.4094   -3.0354 C.3     1  UNL1        0.1713
     10 C          17.8956   69.9139   -4.4276 C.3     1  UNL1        0.1895
     11 C          19.1967   71.5466   -3.3238 C.3     1  UNL1        0.1764
     12 C          17.8565   71.2080   -5.2224 C.3     1  UNL1        0.2383
     13 H          17.3323   71.3058   -1.5491 H       1  UNL1        0.2105
     14 H          16.7394   68.4636   -3.8544 H       1  UNL1        0.2106
     15 O          16.0840   70.4380   -7.2817 O.2     1  UNL1       -0.2464
     16 O          19.4340   70.5195  -10.4455 O.2     1  UNL1       -0.2670
     17 N          18.2383   71.0212   -6.5931 N.ar    1  UNL1       -0.2551
     18 N          17.7534   70.4786   -8.8557 N.ar    1  UNL1       -0.2743
     19 C          17.2711   70.6326   -7.5493 C.ar    1  UNL1        0.3323
     20 C          19.5591   71.2226   -6.9784 C.ar    1  UNL1        0.0869
     21 C          20.0032   71.0721   -8.2281 C.ar    1  UNL1        0.0795
     22 C          19.0574   70.6671   -9.2869 C.ar    1  UNL1        0.2626
     23 H          17.0758   70.1990   -9.5598 H       1  UNL1        0.1734
     24 O          21.2233   71.6529    0.1538 O.3     1  UNL1       -0.2703
     25 P          21.4001   73.2449    0.3700 P.3     1  UNL1        0.2208
     26 O          20.9227   73.4671    1.8993 O.3     1  UNL1       -0.4371
     27 O          20.6702   74.0880   -0.6361 O.2     1  UNL1       -0.5170
     28 O          22.9965   73.4784    0.4026 O.3     1  UNL1       -0.2858
     29 O          24.1768   74.4883   -1.3825 O.3     1  UNL1       -0.3226
     30 O          20.5231   76.4657   -1.5249 O.3     1  UNL1       -0.3794
     31 O          21.7927   75.8812    1.0349 O.3     1  UNL1       -0.3775
     32 O          22.7911   76.3278   -3.0956 O.3     1  UNL1       -0.3792
     33 C          21.4428   75.3966   -1.3208 C.3     1  UNL1        0.1718
     34 C          22.4485   75.7591   -0.2228 C.3     1  UNL1        0.1968
     35 C          22.1788   75.1190   -2.6344 C.3     1  UNL1        0.1723
     36 C          23.5434   74.6905   -0.1148 C.3     1  UNL1        0.2706
     37 C          23.2681   74.0743   -2.4015 C.3     1  UNL1        0.1830
     38 H          19.9088   76.1939   -2.2280 H       1  UNL1        0.2105
     39 H          22.4685   76.1013    1.6980 H       1  UNL1        0.2106
     40 H          23.5638   76.5155   -2.5364 H       1  UNL1        0.2106
     41 O          25.1755   74.6879   -3.6217 O.co2   1  UNL1       -0.5466
     42 O          23.8478   73.0654   -4.5171 O.co2   1  UNL1       -0.5466
     43 C          24.0982   73.8664   -3.6281 C.2     1  UNL1        0.0799
@<TRIPOS>UNITY_ATOM_ATTR
41 1
charge -1
@<TRIPOS>BOND
     1     1     4    1
     2     1    24    1
     3     1     2    1
     4     1     3    2
     5    25    28    1
     6    25    24    1
     7    25    26    1
     8    25    27    2
     9     6    11    1
    10     6    12    1
    11    29    36    1
    12    29    37    1
    13     7     9    1
    14     7    13    1
    15     8    10    1
    16     8    14    1
    17     4     5    1
    18    28    36    1
    19    30    33    1
    20    30    38    1
    21    31    34    1
    22    31    39    1
    23    32    35    1
    24    32    40    1
    25    41    43   ar
    26    15    19    2
    27    42    43   ar
    28    16    22    2
    29    17    12    1
    30    17    19   ar
    31    17    20   ar
    32    18    19   ar
    33    18    22   ar
    34    18    23    1
    35     9    10    1
    36     9    11    1
    37    10    12    1
    38    11     5    1
    39    33    34    1
    40    33    35    1
    41    34    36    1
    42    35    37    1
    43    37    43    1
    44    20    21   ar
    45    21    22   ar
@<TRIPOS>MOLECULE
UDP-glaA
 43 45 0 0 0
SMALL
GASTEIGER

@<TRIPOS>ATOM
      1 P          21.5549   73.2971   -6.2685 P.3     1  UNL1        0.2189
      2 O          21.4437   74.9110   -6.2919 O.3     1  UNL1       -0.4371
      3 O          22.6737   72.7278   -7.0908 O.2     1  UNL1       -0.5170
      4 O          20.0680   72.7983   -6.6633 O.3     1  UNL1       -0.3112
      5 C          19.7444   71.4292   -6.4898 C.3     1  UNL1        0.1811
      6 O          17.5365   71.0494   -7.3588 O.3     1  UNL1       -0.3308
      7 O          18.8106   71.0315  -10.0731 O.3     1  UNL1       -0.3794
      8 O          17.7369   73.5343   -9.9358 O.3     1  UNL1       -0.3779
      9 C          19.1353   71.8197   -8.9282 C.3     1  UNL1        0.1713
     10 C          18.0970   72.9028   -8.7246 C.3     1  UNL1        0.1895
     11 C          18.9393   70.9537   -7.6908 C.3     1  UNL1        0.1764
     12 C          16.9471   72.1257   -8.1068 C.3     1  UNL1        0.2383
     13 H          19.4796   70.3290  -10.1406 H       1  UNL1        0.2105
     14 H          18.5463   73.9124  -10.3207 H       1  UNL1        0.2106
     15 O          14.8733   73.8499   -8.9446 O.2     1  UNL1       -0.2464
     16 O          13.9741   75.1677   -4.6211 O.2     1  UNL1       -0.2670
     17 N          16.1545   72.9305   -7.2217 N.ar    1  UNL1       -0.2551
     18 N          14.4273   74.5054   -6.7912 N.ar    1  UNL1       -0.2743
     19 C          15.1378   73.7636   -7.7441 C.ar    1  UNL1        0.3323
     20 C          16.3881   72.8897   -5.8516 C.ar    1  UNL1        0.0869
     21 C          15.7017   73.6027   -4.9558 C.ar    1  UNL1        0.0795
     22 C          14.6234   74.4984   -5.4188 C.ar    1  UNL1        0.2626
     23 H          13.6918   75.1118   -7.1440 H       1  UNL1        0.1734
     24 O          21.6425   72.9628   -4.6887 O.3     1  UNL1       -0.2703
     25 P          22.9178   72.7898   -3.7107 P.3     1  UNL1        0.2208
     26 O          24.0028   73.8166   -4.3306 O.3     1  UNL1       -0.4371
     27 O          23.4064   71.3756   -3.5802 O.2     1  UNL1       -0.5170
     28 O          22.4614   73.4685   -2.3197 O.3     1  UNL1       -0.2858
     29 O          21.4743   71.6603   -1.1554 O.3     1  UNL1       -0.3226
     30 O          21.5077   74.6449    1.7378 O.3     1  UNL1       -0.3794
     31 O          20.8152   75.2681   -1.0258 O.3     1  UNL1       -0.3775
     32 O          20.9479   71.9413    1.6522 O.3     1  UNL1       -0.3792
     33 C          21.9478   73.8817    0.6179 C.3     1  UNL1        0.1718
     34 C          20.9135   73.9444   -0.5111 C.3     1  UNL1        0.1968
     35 C          22.1551   72.4301    1.0584 C.3     1  UNL1        0.1723
     36 C          21.2948   72.9913   -1.6506 C.3     1  UNL1        0.2706
     37 C          22.4891   71.5677   -0.1568 C.3     1  UNL1        0.1830
     38 H          22.1901   74.5747    2.4270 H       1  UNL1        0.2105
     39 H          20.1579   75.2564   -1.7419 H       1  UNL1        0.2106
     40 H          20.2980   71.7844    0.9464 H       1  UNL1        0.2106
     41 O          23.8057   69.6281   -0.0661 O.co2   1  UNL1       -0.5466
     42 O          21.6602   69.4626    0.6864 O.co2   1  UNL1       -0.5466
     43 C          22.5728   70.1192    0.2064 C.2     1  UNL1        0.0799
@<TRIPOS>UNITY_ATOM_ATTR
41 1
charge -1
@<TRIPOS>BOND
     1     1     4    1
     2     1    24    1
     3     1     2    1
     4     1     3    2
     5    25    28    1
     6    25    24    1
     7    25    26    1
     8    25    27    2
     9     6    11    1
    10     6    12    1
    11    29    36    1
    12    29    37    1
    13     7     9    1
    14     7    13    1
    15     8    10    1
    16     8    14    1
    17     4     5    1
    18    28    36    1
    19    30    33    1
    20    30    38    1
    21    31    34    1
    22    31    39    1
    23    32    35    1
    24    32    40    1
    25    41    43   ar
    26    15    19    2
    27    42    43   ar
    28    16    22    2
    29    17    12    1
    30    17    19   ar
    31    17    20   ar
    32    18    19   ar
    33    18    22   ar
    34    18    23    1
    35     9    10    1
    36     9    11    1
    37    10    12    1
    38    11     5    1
    39    33    34    1
    40    33    35    1
    41    34    36    1
    42    35    37    1
    43    37    43    1
    44    20    21   ar
    45    21    22   ar
@<TRIPOS>MOLECULE
UDP-glaA
 43 45 0 0 0
SMALL
GASTEIGER

@<TRIPOS>ATOM
      1 P          20.2085   70.2348   -3.5152 P.3     1  UNL1        0.2189
      2 O          19.6816   69.8027   -4.9825 O.3     1  UNL1       -0.4371
      3 O          20.9320   69.1585   -2.7600 O.2     1  UNL1       -0.5170
      4 O          18.8944   70.8392   -2.7916 O.3     1  UNL1       -0.3112
      5 C          17.7303   71.0543   -3.5713 C.3     1  UNL1        0.1811
      6 O          18.3789   72.8337   -5.0504 O.3     1  UNL1       -0.3308
      7 O          16.0612   74.3652   -3.9217 O.3     1  UNL1       -0.3794
      8 O          15.0813   73.4726   -6.3047 O.3     1  UNL1       -0.3779
      9 C          16.1747   72.9682   -4.1926 C.3     1  UNL1        0.1713
     10 C          16.0987   72.7146   -5.6834 C.3     1  UNL1        0.1895
     11 C          17.6004   72.5413   -3.8690 C.3     1  UNL1        0.1764
     12 C          17.4897   73.1162   -6.1434 C.3     1  UNL1        0.2383
     13 H          16.1545   74.4826   -2.9609 H       1  UNL1        0.2105
     14 H          14.2390   73.2357   -5.8799 H       1  UNL1        0.2106
     15 O          16.4911   70.5794   -6.8800 O.2     1  UNL1       -0.2464
     16 O          19.2146   70.3826  -10.5925 O.2     1  UNL1       -0.2670
     17 N          17.9195   72.3796   -7.2976 N.ar    1  UNL1       -0.2551
     18 N          17.8483   70.4828   -8.7279 N.ar    1  UNL1       -0.2743
     19 C          17.3553   71.1132   -7.5779 C.ar    1  UNL1        0.3323
     20 C          18.8903   72.9128   -8.1382 C.ar    1  UNL1        0.0869
     21 C          19.3495   72.2996   -9.2313 C.ar    1  UNL1        0.0795
     22 C          18.8131   70.9729   -9.5944 C.ar    1  UNL1        0.2626
     23 H          17.4575   69.5709   -8.9487 H       1  UNL1        0.1734
     24 O          21.0931   71.5535   -3.8217 O.3     1  UNL1       -0.2703
     25 P          22.6260   71.9109   -3.4542 P.3     1  UNL1        0.2208
     26 O          23.1091   72.8082   -4.7102 O.3     1  UNL1       -0.4371
     27 O          23.4890   70.7127   -3.1798 O.2     1  UNL1       -0.5170
     28 O          22.5200   72.9515   -2.2255 O.3     1  UNL1       -0.2858
     29 O          21.5106   71.6583   -0.5201 O.3     1  UNL1       -0.3226
     30 O          22.4515   75.1717    1.4924 O.3     1  UNL1       -0.3794
     31 O          21.3841   75.2585   -1.2203 O.3     1  UNL1       -0.3775
     32 O          21.5205   72.6608    2.1694 O.3     1  UNL1       -0.3792
     33 C          22.5828   74.1081    0.5534 C.3     1  UNL1        0.1718
     34 C          21.3876   74.0911   -0.4055 C.3     1  UNL1        0.1968
     35 C          22.6624   72.7822    1.3149 C.3     1  UNL1        0.1723
     36 C          21.4323   72.8513   -1.3073 C.3     1  UNL1        0.2706
     37 C          22.6603   71.6202    0.3239 C.3     1  UNL1        0.1830
     38 H          23.2266   75.1426    2.0789 H       1  UNL1        0.2105
     39 H          20.6177   75.1987   -1.8153 H       1  UNL1        0.2106
     40 H          20.7432   72.4630    1.6200 H       1  UNL1        0.2106
     41 O          21.6028   69.5366    0.5333 O.co2   1  UNL1       -0.5466
     42 O          23.3617   69.9524    1.9227 O.co2   1  UNL1       -0.5466
     43 C          22.6063   70.3013    1.0271 C.2     1  UNL1        0.0799
@<TRIPOS>UNITY_ATOM_ATTR
41 1
charge -1
@<TRIPOS>BOND
     1     1     4    1
     2     1    24    1
     3     1     2    1
     4     1     3    2
     5    25    28    1
     6    25    24    1
     7    25    26    1
     8    25    27    2
     9     6    11    1
    10     6    12    1
    11    29    36    1
    12    29    37    1
    13     7     9    1
    14     7    13    1
    15     8    10    1
    16     8    14    1
    17     4     5    1
    18    28    36    1
    19    30    33    1
    20    30    38    1
    21    31    34    1
    22    31    39    1
    23    32    35    1
    24    32    40    1
    25    41    43   ar
    26    15    19    2
    27    42    43   ar
    28    16    22    2
    29    17    12    1
    30    17    19   ar
    31    17    20   ar
    32    18    19   ar
    33    18    22   ar
    34    18    23    1
    35     9    10    1
    36     9    11    1
    37    10    12    1
    38    11     5    1
    39    33    34    1
    40    33    35    1
    41    34    36    1
    42    35    37    1
    43    37    43    1
    44    20    21   ar
    45    21    22   ar
@<TRIPOS>MOLECULE
UDP-glaA
 43 45 0 0 0
SMALL
GASTEIGER

@<TRIPOS>ATOM
      1 P          21.8218   70.6793   -1.0971 P.3     1  UNL1        0.2189
      2 O          23.1217   69.8984   -0.5335 O.3     1  UNL1       -0.4371
      3 O          20.7885   71.0173   -0.0627 O.2     1  UNL1       -0.5170
      4 O          21.3131   69.7552   -2.3230 O.3     1  UNL1       -0.3112
      5 C          20.8925   70.3882   -3.5195 C.3     1  UNL1        0.1811
      6 O          19.1470   71.7174   -4.4998 O.3     1  UNL1       -0.3308
      7 O          17.3743   70.6551   -2.3272 O.3     1  UNL1       -0.3794
      8 O          16.6692   69.1259   -4.4720 O.3     1  UNL1       -0.3779
      9 C          18.4258   69.9998   -3.0362 C.3     1  UNL1        0.1713
     10 C          17.9778   69.6573   -4.4414 C.3     1  UNL1        0.1895
     11 C          19.5267   71.0205   -3.2926 C.3     1  UNL1        0.1764
     12 C          18.0786   71.0018   -5.1415 C.3     1  UNL1        0.2383
     13 H          17.7192   70.8894   -1.4487 H       1  UNL1        0.2105
     14 H          16.6636   68.3294   -3.9138 H       1  UNL1        0.2106
     15 O          16.1586   70.4548   -7.1389 O.2     1  UNL1       -0.2464
     16 O          19.3402   70.5198  -10.4724 O.2     1  UNL1       -0.2670
     17 N          18.3772   70.8711   -6.5390 N.ar    1  UNL1       -0.2551
     18 N          17.7443   70.4870   -8.7975 N.ar    1  UNL1       -0.2743
     19 C          17.3401   70.5946   -7.4602 C.ar    1  UNL1        0.3323
     20 C          19.6863   71.0164   -6.9847 C.ar    1  UNL1        0.0869
     21 C          20.0555   70.9114   -8.2631 C.ar    1  UNL1        0.0795
     22 C          19.0334   70.6231   -9.2887 C.ar    1  UNL1        0.2626
     23 H          17.0154   70.2880   -9.4774 H       1  UNL1        0.1734
     24 O          22.4652   71.9582   -1.8493 O.3     1  UNL1       -0.2703
     25 P          22.6178   73.4976   -1.3808 P.3     1  UNL1        0.2208
     26 O          22.9600   73.3738    0.1951 O.3     1  UNL1       -0.4371
     27 O          21.4255   74.3568   -1.6907 O.2     1  UNL1       -0.5170
     28 O          23.9939   73.9971   -2.0596 O.3     1  UNL1       -0.2858
     29 O          24.9773   76.0182   -1.3196 O.3     1  UNL1       -0.3226
     30 O          26.9069   75.3877   -4.9471 O.3     1  UNL1       -0.3794
     31 O          24.0496   74.8683   -4.6789 O.3     1  UNL1       -0.3775
     32 O          27.1623   77.1259   -2.8156 O.3     1  UNL1       -0.3792
     33 C          26.2707   75.0680   -3.7129 C.3     1  UNL1        0.1718
     34 C          24.8231   75.5706   -3.7118 C.3     1  UNL1        0.1968
     35 C          27.0526   75.7201   -2.5693 C.3     1  UNL1        0.1723
     36 C          24.1847   75.3852   -2.3296 C.3     1  UNL1        0.2706
     37 C          26.3083   75.5085   -1.2527 C.3     1  UNL1        0.1830
     38 H          27.8190   75.0538   -4.9021 H       1  UNL1        0.2105
     39 H          23.1417   75.2129   -4.6349 H       1  UNL1        0.2106
     40 H          26.2972   77.5370   -2.6492 H       1  UNL1        0.2106
     41 O          26.7585   75.5987    1.0480 O.co2   1  UNL1       -0.5466
     42 O          27.6136   77.2714   -0.2436 O.co2   1  UNL1       -0.5466
     43 C          26.9686   76.2394   -0.1272 C.2     1  UNL1        0.0799
@<TRIPOS>UNITY_ATOM_ATTR
41 1
charge -1
@<TRIPOS>BOND
     1     1     4    1
     2     1    24    1
     3     1     2    1
     4     1     3    2
     5    25    28    1
     6    25    24    1
     7    25    26    1
     8    25    27    2
     9     6    11    1
    10     6    12    1
    11    29    36    1
    12    29    37    1
    13     7     9    1
    14     7    13    1
    15     8    10    1
    16     8    14    1
    17     4     5    1
    18    28    36    1
    19    30    33    1
    20    30    38    1
    21    31    34    1
    22    31    39    1
    23    32    35    1
    24    32    40    1
    25    41    43   ar
    26    15    19    2
    27    42    43   ar
    28    16    22    2
    29    17    12    1
    30    17    19   ar
    31    17    20   ar
    32    18    19   ar
    33    18    22   ar
    34    18    23    1
    35     9    10    1
    36     9    11    1
    37    10    12    1
    38    11     5    1
    39    33    34    1
    40    33    35    1
    41    34    36    1
    42    35    37    1
    43    37    43    1
    44    20    21   ar
    45    21    22   ar
@<TRIPOS>MOLECULE
UDP-glaA
 43 45 0 0 0
SMALL
GASTEIGER

@<TRIPOS>ATOM
      1 P          21.7604   70.5074   -1.1133 P.3     1  UNL1        0.2189
      2 O          23.3382   70.1952   -0.9390 O.3     1  UNL1       -0.4371
      3 O          20.9316   70.2859    0.1180 O.2     1  UNL1       -0.5170
      4 O          21.3336   69.6442   -2.4127 O.3     1  UNL1       -0.3112
      5 C          20.9028   70.3349   -3.5731 C.3     1  UNL1        0.1811
      6 O          19.1090   71.6352   -4.5036 O.3     1  UNL1       -0.3308
      7 O          17.3846   70.4485   -2.3566 O.3     1  UNL1       -0.3794
      8 O          16.7179   68.9637   -4.5444 O.3     1  UNL1       -0.3779
      9 C          18.4530   69.8505   -3.0905 C.3     1  UNL1        0.1713
     10 C          18.0085   69.5368   -4.5035 C.3     1  UNL1        0.1895
     11 C          19.5183   70.9144   -3.3203 C.3     1  UNL1        0.1764
     12 C          18.0611   70.9048   -5.1621 C.3     1  UNL1        0.2383
     13 H          17.7267   70.6670   -1.4730 H       1  UNL1        0.2105
     14 H          16.7417   68.1506   -4.0110 H       1  UNL1        0.2106
     15 O          16.1420   70.3939   -7.1699 O.2     1  UNL1       -0.2464
     16 O          19.3075   70.6270  -10.5111 O.2     1  UNL1       -0.2670
     17 N          18.3558   70.8271   -6.5644 N.ar    1  UNL1       -0.2551
     18 N          17.7196   70.5098   -8.8323 N.ar    1  UNL1       -0.2743
     19 C          17.3195   70.5647   -7.4907 C.ar    1  UNL1        0.3323
     20 C          19.6603   71.0098   -7.0097 C.ar    1  UNL1        0.0869
     21 C          20.0257   70.9549   -8.2924 C.ar    1  UNL1        0.0795
     22 C          19.0042   70.6845   -9.3234 C.ar    1  UNL1        0.2626
     23 H          16.9913   70.3218   -9.5159 H       1  UNL1        0.1734
     24 O          21.7507   72.0266   -1.6675 O.3     1  UNL1       -0.2703
     25 P          21.9121   73.4377   -0.8958 P.3     1  UNL1        0.2208
     26 O          22.8129   73.0555    0.3920 O.3     1  UNL1       -0.4371
     27 O          20.6110   74.1110   -0.5646 O.2     1  UNL1       -0.5170
     28 O          22.8927   74.3083   -1.8363 O.3     1  UNL1       -0.2858
     29 O          21.9376   76.0346   -3.1429 O.3     1  UNL1       -0.3226
     30 O          25.6820   75.5884   -4.8922 O.3     1  UNL1       -0.3794
     31 O          24.1492   73.2522   -4.0563 O.3     1  UNL1       -0.3775
     32 O          23.5682   77.3541   -5.1021 O.3     1  UNL1       -0.3792
     33 C          24.6952   75.6126   -3.8645 C.3     1  UNL1        0.1718
     34 C          23.6097   74.5669   -4.1412 C.3     1  UNL1        0.1968
     35 C          24.0735   77.0107   -3.8077 C.3     1  UNL1        0.1723
     36 C          22.4578   74.7011   -3.1374 C.3     1  UNL1        0.2706
     37 C          22.9167   77.0178   -2.8108 C.3     1  UNL1        0.1830
     38 H          26.3456   76.2660   -4.6776 H       1  UNL1        0.2105
     39 H          23.4256   72.6264   -4.2288 H       1  UNL1        0.2106
     40 H          22.7564   76.8437   -5.2622 H       1  UNL1        0.2106
     41 O          21.1347   78.2870   -3.6577 O.co2   1  UNL1       -0.5466
     42 O          22.5142   79.3068   -2.1563 O.co2   1  UNL1       -0.5466
     43 C          22.1967   78.3287   -2.8174 C.2     1  UNL1        0.0799
@<TRIPOS>UNITY_ATOM_ATTR
41 1
charge -1
@<TRIPOS>BOND
     1     1     4    1
     2     1    24    1
     3     1     2    1
     4     1     3    2
     5    25    28    1
     6    25    24    1
     7    25    26    1
     8    25    27    2
     9     6    11    1
    10     6    12    1
    11    29    36    1
    12    29    37    1
    13     7     9    1
    14     7    13    1
    15     8    10    1
    16     8    14    1
    17     4     5    1
    18    28    36    1
    19    30    33    1
    20    30    38    1
    21    31    34    1
    22    31    39    1
    23    32    35    1
    24    32    40    1
    25    41    43   ar
    26    15    19    2
    27    42    43   ar
    28    16    22    2
    29    17    12    1
    30    17    19   ar
    31    17    20   ar
    32    18    19   ar
    33    18    22   ar
    34    18    23    1
    35     9    10    1
    36     9    11    1
    37    10    12    1
    38    11     5    1
    39    33    34    1
    40    33    35    1
    41    34    36    1
    42    35    37    1
    43    37    43    1
    44    20    21   ar
    45    21    22   ar
@<TRIPOS>MOLECULE
UDP-glaA
 43 45 0 0 0
SMALL
GASTEIGER

@<TRIPOS>ATOM
      1 P          21.9622   70.6565   -0.9215 P.3     1  UNL1        0.2189
      2 O          23.3837   70.0001   -0.5142 O.3     1  UNL1       -0.4371
      3 O          20.8918   70.5478    0.1247 O.2     1  UNL1       -0.5170
      4 O          21.6181   69.9843   -2.3517 O.3     1  UNL1       -0.3112
      5 C          21.1036   70.8104   -3.3822 C.3     1  UNL1        0.1811
      6 O          19.0792   71.7728   -4.2484 O.3     1  UNL1       -0.3308
      7 O          17.6508   70.2217   -2.1164 O.3     1  UNL1       -0.3794
      8 O          17.2356   68.6989   -4.3401 O.3     1  UNL1       -0.3779
      9 C          18.7989   69.8575   -2.8825 C.3     1  UNL1        0.1713
     10 C          18.3952   69.5047   -4.2985 C.3     1  UNL1        0.1895
     11 C          19.6395   71.1099   -3.0934 C.3     1  UNL1        0.1764
     12 C          18.1760   70.8757   -4.9152 C.3     1  UNL1        0.2383
     13 H          17.9620   70.4764   -1.2311 H       1  UNL1        0.2105
     14 H          17.4226   67.8906   -3.8324 H       1  UNL1        0.2106
     15 O          16.2995   70.2174   -6.9204 O.2     1  UNL1       -0.2464
     16 O          19.3542   70.9800  -10.2858 O.2     1  UNL1       -0.2670
     17 N          18.4537   70.8943   -6.3230 N.ar    1  UNL1       -0.2551
     18 N          17.8220   70.5971   -8.5949 N.ar    1  UNL1       -0.2743
     19 C          17.4415   70.5455   -7.2475 C.ar    1  UNL1        0.3323
     20 C          19.7180   71.2551   -6.7754 C.ar    1  UNL1        0.0869
     21 C          20.0651   71.2999   -8.0636 C.ar    1  UNL1        0.0795
     22 C          19.0668   70.9495   -9.0932 C.ar    1  UNL1        0.2626
     23 H          17.1106   70.3498   -9.2774 H       1  UNL1        0.1734
     24 O          22.3636   72.1716   -1.3196 O.3     1  UNL1       -0.2703
     25 P          22.0009   73.5830   -0.6204 P.3     1  UNL1        0.2208
     26 O          20.4312   73.7734   -0.9611 O.3     1  UNL1       -0.4371
     27 O          22.8725   74.7270   -1.0536 O.2     1  UNL1       -0.5170
     28 O          22.0409   73.2770    0.9634 O.3     1  UNL1       -0.2858
     29 O          20.8837   75.0748    1.9774 O.3     1  UNL1       -0.3226
     30 O          21.7630   72.6542    5.2403 O.3     1  UNL1       -0.3794
     31 O          23.7355   73.0755    3.1337 O.3     1  UNL1       -0.3775
     32 O          20.2410   74.9108    4.7700 O.3     1  UNL1       -0.3792
     33 C          21.4298   72.9973    3.8981 C.3     1  UNL1        0.1718
     34 C          22.5436   73.8420    3.2702 C.3     1  UNL1        0.1968
     35 C          20.1149   73.7817    3.8993 C.3     1  UNL1        0.1723
     36 C          22.1204   74.3594    1.8898 C.3     1  UNL1        0.2706
     37 C          19.8138   74.2809    2.4878 C.3     1  UNL1        0.1830
     38 H          21.0308   72.1234    5.5978 H       1  UNL1        0.2105
     39 H          24.4068   73.6472    2.7247 H       1  UNL1        0.2106
     40 H          20.8025   75.5748    4.3353 H       1  UNL1        0.2106
     41 O          18.4519   75.7323    1.2458 O.co2   1  UNL1       -0.5466
     42 O          17.8530   75.3452    3.4111 O.co2   1  UNL1       -0.5466
     43 C          18.6054   75.1620    2.4651 C.2     1  UNL1        0.0799
@<TRIPOS>UNITY_ATOM_ATTR
41 1
charge -1
@<TRIPOS>BOND
     1     1     4    1
     2     1    24    1
     3     1     2    1
     4     1     3    2
     5    25    28    1
     6    25    24    1
     7    25    26    1
     8    25    27    2
     9     6    11    1
    10     6    12    1
    11    29    36    1
    12    29    37    1
    13     7     9    1
    14     7    13    1
    15     8    10    1
    16     8    14    1
    17     4     5    1
    18    28    36    1
    19    30    33    1
    20    30    38    1
    21    31    34    1
    22    31    39    1
    23    32    35    1
    24    32    40    1
    25    41    43   ar
    26    15    19    2
    27    42    43   ar
    28    16    22    2
    29    17    12    1
    30    17    19   ar
    31    17    20   ar
    32    18    19   ar
    33    18    22   ar
    34    18    23    1
    35     9    10    1
    36     9    11    1
    37    10    12    1
    38    11     5    1
    39    33    34    1
    40    33    35    1
    41    34    36    1
    42    35    37    1
    43    37    43    1
    44    20    21   ar
    45    21    22   ar
@<TRIPOS>MOLECULE
UDP-glaA
 43 45 0 0 0
SMALL
GASTEIGER

@<TRIPOS>ATOM
      1 P          21.9351   73.5961   -5.7821 P.3     1  UNL1        0.2189
      2 O          20.9614   74.4326   -4.7974 O.3     1  UNL1       -0.4371
      3 O          22.8230   74.4334   -6.6554 O.2     1  UNL1       -0.5170
      4 O          20.9341   72.5895   -6.5570 O.3     1  UNL1       -0.3112
      5 C          19.5583   72.9231   -6.6270 C.3     1  UNL1        0.1811
      6 O          17.6313   72.8802   -5.1920 O.3     1  UNL1       -0.3308
      7 O          18.0892   69.9245   -4.9776 O.3     1  UNL1       -0.3794
      8 O          16.0595   70.0826   -6.7918 O.3     1  UNL1       -0.3779
      9 C          18.2797   70.7891   -6.0973 C.3     1  UNL1        0.1713
     10 C          16.9434   71.1801   -6.6924 C.3     1  UNL1        0.1895
     11 C          18.7997   72.1230   -5.5777 C.3     1  UNL1        0.1764
     12 C          16.4576   72.2343   -5.7123 C.3     1  UNL1        0.2383
     13 H          18.9674   69.7329   -4.6066 H       1  UNL1        0.2105
     14 H          16.4902   69.4091   -7.3459 H       1  UNL1        0.2106
     15 O          16.6719   73.0298   -8.4135 O.2     1  UNL1       -0.2464
     16 O          13.1925   76.0232   -7.9982 O.2     1  UNL1       -0.2670
     17 N          15.6206   73.2188   -6.3364 N.ar    1  UNL1       -0.2551
     18 N          14.9395   74.5203   -8.2048 N.ar    1  UNL1       -0.2743
     19 C          15.8111   73.5469   -7.6990 C.ar    1  UNL1        0.3323
     20 C          14.6236   73.8485   -5.5996 C.ar    1  UNL1        0.0869
     21 C          13.8002   74.7742   -6.0964 C.ar    1  UNL1        0.0795
     22 C          13.9333   75.1747   -7.5112 C.ar    1  UNL1        0.2626
     23 H          15.0585   74.7724   -9.1822 H       1  UNL1        0.1734
     24 O          22.7219   72.6147   -4.7658 O.3     1  UNL1       -0.2703
     25 P          22.1771   71.6478   -3.5906 P.3     1  UNL1        0.2208
     26 O          23.4985   70.8316   -3.1391 O.3     1  UNL1       -0.4371
     27 O          21.0198   70.7797   -3.9941 O.2     1  UNL1       -0.5170
     28 O          21.8678   72.6395   -2.3557 O.3     1  UNL1       -0.2858
     29 O          21.2346   71.0962   -0.6774 O.3     1  UNL1       -0.3226
     30 O          21.5685   74.6362    1.4758 O.3     1  UNL1       -0.3794
     31 O          20.3536   74.6237   -1.1755 O.3     1  UNL1       -0.3775
     32 O          21.1965   71.9619    2.0590 O.3     1  UNL1       -0.3792
     33 C          21.8559   73.6629    0.4756 C.3     1  UNL1        0.1718
     34 C          20.6358   73.4467   -0.4260 C.3     1  UNL1        0.1968
     35 C          22.2412   72.3484    1.1599 C.3     1  UNL1        0.1723
     36 C          20.8757   72.2819   -1.3945 C.3     1  UNL1        0.2706
     37 C          22.4147   71.2543    0.1088 C.3     1  UNL1        0.1830
     38 H          22.3657   74.7386    2.0231 H       1  UNL1        0.2105
     39 H          19.5821   74.4364   -1.7364 H       1  UNL1        0.2106
     40 H          20.4445   71.6354    1.5365 H       1  UNL1        0.2106
     41 O          23.3205   70.0670    1.9181 O.co2   1  UNL1       -0.5466
     42 O          22.3241   68.8469    0.2703 O.co2   1  UNL1       -0.5466
     43 C          22.6645   69.9223    0.7415 C.2     1  UNL1        0.0799
@<TRIPOS>UNITY_ATOM_ATTR
41 1
charge -1
@<TRIPOS>BOND
     1     1     4    1
     2     1    24    1
     3     1     2    1
     4     1     3    2
     5    25    28    1
     6    25    24    1
     7    25    26    1
     8    25    27    2
     9     6    11    1
    10     6    12    1
    11    29    36    1
    12    29    37    1
    13     7     9    1
    14     7    13    1
    15     8    10    1
    16     8    14    1
    17     4     5    1
    18    28    36    1
    19    30    33    1
    20    30    38    1
    21    31    34    1
    22    31    39    1
    23    32    35    1
    24    32    40    1
    25    41    43   ar
    26    15    19    2
    27    42    43   ar
    28    16    22    2
    29    17    12    1
    30    17    19   ar
    31    17    20   ar
    32    18    19   ar
    33    18    22   ar
    34    18    23    1
    35     9    10    1
    36     9    11    1
    37    10    12    1
    38    11     5    1
    39    33    34    1
    40    33    35    1
    41    34    36    1
    42    35    37    1
    43    37    43    1
    44    20    21   ar
    45    21    22   ar
@<TRIPOS>MOLECULE
UDP-glaA
 43 45 0 0 0
SMALL
GASTEIGER

@<TRIPOS>ATOM
      1 P          21.6817   73.5379   -5.7513 P.3     1  UNL1        0.2189
      2 O          21.1959   74.9354   -6.4058 O.3     1  UNL1       -0.4371
      3 O          22.5501   72.6925   -6.6363 O.2     1  UNL1       -0.5170
      4 O          20.3099   72.8469   -5.2453 O.3     1  UNL1       -0.3112
      5 C          20.3476   71.4932   -4.8265 C.3     1  UNL1        0.1811
      6 O          18.1512   72.1475   -4.1039 O.3     1  UNL1       -0.3308
      7 O          18.0959   69.5758   -2.5630 O.3     1  UNL1       -0.3794
      8 O          16.6022   68.9823   -4.7658 O.3     1  UNL1       -0.3779
      9 C          18.6744   69.8522   -3.8384 C.3     1  UNL1        0.1713
     10 C          17.5918   69.9828   -4.8889 C.3     1  UNL1        0.1895
     11 C          19.2504   71.2615   -3.7974 C.3     1  UNL1        0.1764
     12 C          17.0513   71.3757   -4.6137 C.3     1  UNL1        0.2383
     13 H          18.8219   69.5396   -1.9171 H       1  UNL1        0.2105
     14 H          17.0459   68.1204   -4.8456 H       1  UNL1        0.2106
     15 O          17.6945   70.5878   -7.2482 O.2     1  UNL1       -0.2464
     16 O          15.0461   73.8864   -9.0767 O.2     1  UNL1       -0.2670
     17 N          16.5438   72.0104   -5.7965 N.ar    1  UNL1       -0.2551
     18 N          16.3757   72.2312   -8.1570 N.ar    1  UNL1       -0.2743
     19 C          16.9297   71.5380   -7.0727 C.ar    1  UNL1        0.3323
     20 C          15.6736   73.0892   -5.6853 C.ar    1  UNL1        0.0869
     21 C          15.1536   73.7393   -6.7287 C.ar    1  UNL1        0.0795
     22 C          15.5065   73.3095   -8.0963 C.ar    1  UNL1        0.2626
     23 H          16.6396   71.9093   -9.0843 H       1  UNL1        0.1734
     24 O          22.3818   74.0081   -4.3714 O.3     1  UNL1       -0.2703
     25 P          23.4744   73.2743   -3.4332 P.3     1  UNL1        0.2208
     26 O          24.8341   74.0972   -3.7335 O.3     1  UNL1       -0.4371
     27 O          23.5837   71.7932   -3.6576 O.2     1  UNL1       -0.5170
     28 O          23.0680   73.6923   -1.9285 O.3     1  UNL1       -0.2858
     29 O          21.7667   71.9255   -1.0428 O.3     1  UNL1       -0.3226
     30 O          21.8918   74.5958    2.1405 O.3     1  UNL1       -0.3794
     31 O          21.5381   75.5600   -0.5891 O.3     1  UNL1       -0.3775
     32 O          21.0205   72.0072    1.7277 O.3     1  UNL1       -0.3792
     33 C          22.3384   73.8908    0.9856 C.3     1  UNL1        0.1718
     34 C          21.4281   74.1922   -0.2097 C.3     1  UNL1        0.1968
     35 C          22.3276   72.3896    1.2868 C.3     1  UNL1        0.1723
     36 C          21.7956   73.3091   -1.4086 C.3     1  UNL1        0.2706
     37 C          22.6662   71.6092    0.0186 C.3     1  UNL1        0.1830
     38 H          22.4941   74.3737    2.8709 H       1  UNL1        0.2105
     39 H          20.9533   75.7006   -1.3527 H       1  UNL1        0.2106
     40 H          20.4246   72.0026    0.9596 H       1  UNL1        0.2106
     41 O          23.7365   69.5219    0.0583 O.co2   1  UNL1       -0.5466
     42 O          21.5063   69.5543    0.5300 O.co2   1  UNL1       -0.5466
     43 C          22.5407   70.1344    0.2336 C.2     1  UNL1        0.0799
@<TRIPOS>UNITY_ATOM_ATTR
41 1
charge -1
@<TRIPOS>BOND
     1     1     4    1
     2     1    24    1
     3     1     2    1
     4     1     3    2
     5    25    28    1
     6    25    24    1
     7    25    26    1
     8    25    27    2
     9     6    11    1
    10     6    12    1
    11    29    36    1
    12    29    37    1
    13     7     9    1
    14     7    13    1
    15     8    10    1
    16     8    14    1
    17     4     5    1
    18    28    36    1
    19    30    33    1
    20    30    38    1
    21    31    34    1
    22    31    39    1
    23    32    35    1
    24    32    40    1
    25    41    43   ar
    26    15    19    2
    27    42    43   ar
    28    16    22    2
    29    17    12    1
    30    17    19   ar
    31    17    20   ar
    32    18    19   ar
    33    18    22   ar
    34    18    23    1
    35     9    10    1
    36     9    11    1
    37    10    12    1
    38    11     5    1
    39    33    34    1
    40    33    35    1
    41    34    36    1
    42    35    37    1
    43    37    43    1
    44    20    21   ar
    45    21    22   ar
