@<TRIPOS>MOLECULE
*****
 43 45 0 0 0
SMALL
GASTEIGER

@<TRIPOS>ATOM
      1 P          22.8687   71.6147   -3.2053 P.3     1  UNL1        0.2189
      2 O          22.4124   72.2494   -4.6218 O.co2   1  UNL1       -0.4371
      3 O          24.2043   70.9312   -3.2179 O.2     1  UNL1       -0.5170
      4 O          21.6120   70.6934   -2.7697 O.3     1  UNL1       -0.3112
      5 C          20.7473   70.2071   -3.7814 C.3     1  UNL1        0.1811
      6 O          18.9018   71.4332   -4.7114 O.3     1  UNL1       -0.3308
      7 O          17.2305   70.1868   -2.5564 O.3     1  UNL1       -0.3794
      8 O          16.6163   68.6694   -4.7374 O.3     1  UNL1       -0.3779
      9 C          18.3188   69.6284   -3.2907 C.3     1  UNL1        0.1713
     10 C          17.8838   69.2930   -4.7020 C.3     1  UNL1        0.1895
     11 C          19.3413   70.7330   -3.5269 C.3     1  UNL1        0.1764
     12 C          17.8813   70.6604   -5.3642 C.3     1  UNL1        0.2383
     13 H          16.5646   69.4998   -2.3931 H       1  UNL1        0.2105
     14 H          16.6698   67.8033   -4.3041 H       1  UNL1        0.2106
     15 O          15.9621   70.1569   -7.3744 O.2     1  UNL1       -0.2464
     16 O          19.1266   70.4104  -10.7155 O.2     1  UNL1       -0.2670
     17 N          18.1760   70.5897   -6.7676 N.ar    1  UNL1       -0.2551
     18 N          17.5393   70.2837   -9.0364 N.ar    1  UNL1       -0.2743
     19 C          17.1398   70.3306   -7.6947 C.ar    1  UNL1        0.3323
     20 C          19.4804   70.7768   -7.2121 C.ar    1  UNL1        0.0869
     21 C          19.8451   70.7277   -8.4950 C.ar    1  UNL1        0.0795
     22 C          18.8229   70.4618   -9.5277 C.ar    1  UNL1        0.2626
     23 H          16.8343   70.1041   -9.7002 H       1  UNL1        0.1734
     24 O          22.7657   72.8714   -2.1939 O.3     1  UNL1       -0.2703
     25 P          22.8756   72.9494   -0.5830 P.3     1  UNL1        0.2208
     26 O          21.3600   72.6649   -0.0935 O.co2   1  UNL1       -0.4371
     27 O          23.4624   74.2316   -0.0677 O.2     1  UNL1       -0.5170
     28 O          23.6948   71.6232   -0.1648 O.3     1  UNL1       -0.2858
     29 O          24.6234   72.1934    1.9398 O.3     1  UNL1       -0.3258
     30 O          20.6195   72.2498    2.9481 O.3     1  UNL1       -0.3794
     31 O          22.0616   74.7237    2.7296 O.3     1  UNL1       -0.3794
     32 O          21.6205   70.2389    1.1222 O.3     1  UNL1       -0.3775
     33 C          21.7507   72.4390    2.0938 C.3     1  UNL1        0.1715
     34 C          22.6911   73.4458    2.7593 C.3     1  UNL1        0.1694
     35 C          22.4541   71.0980    1.8926 C.3     1  UNL1        0.1967
     36 C          24.0447   73.5000    2.0381 C.3     1  UNL1        0.1761
     37 C          23.8128   71.2696    1.2108 C.3     1  UNL1        0.2704
     38 H          20.1681   73.0974    3.0796 H       1  UNL1        0.2105
     39 H          21.2078   74.6757    3.1877 H       1  UNL1        0.2105
     40 H          20.7637   70.1381    1.5645 H       1  UNL1        0.2106
     41 O          24.9092   75.7102    2.3152 O.3     1  UNL1       -0.3794
     42 C          25.0514   74.3793    2.7767 C.3     1  UNL1        0.1693
     43 H          25.5436   76.2813    2.7769 H       1  UNL1        0.2105
@<TRIPOS>UNITY_ATOM_ATTR
2 1
charge -1
26 1
charge -1
@<TRIPOS>BOND
     1    25    28    1
     2    25    24    1
     3    25    26    1
     4    25    27    2
     5     1     4    1
     6     1    24    1
     7     1     2    1
     8     1     3    2
     9     6    11    1
    10     6    12    1
    11    29    36    1
    12    29    37    1
    13     7     9    1
    14     7    13    1
    15     8    10    1
    16     8    14    1
    17    28    37    1
    18     4     5    1
    19    30    33    1
    20    30    38    1
    21    31    34    1
    22    31    39    1
    23    32    35    1
    24    32    40    1
    25    41    42    1
    26    41    43    1
    27    15    19    2
    28    16    22    2
    29    17    12    1
    30    17    19   ar
    31    17    20   ar
    32    18    19   ar
    33    18    22   ar
    34    18    23    1
    35     9    10    1
    36     9    11    1
    37    10    12    1
    38    11     5    1
    39    33    34    1
    40    33    35    1
    41    34    36    1
    42    35    37    1
    43    36    42    1
    44    20    21   ar
    45    21    22   ar
@<TRIPOS>MOLECULE
*****
 43 45 0 0 0
SMALL
GASTEIGER

@<TRIPOS>ATOM
      1 P          20.8048   71.5168   -3.6078 P.3     1  UNL1        0.2189
      2 O          21.0438   72.5044   -4.8667 O.co2   1  UNL1       -0.4371
      3 O          21.0138   70.0593   -3.8970 O.2     1  UNL1       -0.5170
      4 O          19.3338   71.9224   -3.0697 O.3     1  UNL1       -0.3112
      5 C          18.5129   72.7332   -3.8922 C.3     1  UNL1        0.1811
      6 O          16.7365   72.0670   -5.3668 O.3     1  UNL1       -0.3308
      7 O          15.7411   70.3757   -3.0998 O.3     1  UNL1       -0.3794
      8 O          17.0085   68.5561   -4.6870 O.3     1  UNL1       -0.3779
      9 C          17.0830   70.6684   -3.4855 C.3     1  UNL1        0.1713
     10 C          17.4510   69.8972   -4.7358 C.3     1  UNL1        0.1895
     11 C          17.1262   72.1100   -3.9767 C.3     1  UNL1        0.1764
     12 C          16.7551   70.7033   -5.8194 C.3     1  UNL1        0.2383
     13 H          15.6885   69.4601   -2.7821 H       1  UNL1        0.2105
     14 H          17.4804   68.0853   -3.9824 H       1  UNL1        0.2106
     15 O          15.4767   70.6469   -8.3374 O.2     1  UNL1       -0.2464
     16 O          19.4987   70.4544  -10.5797 O.2     1  UNL1       -0.2670
     17 N          17.4438   70.6389   -7.0775 N.ar    1  UNL1       -0.2551
     18 N          17.4804   70.5512   -9.4518 N.ar    1  UNL1       -0.2743
     19 C          16.7079   70.6142   -8.2851 C.ar    1  UNL1        0.3323
     20 C          18.8337   70.6013   -7.1056 C.ar    1  UNL1        0.0869
     21 C          19.5554   70.5401   -8.2266 C.ar    1  UNL1        0.0795
     22 C          18.8634   70.5106   -9.5313 C.ar    1  UNL1        0.2626
     23 H          16.9892   70.5326  -10.3052 H       1  UNL1        0.1734
     24 O          21.7861   72.1257   -2.4768 O.3     1  UNL1       -0.2703
     25 P          23.3794   71.9661   -2.2561 P.3     1  UNL1        0.2208
     26 O          23.9502   73.4422   -2.5917 O.co2   1  UNL1       -0.4371
     27 O          24.0045   70.8629   -3.0599 O.2     1  UNL1       -0.5170
     28 O          23.5574   71.8136   -0.6592 O.3     1  UNL1       -0.2858
     29 O          22.4292   73.7429    0.1293 O.3     1  UNL1       -0.3258
     30 O          23.2264   71.9199    3.7475 O.3     1  UNL1       -0.3794
     31 O          20.5387   71.9485    2.7359 O.3     1  UNL1       -0.3794
     32 O          25.1905   71.8324    1.6229 O.3     1  UNL1       -0.3775
     33 C          22.9000   71.9663    2.3559 C.3     1  UNL1        0.1715
     34 C          21.5914   72.7425    2.1958 C.3     1  UNL1        0.1694
     35 C          24.0323   72.6597    1.6005 C.3     1  UNL1        0.1967
     36 C          21.3151   73.0645    0.7210 C.3     1  UNL1        0.1761
     37 C          23.6364   72.9788    0.1578 C.3     1  UNL1        0.2704
     38 H          22.5117   71.4803    4.2328 H       1  UNL1        0.2105
     39 H          20.7256   71.7518    3.6674 H       1  UNL1        0.2105
     40 H          25.4311   71.6378    2.5417 H       1  UNL1        0.2106
     41 O          19.7299   73.9796   -0.8148 O.3     1  UNL1       -0.3794
     42 C          20.0989   73.9725    0.5520 C.3     1  UNL1        0.1693
     43 H          18.9569   74.5533   -0.9374 H       1  UNL1        0.2105
@<TRIPOS>UNITY_ATOM_ATTR
2 1
charge -1
26 1
charge -1
@<TRIPOS>BOND
     1    25    28    1
     2    25    24    1
     3    25    26    1
     4    25    27    2
     5     1     4    1
     6     1    24    1
     7     1     2    1
     8     1     3    2
     9     6    11    1
    10     6    12    1
    11    29    36    1
    12    29    37    1
    13     7     9    1
    14     7    13    1
    15     8    10    1
    16     8    14    1
    17    28    37    1
    18     4     5    1
    19    30    33    1
    20    30    38    1
    21    31    34    1
    22    31    39    1
    23    32    35    1
    24    32    40    1
    25    41    42    1
    26    41    43    1
    27    15    19    2
    28    16    22    2
    29    17    12    1
    30    17    19   ar
    31    17    20   ar
    32    18    19   ar
    33    18    22   ar
    34    18    23    1
    35     9    10    1
    36     9    11    1
    37    10    12    1
    38    11     5    1
    39    33    34    1
    40    33    35    1
    41    34    36    1
    42    35    37    1
    43    36    42    1
    44    20    21   ar
    45    21    22   ar
@<TRIPOS>MOLECULE
*****
 43 45 0 0 0
SMALL
GASTEIGER

@<TRIPOS>ATOM
      1 P          20.2589   72.0801   -1.5137 P.3     1  UNL1        0.2189
      2 O          19.2547   70.9147   -1.0129 O.co2   1  UNL1       -0.4371
      3 O          19.6368   73.4391   -1.6461 O.2     1  UNL1       -0.5170
      4 O          20.9160   71.4737   -2.8621 O.3     1  UNL1       -0.3112
      5 C          20.1170   70.6479   -3.6913 C.3     1  UNL1        0.1811
      6 O          18.3710   71.7667   -4.9051 O.3     1  UNL1       -0.3308
      7 O          16.4763   70.5725   -2.9114 O.3     1  UNL1       -0.3794
      8 O          16.1802   68.9319   -5.0695 O.3     1  UNL1       -0.3779
      9 C          17.6623   70.0149   -3.4752 C.3     1  UNL1        0.1713
     10 C          17.4164   69.5975   -4.9101 C.3     1  UNL1        0.1895
     11 C          18.6769   71.1394   -3.6405 C.3     1  UNL1        0.1764
     12 C          17.4610   70.9302   -5.6380 C.3     1  UNL1        0.2383
     13 H          15.8135   69.8730   -2.7961 H       1  UNL1        0.2105
     14 H          16.2017   68.0900   -4.5883 H       1  UNL1        0.2106
     15 O          15.8201   70.2801   -7.8432 O.2     1  UNL1       -0.2464
     16 O          19.3727   70.4610  -10.7736 O.2     1  UNL1       -0.2670
     17 N          17.9308   70.8013   -6.9885 N.ar    1  UNL1       -0.2551
     18 N          17.5903   70.3709   -9.3005 N.ar    1  UNL1       -0.2743
     19 C          17.0247   70.4704   -8.0229 C.ar    1  UNL1        0.3323
     20 C          19.2764   71.0025   -7.2763 C.ar    1  UNL1        0.0869
     21 C          19.8002   70.9026   -8.4998 C.ar    1  UNL1        0.0795
     22 C          18.9214   70.5604   -9.6368 C.ar    1  UNL1        0.2626
     23 H          16.9782   70.1410  -10.0368 H       1  UNL1        0.1734
     24 O          21.4723   71.9966   -0.4489 O.3     1  UNL1       -0.2703
     25 P          21.4774   71.6482    1.1295 P.3     1  UNL1        0.2208
     26 O          21.6639   70.0413    1.1542 O.co2   1  UNL1       -0.4371
     27 O          20.2705   72.1430    1.8729 O.2     1  UNL1       -0.5170
     28 O          22.8819   72.2299    1.6718 O.3     1  UNL1       -0.2858
     29 O          24.5463   73.5631    0.6379 O.3     1  UNL1       -0.3258
     30 O          26.9835   71.0032    2.7728 O.3     1  UNL1       -0.3794
     31 O          26.7020   73.7318    3.6234 O.3     1  UNL1       -0.3794
     32 O          24.5744   69.9964    1.5229 O.3     1  UNL1       -0.3775
     33 C          25.8167   71.7951    2.5342 C.3     1  UNL1        0.1715
     34 C          26.2529   73.2511    2.3595 C.3     1  UNL1        0.1694
     35 C          25.1185   71.2880    1.2738 C.3     1  UNL1        0.1967
     36 C          25.0977   74.1167    1.8384 C.3     1  UNL1        0.1761
     37 C          24.0190   72.2466    0.8127 C.3     1  UNL1        0.2704
     38 H          27.4312   71.3196    3.5721 H       1  UNL1        0.2105
     39 H          27.4310   73.1763    3.9415 H       1  UNL1        0.2105
     40 H          25.2803   69.3989    1.8138 H       1  UNL1        0.2106
     41 O          24.5964   76.1235    0.6425 O.3     1  UNL1       -0.3794
     42 C          25.5514   75.5368    1.5074 C.3     1  UNL1        0.1693
     43 H          24.8719   77.0279    0.4236 H       1  UNL1        0.2105
@<TRIPOS>UNITY_ATOM_ATTR
2 1
charge -1
26 1
charge -1
@<TRIPOS>BOND
     1    25    28    1
     2    25    24    1
     3    25    26    1
     4    25    27    2
     5     1     4    1
     6     1    24    1
     7     1     2    1
     8     1     3    2
     9     6    11    1
    10     6    12    1
    11    29    36    1
    12    29    37    1
    13     7     9    1
    14     7    13    1
    15     8    10    1
    16     8    14    1
    17    28    37    1
    18     4     5    1
    19    30    33    1
    20    30    38    1
    21    31    34    1
    22    31    39    1
    23    32    35    1
    24    32    40    1
    25    41    42    1
    26    41    43    1
    27    15    19    2
    28    16    22    2
    29    17    12    1
    30    17    19   ar
    31    17    20   ar
    32    18    19   ar
    33    18    22   ar
    34    18    23    1
    35     9    10    1
    36     9    11    1
    37    10    12    1
    38    11     5    1
    39    33    34    1
    40    33    35    1
    41    34    36    1
    42    35    37    1
    43    36    42    1
    44    20    21   ar
    45    21    22   ar
@<TRIPOS>MOLECULE
*****
 43 45 0 0 0
SMALL
GASTEIGER

@<TRIPOS>ATOM
      1 P          21.0922   71.5378   -1.4131 P.3     1  UNL1        0.2189
      2 O          22.6349   71.0507   -1.4283 O.co2   1  UNL1       -0.4371
      3 O          20.1434   70.6157   -0.7052 O.2     1  UNL1       -0.5170
      4 O          20.7608   71.8268   -2.9701 O.3     1  UNL1       -0.3112
      5 C          19.9931   70.8750   -3.6860 C.3     1  UNL1        0.1811
      6 O          18.1992   71.8680   -4.9388 O.3     1  UNL1       -0.3308
      7 O          16.3568   70.6372   -2.9185 O.3     1  UNL1       -0.3794
      8 O          16.1558   68.9219   -5.0290 O.3     1  UNL1       -0.3779
      9 C          17.5725   70.1245   -3.4612 C.3     1  UNL1        0.1713
     10 C          17.3558   69.6539   -4.8842 C.3     1  UNL1        0.1895
     11 C          18.5297   71.2939   -3.6552 C.3     1  UNL1        0.1764
     12 C          17.3366   70.9656   -5.6505 C.3     1  UNL1        0.2383
     13 H          15.7297   69.9085   -2.7854 H       1  UNL1        0.2105
     14 H          16.2173   68.0965   -4.5234 H       1  UNL1        0.2106
     15 O          15.7124   70.3197   -7.8692 O.2     1  UNL1       -0.2464
     16 O          19.2988   70.4381  -10.7614 O.2     1  UNL1       -0.2670
     17 N          17.8197   70.8217   -6.9949 N.ar    1  UNL1       -0.2551
     18 N          17.4994   70.3794   -9.3075 N.ar    1  UNL1       -0.2743
     19 C          16.9211   70.4944   -8.0369 C.ar    1  UNL1        0.3323
     20 C          19.1706   71.0049   -7.2691 C.ar    1  UNL1        0.0869
     21 C          19.7065   70.8903   -8.4861 C.ar    1  UNL1        0.0795
     22 C          18.8362   70.5507   -9.6303 C.ar    1  UNL1        0.2626
     23 H          16.8926   70.1517  -10.0489 H       1  UNL1        0.1734
     24 O          21.1859   73.0221   -0.7799 O.3     1  UNL1       -0.2703
     25 P          22.1485   74.2703   -1.1384 P.3     1  UNL1        0.2208
     26 O          21.1158   75.5083   -1.2740 O.co2   1  UNL1       -0.4371
     27 O          23.0155   74.0521   -2.3445 O.2     1  UNL1       -0.5170
     28 O          22.9608   74.5644    0.2249 O.3     1  UNL1       -0.2858
     29 O          23.1465   72.5601    1.4758 O.3     1  UNL1       -0.3258
     30 O          24.7623   75.1973    4.2116 O.3     1  UNL1       -0.3794
     31 O          26.4803   73.3540    2.8337 O.3     1  UNL1       -0.3794
     32 O          22.5028   76.0021    2.5910 O.3     1  UNL1       -0.3775
     33 C          24.4892   74.6773    2.9076 C.3     1  UNL1        0.1715
     34 C          25.0586   73.2595    2.8279 C.3     1  UNL1        0.1694
     35 C          22.9785   74.6635    2.6820 C.3     1  UNL1        0.1967
     36 C          24.5762   72.5392    1.5616 C.3     1  UNL1        0.1761
     37 C          22.6026   73.8804    1.4228 C.3     1  UNL1        0.2704
     38 H          25.7199   75.2092    4.3611 H       1  UNL1        0.2105
     39 H          26.7719   73.8112    3.6382 H       1  UNL1        0.2105
     40 H          22.7468   76.4872    3.3941 H       1  UNL1        0.2106
     41 O          23.8717   70.2803    1.2300 O.3     1  UNL1       -0.3794
     42 C          25.0029   71.0731    1.5398 C.3     1  UNL1        0.1693
     43 H          24.1284   69.3446    1.2124 H       1  UNL1        0.2105
@<TRIPOS>UNITY_ATOM_ATTR
2 1
charge -1
26 1
charge -1
@<TRIPOS>BOND
     1    25    28    1
     2    25    24    1
     3    25    26    1
     4    25    27    2
     5     1     4    1
     6     1    24    1
     7     1     2    1
     8     1     3    2
     9     6    11    1
    10     6    12    1
    11    29    36    1
    12    29    37    1
    13     7     9    1
    14     7    13    1
    15     8    10    1
    16     8    14    1
    17    28    37    1
    18     4     5    1
    19    30    33    1
    20    30    38    1
    21    31    34    1
    22    31    39    1
    23    32    35    1
    24    32    40    1
    25    41    42    1
    26    41    43    1
    27    15    19    2
    28    16    22    2
    29    17    12    1
    30    17    19   ar
    31    17    20   ar
    32    18    19   ar
    33    18    22   ar
    34    18    23    1
    35     9    10    1
    36     9    11    1
    37    10    12    1
    38    11     5    1
    39    33    34    1
    40    33    35    1
    41    34    36    1
    42    35    37    1
    43    36    42    1
    44    20    21   ar
    45    21    22   ar
@<TRIPOS>MOLECULE
*****
 43 45 0 0 0
SMALL
GASTEIGER

@<TRIPOS>ATOM
      1 P          21.9291   72.4522   -5.8833 P.3     1  UNL1        0.2189
      2 O          21.2537   73.8483   -5.4227 O.co2   1  UNL1       -0.4371
      3 O          23.1075   72.5908   -6.8017 O.2     1  UNL1       -0.5170
      4 O          20.6865   71.5911   -6.4597 O.3     1  UNL1       -0.3112
      5 C          20.1560   71.9352   -7.7278 C.3     1  UNL1        0.1811
      6 O          18.9484   69.9145   -7.2457 O.3     1  UNL1       -0.3308
      7 O          18.0697   69.9775  -10.1118 O.3     1  UNL1       -0.3794
      8 O          15.8867   70.9513   -8.7994 O.3     1  UNL1       -0.3779
      9 C          18.2807   71.0616   -9.2089 C.3     1  UNL1        0.1713
     10 C          17.1534   71.1327   -8.2000 C.3     1  UNL1        0.1895
     11 C          19.4742   70.7133   -8.3282 C.3     1  UNL1        0.1764
     12 C          17.5145   70.0082   -7.2444 C.3     1  UNL1        0.2383
     13 H          17.3125   70.1771  -10.6851 H       1  UNL1        0.2105
     14 H          15.7030   71.6919   -9.3981 H       1  UNL1        0.2106
     15 O          16.1965   68.1132   -5.6166 O.2     1  UNL1       -0.2464
     16 O          15.8344   71.0955   -2.1214 O.2     1  UNL1       -0.2670
     17 N          17.0651   70.2626   -5.9047 N.ar    1  UNL1       -0.2551
     18 N          16.0174   69.5997   -3.8775 N.ar    1  UNL1       -0.2743
     19 C          16.4128   69.2429   -5.1731 C.ar    1  UNL1        0.3323
     20 C          17.2728   71.5115   -5.3294 C.ar    1  UNL1        0.0869
     21 C          16.8885   71.8361   -4.0932 C.ar    1  UNL1        0.0795
     22 C          16.2001   70.8278   -3.2618 C.ar    1  UNL1        0.2626
     23 H          15.5607   68.9054   -3.3492 H       1  UNL1        0.1734
     24 O          22.2541   71.7243   -4.4770 O.3     1  UNL1       -0.2703
     25 P          23.4132   71.9967   -3.3837 P.3     1  UNL1        0.2208
     26 O          24.3384   73.1171   -4.0951 O.co2   1  UNL1       -0.4371
     27 O          24.1542   70.7643   -2.9525 O.2     1  UNL1       -0.5170
     28 O          22.6690   72.7829   -2.1866 O.3     1  UNL1       -0.2858
     29 O          23.3871   74.2953   -0.5093 O.3     1  UNL1       -0.3258
     30 O          20.8877   71.9241    1.7669 O.3     1  UNL1       -0.3794
     31 O          20.0726   74.5901    1.0770 O.3     1  UNL1       -0.3794
     32 O          22.5444   70.7255   -0.2822 O.3     1  UNL1       -0.3775
     33 C          21.3167   72.6072    0.5859 C.3     1  UNL1        0.1715
     34 C          21.3997   74.1022    0.9001 C.3     1  UNL1        0.1694
     35 C          22.6836   72.0692    0.1668 C.3     1  UNL1        0.1967
     36 C          22.1042   74.8672   -0.2285 C.3     1  UNL1        0.1761
     37 C          23.3185   72.9304   -0.9266 C.3     1  UNL1        0.2704
     38 H          20.0201   72.2606    2.0380 H       1  UNL1        0.2105
     39 H          19.6387   74.0985    1.7920 H       1  UNL1        0.2105
     40 H          22.1416   70.1906    0.4189 H       1  UNL1        0.2106
     41 O          21.5606   77.1386   -0.7324 O.3     1  UNL1       -0.3794
     42 C          22.3384   76.3323    0.1331 C.3     1  UNL1        0.1693
     43 H          21.6994   78.0739   -0.5137 H       1  UNL1        0.2105
@<TRIPOS>UNITY_ATOM_ATTR
2 1
charge -1
26 1
charge -1
@<TRIPOS>BOND
     1    25    28    1
     2    25    24    1
     3    25    26    1
     4    25    27    2
     5     1     4    1
     6     1    24    1
     7     1     2    1
     8     1     3    2
     9     6    11    1
    10     6    12    1
    11    29    36    1
    12    29    37    1
    13     7     9    1
    14     7    13    1
    15     8    10    1
    16     8    14    1
    17    28    37    1
    18     4     5    1
    19    30    33    1
    20    30    38    1
    21    31    34    1
    22    31    39    1
    23    32    35    1
    24    32    40    1
    25    41    42    1
    26    41    43    1
    27    15    19    2
    28    16    22    2
    29    17    12    1
    30    17    19   ar
    31    17    20   ar
    32    18    19   ar
    33    18    22   ar
    34    18    23    1
    35     9    10    1
    36     9    11    1
    37    10    12    1
    38    11     5    1
    39    33    34    1
    40    33    35    1
    41    34    36    1
    42    35    37    1
    43    36    42    1
    44    20    21   ar
    45    21    22   ar
@<TRIPOS>MOLECULE
*****
 43 45 0 0 0
SMALL
GASTEIGER

@<TRIPOS>ATOM
      1 P          20.4684   73.2754   -3.3575 P.3     1  UNL1        0.2189
      2 O          19.9836   72.9540   -1.8479 O.co2   1  UNL1       -0.4371
      3 O          20.2183   74.6814   -3.8178 O.2     1  UNL1       -0.5170
      4 O          19.7759   72.1122   -4.2437 O.3     1  UNL1       -0.3112
      5 C          19.0854   71.0722   -3.5735 C.3     1  UNL1        0.1811
      6 O          17.3839   71.7349   -5.1354 O.3     1  UNL1       -0.3308
      7 O          15.4546   70.2697   -3.3685 O.3     1  UNL1       -0.3794
      8 O          15.8642   68.4971   -5.4000 O.3     1  UNL1       -0.3779
      9 C          16.8064   69.9472   -3.6910 C.3     1  UNL1        0.1713
     10 C          16.8970   69.4157   -5.1062 C.3     1  UNL1        0.1895
     11 C          17.5889   71.2507   -3.7901 C.3     1  UNL1        0.1764
     12 C          16.7977   70.6895   -5.9281 C.3     1  UNL1        0.2383
     13 H          14.9351   69.4528   -3.2995 H       1  UNL1        0.2105
     14 H          15.9712   67.7040   -4.8520 H       1  UNL1        0.2106
     15 O          15.5765   70.7970   -8.4727 O.2     1  UNL1       -0.2464
     16 O          19.6178   70.3143  -10.6351 O.2     1  UNL1       -0.2670
     17 N          17.5069   70.5948   -7.1729 N.ar    1  UNL1       -0.2551
     18 N          17.5897   70.5567   -9.5474 N.ar    1  UNL1       -0.2743
     19 C          16.7990   70.6591   -8.3957 C.ar    1  UNL1        0.3323
     20 C          18.8890   70.4404   -7.1730 C.ar    1  UNL1        0.0869
     21 C          19.6282   70.3430   -8.2800 C.ar    1  UNL1        0.0795
     22 C          18.9659   70.4010   -9.5991 C.ar    1  UNL1        0.2626
     23 H          17.1182   70.5986  -10.4109 H       1  UNL1        0.1734
     24 O          22.0252   72.8403   -3.3396 O.3     1  UNL1       -0.2703
     25 P          22.7598   71.5511   -2.6984 P.3     1  UNL1        0.2208
     26 O          24.2262   71.5819   -3.3810 O.co2   1  UNL1       -0.4371
     27 O          22.0155   70.2611   -2.8879 O.2     1  UNL1       -0.5170
     28 O          23.0192   71.9534   -1.1570 O.3     1  UNL1       -0.2858
     29 O          24.2612   71.0501    0.6481 O.3     1  UNL1       -0.3258
     30 O          20.7196   71.8456    2.6167 O.3     1  UNL1       -0.3794
     31 O          23.0221   73.4862    3.1218 O.3     1  UNL1       -0.3794
     32 O          20.6688   70.8439   -0.0987 O.3     1  UNL1       -0.3775
     33 C          21.7592   72.0743    1.6615 C.3     1  UNL1        0.1715
     34 C          23.0770   72.2478    2.4192 C.3     1  UNL1        0.1694
     35 C          21.8375   70.8793    0.7132 C.3     1  UNL1        0.1967
     36 C          24.2743   72.2305    1.4594 C.3     1  UNL1        0.1761
     37 C          23.0903   70.9346   -0.1628 C.3     1  UNL1        0.2704
     38 H          20.6643   72.6010    3.2215 H       1  UNL1        0.2105
     39 H          22.2615   73.4842    3.7240 H       1  UNL1        0.2105
     40 H          19.8827   70.8087    0.4676 H       1  UNL1        0.2106
     41 O          26.0952   70.9169    2.2765 O.3     1  UNL1       -0.3794
     42 C          25.6062   72.2437    2.2063 C.3     1  UNL1        0.1693
     43 H          26.9427   70.9099    2.7491 H       1  UNL1        0.2105
@<TRIPOS>UNITY_ATOM_ATTR
2 1
charge -1
26 1
charge -1
@<TRIPOS>BOND
     1    25    28    1
     2    25    24    1
     3    25    26    1
     4    25    27    2
     5     1     4    1
     6     1    24    1
     7     1     2    1
     8     1     3    2
     9     6    11    1
    10     6    12    1
    11    29    36    1
    12    29    37    1
    13     7     9    1
    14     7    13    1
    15     8    10    1
    16     8    14    1
    17    28    37    1
    18     4     5    1
    19    30    33    1
    20    30    38    1
    21    31    34    1
    22    31    39    1
    23    32    35    1
    24    32    40    1
    25    41    42    1
    26    41    43    1
    27    15    19    2
    28    16    22    2
    29    17    12    1
    30    17    19   ar
    31    17    20   ar
    32    18    19   ar
    33    18    22   ar
    34    18    23    1
    35     9    10    1
    36     9    11    1
    37    10    12    1
    38    11     5    1
    39    33    34    1
    40    33    35    1
    41    34    36    1
    42    35    37    1
    43    36    42    1
    44    20    21   ar
    45    21    22   ar
@<TRIPOS>MOLECULE
*****
 43 45 0 0 0
SMALL
GASTEIGER

@<TRIPOS>ATOM
      1 P          22.9060   71.6965   -3.0162 P.3     1  UNL1        0.2189
      2 O          24.3280   70.9387   -3.1611 O.co2   1  UNL1       -0.4371
      3 O          21.7586   70.8188   -2.6106 O.2     1  UNL1       -0.5170
      4 O          22.7335   72.4717   -4.4259 O.3     1  UNL1       -0.3112
      5 C          21.4274   72.6434   -4.9477 C.3     1  UNL1        0.1811
      6 O          20.5662   70.6068   -5.8880 O.3     1  UNL1       -0.3308
      7 O          20.8432   71.9425   -8.5582 O.3     1  UNL1       -0.3794
      8 O          18.1772   72.1926   -8.0422 O.3     1  UNL1       -0.3779
      9 C          20.4716   72.5064   -7.3016 C.3     1  UNL1        0.1713
     10 C          19.0577   72.1010   -6.9408 C.3     1  UNL1        0.1895
     11 C          21.2875   71.8142   -6.2169 C.3     1  UNL1        0.1764
     12 C          19.2516   70.6714   -6.4647 C.3     1  UNL1        0.2383
     13 H          20.3354   72.3691   -9.2667 H       1  UNL1        0.2105
     14 H          18.0867   73.1211   -8.3077 H       1  UNL1        0.2106
     15 O          16.6387   69.7675   -7.0421 O.2     1  UNL1       -0.2464
     16 O          15.6388   69.2342   -2.5748 O.2     1  UNL1       -0.2670
     17 N          18.2876   70.2892   -5.4718 N.ar    1  UNL1       -0.2551
     18 N          16.1430   69.5025   -4.8173 N.ar    1  UNL1       -0.2743
     19 C          17.0025   69.8503   -5.8672 C.ar    1  UNL1        0.3323
     20 C          18.6202   70.3514   -4.1229 C.ar    1  UNL1        0.0869
     21 C          17.7886   70.0175   -3.1338 C.ar    1  UNL1        0.0795
     22 C          16.4267   69.5485   -3.4615 C.ar    1  UNL1        0.2626
     23 H          15.2422   69.1942   -5.0688 H       1  UNL1        0.1734
     24 O          23.2358   72.8936   -1.9812 O.3     1  UNL1       -0.2703
     25 P          23.2387   72.9291   -0.3652 P.3     1  UNL1        0.2208
     26 O          21.6792   72.7229    0.0132 O.co2   1  UNL1       -0.4371
     27 O          23.8605   74.1629    0.2221 O.2     1  UNL1       -0.5170
     28 O          23.9503   71.5482    0.0725 O.3     1  UNL1       -0.2858
     29 O          24.7181   71.9846    2.2718 O.3     1  UNL1       -0.3258
     30 O          20.6504   72.2610    2.9260 O.3     1  UNL1       -0.3794
     31 O          22.2532   74.6441    2.9348 O.3     1  UNL1       -0.3794
     32 O          21.6887   70.2551    1.1155 O.3     1  UNL1       -0.3775
     33 C          21.8635   72.4073    2.1827 C.3     1  UNL1        0.1715
     34 C          22.7991   73.3284    2.9682 C.3     1  UNL1        0.1694
     35 C          22.4998   71.0320    1.9901 C.3     1  UNL1        0.1967
     36 C          24.2130   73.3212    2.3715 C.3     1  UNL1        0.1761
     37 C          23.9222   71.1402    1.4378 C.3     1  UNL1        0.2704
     38 H          20.2411   73.1307    3.0514 H       1  UNL1        0.2105
     39 H          21.3602   74.6347    3.3139 H       1  UNL1        0.2105
     40 H          20.7909   70.1939    1.4764 H       1  UNL1        0.2106
     41 O          26.5095   73.8595    2.7525 O.3     1  UNL1       -0.3794
     42 C          25.2003   74.1083    3.2304 C.3     1  UNL1        0.1693
     43 H          27.1485   74.3543    3.2896 H       1  UNL1        0.2105
@<TRIPOS>UNITY_ATOM_ATTR
2 1
charge -1
26 1
charge -1
@<TRIPOS>BOND
     1    25    28    1
     2    25    24    1
     3    25    26    1
     4    25    27    2
     5     1     4    1
     6     1    24    1
     7     1     2    1
     8     1     3    2
     9     6    11    1
    10     6    12    1
    11    29    36    1
    12    29    37    1
    13     7     9    1
    14     7    13    1
    15     8    10    1
    16     8    14    1
    17    28    37    1
    18     4     5    1
    19    30    33    1
    20    30    38    1
    21    31    34    1
    22    31    39    1
    23    32    35    1
    24    32    40    1
    25    41    42    1
    26    41    43    1
    27    15    19    2
    28    16    22    2
    29    17    12    1
    30    17    19   ar
    31    17    20   ar
    32    18    19   ar
    33    18    22   ar
    34    18    23    1
    35     9    10    1
    36     9    11    1
    37    10    12    1
    38    11     5    1
    39    33    34    1
    40    33    35    1
    41    34    36    1
    42    35    37    1
    43    36    42    1
    44    20    21   ar
    45    21    22   ar
@<TRIPOS>MOLECULE
*****
 43 45 0 0 0
SMALL
GASTEIGER

@<TRIPOS>ATOM
      1 P          20.8392   73.1237   -1.1060 P.3     1  UNL1        0.2189
      2 O          19.5462   72.1636   -0.9511 O.co2   1  UNL1       -0.4371
      3 O          20.8434   74.3299   -0.2137 O.2     1  UNL1       -0.5170
      4 O          20.9116   73.4243   -2.6942 O.3     1  UNL1       -0.3112
      5 C          20.2746   72.5229   -3.5827 C.3     1  UNL1        0.1811
      6 O          20.6757   70.8962   -5.3051 O.3     1  UNL1       -0.3308
      7 O          23.2116   72.3937   -5.8687 O.3     1  UNL1       -0.3794
      8 O          21.5498   73.2747   -7.8432 O.3     1  UNL1       -0.3779
      9 C          21.9363   72.8959   -5.4728 C.3     1  UNL1        0.1713
     10 C          20.9650   72.8376   -6.6333 C.3     1  UNL1        0.1895
     11 C          21.3233   71.9013   -4.4948 C.3     1  UNL1        0.1764
     12 C          20.5956   71.3642   -6.6614 C.3     1  UNL1        0.2383
     13 H          23.6228   73.0123   -6.4933 H       1  UNL1        0.2105
     14 H          21.7667   74.2177   -7.7754 H       1  UNL1        0.2106
     15 O          19.9356   71.0450   -9.3891 O.2     1  UNL1       -0.2464
     16 O          15.4577   70.5198   -8.4329 O.2     1  UNL1       -0.2670
     17 N          19.2652   71.1423   -7.1534 N.ar    1  UNL1       -0.2551
     18 N          17.7065   70.7835   -8.9108 N.ar    1  UNL1       -0.2743
     19 C          19.0411   70.9960   -8.5423 C.ar    1  UNL1        0.3323
     20 C          18.1997   71.0715   -6.2626 C.ar    1  UNL1        0.0869
     21 C          16.9327   70.8696   -6.6302 C.ar    1  UNL1        0.0795
     22 C          16.6128   70.7066   -8.0631 C.ar    1  UNL1        0.2626
     23 H          17.5263   70.6791   -9.8733 H       1  UNL1        0.1734
     24 O          22.0755   72.1090   -0.8715 O.3     1  UNL1       -0.2703
     25 P          22.5690   71.3253    0.4533 P.3     1  UNL1        0.2208
     26 O          24.0262   70.7635    0.0309 O.co2   1  UNL1       -0.4371
     27 O          21.6150   70.2714    0.9360 O.2     1  UNL1       -0.5170
     28 O          22.8768   72.4909    1.5265 O.3     1  UNL1       -0.2858
     29 O          24.4279   72.6314    3.3129 O.3     1  UNL1       -0.3258
     30 O          21.1946   74.4765    5.0997 O.3     1  UNL1       -0.3794
     31 O          23.4576   76.0500    4.2930 O.3     1  UNL1       -0.3794
     32 O          20.7793   72.1950    3.3671 O.3     1  UNL1       -0.3775
     33 C          22.0612   74.1279    4.0167 C.3     1  UNL1        0.1715
     34 C          23.4689   74.6263    4.3494 C.3     1  UNL1        0.1694
     35 C          22.0555   72.6104    3.8414 C.3     1  UNL1        0.1967
     36 C          24.5034   74.0608    3.3670 C.3     1  UNL1        0.1761
     37 C          23.1538   72.1486    2.8820 C.3     1  UNL1        0.2704
     38 H          21.1933   75.4388    5.2160 H       1  UNL1        0.2105
     39 H          22.7999   76.3944    4.9175 H       1  UNL1        0.2105
     40 H          20.0927   72.4931    3.9832 H       1  UNL1        0.2106
     41 O          26.7737   73.3221    3.4615 O.3     1  UNL1       -0.3794
     42 C          25.9319   74.4169    3.7728 C.3     1  UNL1        0.1693
     43 H          27.6863   73.5346    3.7141 H       1  UNL1        0.2105
@<TRIPOS>UNITY_ATOM_ATTR
2 1
charge -1
26 1
charge -1
@<TRIPOS>BOND
     1    25    28    1
     2    25    24    1
     3    25    26    1
     4    25    27    2
     5     1     4    1
     6     1    24    1
     7     1     2    1
     8     1     3    2
     9     6    11    1
    10     6    12    1
    11    29    36    1
    12    29    37    1
    13     7     9    1
    14     7    13    1
    15     8    10    1
    16     8    14    1
    17    28    37    1
    18     4     5    1
    19    30    33    1
    20    30    38    1
    21    31    34    1
    22    31    39    1
    23    32    35    1
    24    32    40    1
    25    41    42    1
    26    41    43    1
    27    15    19    2
    28    16    22    2
    29    17    12    1
    30    17    19   ar
    31    17    20   ar
    32    18    19   ar
    33    18    22   ar
    34    18    23    1
    35     9    10    1
    36     9    11    1
    37    10    12    1
    38    11     5    1
    39    33    34    1
    40    33    35    1
    41    34    36    1
    42    35    37    1
    43    36    42    1
    44    20    21   ar
    45    21    22   ar
@<TRIPOS>MOLECULE
*****
 43 45 0 0 0
SMALL
GASTEIGER

@<TRIPOS>ATOM
      1 P          21.3580   71.0479   -0.2541 P.3     1  UNL1        0.2189
      2 O          20.0575   70.6825   -1.1445 O.co2   1  UNL1       -0.4371
      3 O          21.5783   70.1641    0.9384 O.2     1  UNL1       -0.5170
      4 O          21.1812   72.6246    0.0630 O.3     1  UNL1       -0.3112
      5 C          21.9017   73.1808    1.1489 C.3     1  UNL1        0.1811
      6 O          22.2368   72.4574    3.4157 O.3     1  UNL1       -0.3308
      7 O          19.4194   73.3512    3.9198 O.3     1  UNL1       -0.3794
      8 O          20.8876   75.4129    4.9347 O.3     1  UNL1       -0.3779
      9 C          20.4103   73.9272    3.0703 C.3     1  UNL1        0.1713
     10 C          21.4584   74.6438    3.8958 C.3     1  UNL1        0.1895
     11 C          21.2151   72.7914    2.4509 C.3     1  UNL1        0.1764
     12 C          22.2946   73.4871    4.4164 C.3     1  UNL1        0.2383
     13 H          18.8924   74.0573    4.3266 H       1  UNL1        0.2105
     14 H          20.3657   76.1358    4.5528 H       1  UNL1        0.2106
     15 O          23.2871   74.6439    6.7943 O.2     1  UNL1       -0.2464
     16 O          27.5747   74.8576    5.1175 O.2     1  UNL1       -0.2670
     17 N          23.6662   73.8547    4.6285 N.ar    1  UNL1       -0.2551
     18 N          25.4212   74.7492    5.9575 N.ar    1  UNL1       -0.2743
     19 C          24.0609   74.4299    5.8589 C.ar    1  UNL1        0.3323
     20 C          24.6036   73.6438    3.6232 C.ar    1  UNL1        0.0869
     21 C          25.8968   73.9551    3.7326 C.ar    1  UNL1        0.0795
     22 C          26.3914   74.5601    4.9861 C.ar    1  UNL1        0.2626
     23 H          25.7192   75.1514    6.8056 H       1  UNL1        0.1734
     24 O          22.5576   71.0274   -1.3374 O.3     1  UNL1       -0.2703
     25 P          23.0323   72.1332   -2.4166 P.3     1  UNL1        0.2208
     26 O          24.1186   71.3356   -3.3118 O.co2   1  UNL1       -0.4371
     27 O          23.5459   73.4060   -1.8082 O.2     1  UNL1       -0.5170
     28 O          21.7609   72.3237   -3.3925 O.3     1  UNL1       -0.2858
     29 O          20.2448   70.8329   -4.4390 O.3     1  UNL1       -0.3258
     30 O          20.9190   73.4107   -7.5936 O.3     1  UNL1       -0.3794
     31 O          18.3965   73.4773   -6.2222 O.3     1  UNL1       -0.3794
     32 O          23.0984   72.6818   -5.8334 O.3     1  UNL1       -0.3775
     33 C          20.7495   73.0481   -6.2206 C.3     1  UNL1        0.1715
     34 C          19.3565   72.4378   -6.0542 C.3     1  UNL1        0.1694
     35 C          21.8286   72.0383   -5.8341 C.3     1  UNL1        0.1967
     36 C          19.1995   71.7834   -4.6750 C.3     1  UNL1        0.1761
     37 C          21.5513   71.4109   -4.4668 C.3     1  UNL1        0.2704
     38 H          20.2372   74.0521   -7.8453 H       1  UNL1        0.2105
     39 H          18.5067   73.8826   -7.0968 H       1  UNL1        0.2105
     40 H          23.2622   73.0746   -6.7044 H       1  UNL1        0.2106
     41 O          17.4934   70.5719   -5.8284 O.3     1  UNL1       -0.3794
     42 C          17.8761   71.0324   -4.5455 C.3     1  UNL1        0.1693
     43 H          16.6528   70.0917   -5.7614 H       1  UNL1        0.2105
@<TRIPOS>UNITY_ATOM_ATTR
2 1
charge -1
26 1
charge -1
@<TRIPOS>BOND
     1    25    28    1
     2    25    24    1
     3    25    26    1
     4    25    27    2
     5     1     4    1
     6     1    24    1
     7     1     2    1
     8     1     3    2
     9     6    11    1
    10     6    12    1
    11    29    36    1
    12    29    37    1
    13     7     9    1
    14     7    13    1
    15     8    10    1
    16     8    14    1
    17    28    37    1
    18     4     5    1
    19    30    33    1
    20    30    38    1
    21    31    34    1
    22    31    39    1
    23    32    35    1
    24    32    40    1
    25    41    42    1
    26    41    43    1
    27    15    19    2
    28    16    22    2
    29    17    12    1
    30    17    19   ar
    31    17    20   ar
    32    18    19   ar
    33    18    22   ar
    34    18    23    1
    35     9    10    1
    36     9    11    1
    37    10    12    1
    38    11     5    1
    39    33    34    1
    40    33    35    1
    41    34    36    1
    42    35    37    1
    43    36    42    1
    44    20    21   ar
    45    21    22   ar
@<TRIPOS>MOLECULE
*****
 43 45 0 0 0
SMALL
GASTEIGER

@<TRIPOS>ATOM
      1 P          22.5048   71.3718   -2.8122 P.3     1  UNL1        0.2189
      2 O          24.0960   71.1154   -2.9523 O.co2   1  UNL1       -0.4371
      3 O          21.6400   70.1986   -3.1687 O.2     1  UNL1       -0.5170
      4 O          22.2512   72.7187   -3.6721 O.3     1  UNL1       -0.3112
      5 C          21.4629   72.6326   -4.8465 C.3     1  UNL1        0.1811
      6 O          19.5171   73.5388   -5.9265 O.3     1  UNL1       -0.3308
      7 O          18.3624   73.8431   -3.1761 O.3     1  UNL1       -0.3794
      8 O          17.1440   71.5791   -4.0851 O.3     1  UNL1       -0.3779
      9 C          19.2024   72.8122   -3.6930 C.3     1  UNL1        0.1713
     10 C          18.4140   71.9034   -4.6129 C.3     1  UNL1        0.1895
     11 C          20.1953   73.4538   -4.6541 C.3     1  UNL1        0.1764
     12 C          18.3251   72.7377   -5.8795 C.3     1  UNL1        0.2383
     13 H          17.7199   73.4575   -2.5593 H       1  UNL1        0.2105
     14 H          17.2539   71.0483   -3.2807 H       1  UNL1        0.2106
     15 O          15.9272   71.7998   -7.0407 O.2     1  UNL1       -0.2464
     16 O          18.1944   69.6426  -10.4240 O.2     1  UNL1       -0.2670
     17 N          18.2595   71.9293   -7.0642 N.ar    1  UNL1       -0.2551
     18 N          17.0580   70.7266   -8.7245 N.ar    1  UNL1       -0.2743
     19 C          17.0047   71.5101   -7.5646 C.ar    1  UNL1        0.3323
     20 C          19.4306   71.5606   -7.7173 C.ar    1  UNL1        0.0869
     21 C          19.4643   70.8119   -8.8216 C.ar    1  UNL1        0.0795
     22 C          18.1967   70.3327   -9.4093 C.ar    1  UNL1        0.2626
     23 H          16.1960   70.4227   -9.0910 H       1  UNL1        0.1734
     24 O          22.3517   71.8812   -1.2857 O.3     1  UNL1       -0.2703
     25 P          23.4620   72.1733   -0.1478 P.3     1  UNL1        0.2208
     26 O          24.1657   73.5380   -0.6577 O.co2   1  UNL1       -0.4371
     27 O          24.4140   71.0369    0.0893 O.2     1  UNL1       -0.5170
     28 O          22.6103   72.6143    1.1503 O.3     1  UNL1       -0.2858
     29 O          24.1597   72.3646    2.9261 O.3     1  UNL1       -0.3258
     30 O          20.9638   73.8916    5.0488 O.3     1  UNL1       -0.3794
     31 O          23.2630   75.5429    4.5643 O.3     1  UNL1       -0.3794
     32 O          20.5022   72.0072    2.9004 O.3     1  UNL1       -0.3775
     33 C          21.8251   73.7447    3.9165 C.3     1  UNL1        0.1715
     34 C          23.2427   74.1362    4.3383 C.3     1  UNL1        0.1694
     35 C          21.7862   72.2923    3.4449 C.3     1  UNL1        0.1967
     36 C          24.2668   73.7531    3.2614 C.3     1  UNL1        0.1761
     37 C          22.8764   72.0048    2.4109 C.3     1  UNL1        0.2704
     38 H          20.9835   74.8117    5.3529 H       1  UNL1        0.2105
     39 H          22.6117   75.7715    5.2459 H       1  UNL1        0.2105
     40 H          19.8210   72.1929    3.5647 H       1  UNL1        0.2106
     41 O          26.5798   73.3468    2.8215 O.3     1  UNL1       -0.3794
     42 C          25.7018   73.9902    3.7267 C.3     1  UNL1        0.1693
     43 H          27.4969   73.4895    3.1049 H       1  UNL1        0.2105
@<TRIPOS>UNITY_ATOM_ATTR
2 1
charge -1
26 1
charge -1
@<TRIPOS>BOND
     1    25    28    1
     2    25    24    1
     3    25    26    1
     4    25    27    2
     5     1     4    1
     6     1    24    1
     7     1     2    1
     8     1     3    2
     9     6    11    1
    10     6    12    1
    11    29    36    1
    12    29    37    1
    13     7     9    1
    14     7    13    1
    15     8    10    1
    16     8    14    1
    17    28    37    1
    18     4     5    1
    19    30    33    1
    20    30    38    1
    21    31    34    1
    22    31    39    1
    23    32    35    1
    24    32    40    1
    25    41    42    1
    26    41    43    1
    27    15    19    2
    28    16    22    2
    29    17    12    1
    30    17    19   ar
    31    17    20   ar
    32    18    19   ar
    33    18    22   ar
    34    18    23    1
    35     9    10    1
    36     9    11    1
    37    10    12    1
    38    11     5    1
    39    33    34    1
    40    33    35    1
    41    34    36    1
    42    35    37    1
    43    36    42    1
    44    20    21   ar
    45    21    22   ar
@<TRIPOS>MOLECULE
*****
 43 45 0 0 0
SMALL
GASTEIGER

@<TRIPOS>ATOM
      1 P          22.8972   72.1072   -3.5934 P.3     1  UNL1        0.2189
      2 O          22.6394   70.5452   -3.2599 O.co2   1  UNL1       -0.4371
      3 O          24.2947   72.4406   -4.0260 O.2     1  UNL1       -0.5170
      4 O          22.3673   72.8787   -2.2736 O.3     1  UNL1       -0.3112
      5 C          23.1610   72.8351   -1.1005 C.3     1  UNL1        0.1811
      6 O          24.1991   71.1421    0.2522 O.3     1  UNL1       -0.3308
      7 O          21.4233   70.1660    0.8296 O.3     1  UNL1       -0.3794
      8 O          22.0386   71.5745    3.0821 O.3     1  UNL1       -0.3779
      9 C          21.8920   71.5023    0.6563 C.3     1  UNL1        0.1713
     10 C          22.6720   71.9482    1.8755 C.3     1  UNL1        0.1895
     11 C          22.9686   71.4859   -0.4217 C.3     1  UNL1        0.1764
     12 C          24.0034   71.2453    1.6720 C.3     1  UNL1        0.2383
     13 H          20.7345   70.1512    1.5131 H       1  UNL1        0.2105
     14 H          21.1963   72.0481    3.1654 H       1  UNL1        0.2106
     15 O          23.9380   74.0006    2.2901 O.2     1  UNL1       -0.2464
     16 O          28.2727   73.9397    3.8545 O.2     1  UNL1       -0.2670
     17 N          25.1007   71.9751    2.2421 N.ar    1  UNL1       -0.2551
     18 N          26.0963   73.9680    3.0687 N.ar    1  UNL1       -0.2743
     19 C          24.9651   73.3565    2.5134 C.ar    1  UNL1        0.3323
     20 C          26.2946   71.3212    2.5264 C.ar    1  UNL1        0.0869
     21 C          27.3645   71.9190    3.0548 C.ar    1  UNL1        0.0795
     22 C          27.3058   73.3613    3.3683 C.ar    1  UNL1        0.2626
     23 H          26.0252   74.9302    3.2658 H       1  UNL1        0.1734
     24 O          21.7565   72.4378   -4.6900 O.3     1  UNL1       -0.2703
     25 P          20.1626   72.6551   -4.5313 P.3     1  UNL1        0.2208
     26 O          20.0170   74.2623   -4.4163 O.co2   1  UNL1       -0.4371
     27 O          19.5482   71.8945   -3.3921 O.2     1  UNL1       -0.5170
     28 O          19.5546   72.2936   -5.9820 O.3     1  UNL1       -0.2858
     29 O          18.8152   70.0456   -6.1111 O.3     1  UNL1       -0.3258
     30 O          18.5784   71.0487  -10.1097 O.3     1  UNL1       -0.3794
     31 O          16.1673   70.7354   -8.5812 O.3     1  UNL1       -0.3794
     32 O          20.7693   72.0416   -8.4992 O.3     1  UNL1       -0.3775
     33 C          18.4931   71.2804   -8.7010 C.3     1  UNL1        0.1715
     34 C          17.4508   70.3230   -8.1198 C.3     1  UNL1        0.1694
     35 C          19.8621   71.0319   -8.0704 C.3     1  UNL1        0.1967
     36 C          17.4926   70.3234   -6.5857 C.3     1  UNL1        0.1761
     37 C          19.7836   71.0035   -6.5430 C.3     1  UNL1        0.2704
     38 H          17.7125   71.2052  -10.5162 H       1  UNL1        0.2105
     39 H          16.1544   70.7312   -9.5513 H       1  UNL1        0.2105
     40 H          20.8103   72.0492   -9.4678 H       1  UNL1        0.2106
     41 O          16.0135   69.7727   -4.7919 O.3     1  UNL1       -0.3794
     42 C          16.5721   69.2616   -5.9882 C.3     1  UNL1        0.1693
     43 H          15.4251   69.1076   -4.4006 H       1  UNL1        0.2105
@<TRIPOS>UNITY_ATOM_ATTR
2 1
charge -1
26 1
charge -1
@<TRIPOS>BOND
     1    25    28    1
     2    25    24    1
     3    25    26    1
     4    25    27    2
     5     1     4    1
     6     1    24    1
     7     1     2    1
     8     1     3    2
     9     6    11    1
    10     6    12    1
    11    29    36    1
    12    29    37    1
    13     7     9    1
    14     7    13    1
    15     8    10    1
    16     8    14    1
    17    28    37    1
    18     4     5    1
    19    30    33    1
    20    30    38    1
    21    31    34    1
    22    31    39    1
    23    32    35    1
    24    32    40    1
    25    41    42    1
    26    41    43    1
    27    15    19    2
    28    16    22    2
    29    17    12    1
    30    17    19   ar
    31    17    20   ar
    32    18    19   ar
    33    18    22   ar
    34    18    23    1
    35     9    10    1
    36     9    11    1
    37    10    12    1
    38    11     5    1
    39    33    34    1
    40    33    35    1
    41    34    36    1
    42    35    37    1
    43    36    42    1
    44    20    21   ar
    45    21    22   ar
@<TRIPOS>MOLECULE
*****
 43 45 0 0 0
SMALL
GASTEIGER

@<TRIPOS>ATOM
      1 P          23.0620   73.2580   -4.1149 P.3     1  UNL1        0.2189
      2 O          23.8507   71.8523   -3.9757 O.co2   1  UNL1       -0.4371
      3 O          23.8228   74.3449   -4.8158 O.2     1  UNL1       -0.5170
      4 O          22.5928   73.5916   -2.6027 O.3     1  UNL1       -0.3112
      5 C          21.5836   74.5668   -2.4076 C.3     1  UNL1        0.1811
      6 O          20.8698   72.6745   -1.1100 O.3     1  UNL1       -0.3308
      7 O          18.5939   74.3981   -0.1935 O.3     1  UNL1       -0.3794
      8 O          20.3135   74.5111    1.9199 O.3     1  UNL1       -0.3779
      9 C          19.9456   74.7608   -0.4704 C.3     1  UNL1        0.1713
     10 C          20.8575   74.2757    0.6372 C.3     1  UNL1        0.1895
     11 C          20.4197   73.9327   -1.6583 C.3     1  UNL1        0.1764
     12 C          20.9820   72.7957    0.3174 C.3     1  UNL1        0.2383
     13 H          18.2689   74.9143    0.5614 H       1  UNL1        0.2105
     14 H          20.2546   75.4666    2.0760 H       1  UNL1        0.2106
     15 O          21.4208   70.0703    0.9153 O.2     1  UNL1       -0.2464
     16 O          25.8596   70.8138    1.9081 O.2     1  UNL1       -0.2670
     17 N          22.2426   72.2495    0.7342 N.ar    1  UNL1       -0.2551
     18 N          23.6306   70.4427    1.4089 N.ar    1  UNL1       -0.2743
     19 C          22.3565   70.8671    1.0109 C.ar    1  UNL1        0.3323
     20 C          23.3493   73.0815    0.8645 C.ar    1  UNL1        0.0869
     21 C          24.5571   72.6613    1.2463 C.ar    1  UNL1        0.0795
     22 C          24.7611   71.2311    1.5544 C.ar    1  UNL1        0.2626
     23 H          23.7337   69.4836    1.6074 H       1  UNL1        0.1734
     24 O          21.6810   72.8299   -4.8377 O.3     1  UNL1       -0.2703
     25 P          21.0505   73.2610   -6.2623 P.3     1  UNL1        0.2208
     26 O          22.0543   72.5808   -7.3334 O.co2   1  UNL1       -0.4371
     27 O          20.8728   74.7419   -6.4338 O.2     1  UNL1       -0.5170
     28 O          19.6870   72.4056   -6.3812 O.3     1  UNL1       -0.2858
     29 O          18.9920   70.2698   -5.6250 O.3     1  UNL1       -0.3258
     30 O          17.4714   70.1382   -9.4618 O.3     1  UNL1       -0.3794
     31 O          15.6808   70.4366   -7.2364 O.3     1  UNL1       -0.3794
     32 O          20.0403   71.3778   -8.9685 O.3     1  UNL1       -0.3775
     33 C          17.8350   70.7572   -8.2249 C.3     1  UNL1        0.1715
     34 C          17.0527   70.0768   -7.0999 C.3     1  UNL1        0.1694
     35 C          19.3385   70.5952   -8.0087 C.3     1  UNL1        0.1967
     36 C          17.5816   70.4999   -5.7228 C.3     1  UNL1        0.1761
     37 C          19.7519   70.9975   -6.5919 C.3     1  UNL1        0.2704
     38 H          16.5180   70.2380   -9.6054 H       1  UNL1        0.2105
     39 H          15.3592   70.1644   -8.1103 H       1  UNL1        0.2105
     40 H          19.7700   71.1133   -9.8612 H       1  UNL1        0.2106
     41 O          16.0574   68.7485   -5.1588 O.3     1  UNL1       -0.3794
     42 C          16.9221   69.7150   -4.5910 C.3     1  UNL1        0.1693
     43 H          15.6308   68.2411   -4.4501 H       1  UNL1        0.2105
@<TRIPOS>UNITY_ATOM_ATTR
2 1
charge -1
26 1
charge -1
@<TRIPOS>BOND
     1    25    28    1
     2    25    24    1
     3    25    26    1
     4    25    27    2
     5     1     4    1
     6     1    24    1
     7     1     2    1
     8     1     3    2
     9     6    11    1
    10     6    12    1
    11    29    36    1
    12    29    37    1
    13     7     9    1
    14     7    13    1
    15     8    10    1
    16     8    14    1
    17    28    37    1
    18     4     5    1
    19    30    33    1
    20    30    38    1
    21    31    34    1
    22    31    39    1
    23    32    35    1
    24    32    40    1
    25    41    42    1
    26    41    43    1
    27    15    19    2
    28    16    22    2
    29    17    12    1
    30    17    19   ar
    31    17    20   ar
    32    18    19   ar
    33    18    22   ar
    34    18    23    1
    35     9    10    1
    36     9    11    1
    37    10    12    1
    38    11     5    1
    39    33    34    1
    40    33    35    1
    41    34    36    1
    42    35    37    1
    43    36    42    1
    44    20    21   ar
    45    21    22   ar
@<TRIPOS>MOLECULE
*****
 43 45 0 0 0
SMALL
GASTEIGER

@<TRIPOS>ATOM
      1 P          21.9420   72.3125   -1.5791 P.3     1  UNL1        0.2189
      2 O          22.2907   73.8573   -1.9100 O.co2   1  UNL1       -0.4371
      3 O          23.0413   71.3363   -1.8794 O.2     1  UNL1       -0.5170
      4 O          20.5439   72.0557   -2.3518 O.3     1  UNL1       -0.3112
      5 C          20.3790   72.5996   -3.6498 C.3     1  UNL1        0.1811
      6 O          20.7327   70.9424   -5.3535 O.3     1  UNL1       -0.3308
      7 O          23.2361   72.4462   -6.0335 O.3     1  UNL1       -0.3794
      8 O          21.5004   73.2769   -7.9657 O.3     1  UNL1       -0.3779
      9 C          21.9715   72.9471   -5.6034 C.3     1  UNL1        0.1713
     10 C          20.9611   72.8594   -6.7281 C.3     1  UNL1        0.1895
     11 C          21.4003   71.9677   -4.5856 C.3     1  UNL1        0.1764
     12 C          20.6022   71.3832   -6.7149 C.3     1  UNL1        0.2383
     13 H          23.6208   73.0552   -6.6839 H       1  UNL1        0.2105
     14 H          21.7123   74.2224   -7.9237 H       1  UNL1        0.2106
     15 O          19.8943   69.5678   -8.7596 O.2     1  UNL1       -0.2464
     16 O          15.4108   70.5429   -8.3250 O.2     1  UNL1       -0.2670
     17 N          19.2573   71.1426   -7.1561 N.ar    1  UNL1       -0.2551
     18 N          17.6624   70.0546   -8.5415 N.ar    1  UNL1       -0.2743
     19 C          19.0096   70.2110   -8.1911 C.ar    1  UNL1        0.3323
     20 C          18.2010   71.8262   -6.5640 C.ar    1  UNL1        0.0869
     21 C          16.9220   71.6667   -6.9105 C.ar    1  UNL1        0.0795
     22 C          16.5773   70.7119   -7.9836 C.ar    1  UNL1        0.2626
     23 H          17.4659   69.4111   -9.2605 H       1  UNL1        0.1734
     24 O          21.4948   72.3653   -0.0266 O.3     1  UNL1       -0.2703
     25 P          21.9159   71.4417    1.2314 P.3     1  UNL1        0.2208
     26 O          23.5087   71.6944    1.3605 O.co2   1  UNL1       -0.4371
     27 O          21.5271   69.9983    1.0926 O.2     1  UNL1       -0.5170
     28 O          21.2799   72.1853    2.5150 O.3     1  UNL1       -0.2858
     29 O          20.2787   74.3240    2.7157 O.3     1  UNL1       -0.3258
     30 O          22.2309   74.1657    6.3509 O.3     1  UNL1       -0.3794
     31 O          19.3720   73.9061    6.2642 O.3     1  UNL1       -0.3794
     32 O          23.4966   73.0820    3.9838 O.3     1  UNL1       -0.3775
     33 C          21.5132   73.6355    5.2332 C.3     1  UNL1        0.1715
     34 C          20.1568   74.3393    5.1567 C.3     1  UNL1        0.1694
     35 C          22.3196   73.8823    3.9596 C.3     1  UNL1        0.1967
     36 C          19.4410   74.0205    3.8372 C.3     1  UNL1        0.1761
     37 C          21.4991   73.5808    2.7042 C.3     1  UNL1        0.2704
     38 H          21.7245   74.0118    7.1629 H       1  UNL1        0.2105
     39 H          19.8355   74.1129    7.0910 H       1  UNL1        0.2105
     40 H          24.0074   73.2824    4.7830 H       1  UNL1        0.2106
     41 O          18.2136   75.9425    4.5503 O.3     1  UNL1       -0.3794
     42 C          18.1598   74.8347    3.6704 C.3     1  UNL1        0.1693
     43 H          17.4047   76.4700    4.4548 H       1  UNL1        0.2105
@<TRIPOS>UNITY_ATOM_ATTR
2 1
charge -1
26 1
charge -1
@<TRIPOS>BOND
     1    25    28    1
     2    25    24    1
     3    25    26    1
     4    25    27    2
     5     1     4    1
     6     1    24    1
     7     1     2    1
     8     1     3    2
     9     6    11    1
    10     6    12    1
    11    29    36    1
    12    29    37    1
    13     7     9    1
    14     7    13    1
    15     8    10    1
    16     8    14    1
    17    28    37    1
    18     4     5    1
    19    30    33    1
    20    30    38    1
    21    31    34    1
    22    31    39    1
    23    32    35    1
    24    32    40    1
    25    41    42    1
    26    41    43    1
    27    15    19    2
    28    16    22    2
    29    17    12    1
    30    17    19   ar
    31    17    20   ar
    32    18    19   ar
    33    18    22   ar
    34    18    23    1
    35     9    10    1
    36     9    11    1
    37    10    12    1
    38    11     5    1
    39    33    34    1
    40    33    35    1
    41    34    36    1
    42    35    37    1
    43    36    42    1
    44    20    21   ar
    45    21    22   ar
@<TRIPOS>MOLECULE
*****
 43 45 0 0 0
SMALL
GASTEIGER

@<TRIPOS>ATOM
      1 P          23.4999   72.3699   -3.4410 P.3     1  UNL1        0.2189
      2 O          24.0423   70.8709   -3.1655 O.co2   1  UNL1       -0.4371
      3 O          24.5575   73.3693   -3.8074 O.2     1  UNL1       -0.5170
      4 O          22.6318   72.7177   -2.1207 O.3     1  UNL1       -0.3112
      5 C          23.3065   72.8394   -0.8806 C.3     1  UNL1        0.1811
      6 O          24.4239   71.3101    0.5980 O.3     1  UNL1       -0.3308
      7 O          21.7080   70.1798    1.1784 O.3     1  UNL1       -0.3794
      8 O          22.1685   71.7645    3.3494 O.3     1  UNL1       -0.3779
      9 C          22.0881   71.5323    0.9305 C.3     1  UNL1        0.1713
     10 C          22.8049   72.1062    2.1348 C.3     1  UNL1        0.1895
     11 C          23.1901   71.5247   -0.1217 C.3     1  UNL1        0.1764
     12 C          24.1861   71.4870    2.0041 C.3     1  UNL1        0.2383
     13 H          21.0048   70.1591    1.8471 H       1  UNL1        0.2105
     14 H          21.2939   72.1822    3.3850 H       1  UNL1        0.2106
     15 O          26.8552   70.6657    2.4272 O.2     1  UNL1       -0.2464
     16 O          28.0513   74.7890    4.1032 O.2     1  UNL1       -0.2670
     17 N          25.2160   72.3256    2.5494 N.ar    1  UNL1       -0.2551
     18 N          27.4487   72.7195    3.2612 N.ar    1  UNL1       -0.2743
     19 C          26.5240   71.8158    2.7223 C.ar    1  UNL1        0.3323
     20 C          24.9249   73.6378    2.9059 C.ar    1  UNL1        0.0869
     21 C          25.8177   74.4864    3.4198 C.ar    1  UNL1        0.0795
     22 C          27.2073   74.0327    3.6325 C.ar    1  UNL1        0.2626
     23 H          28.3662   72.3863    3.3910 H       1  UNL1        0.1734
     24 O          22.3669   72.1444   -4.5718 O.3     1  UNL1       -0.2703
     25 P          21.8252   73.1201   -5.7412 P.3     1  UNL1        0.2208
     26 O          22.8629   72.8571   -6.9542 O.co2   1  UNL1       -0.4371
     27 O          21.7014   74.5597   -5.3333 O.2     1  UNL1       -0.5170
     28 O          20.4447   72.4428   -6.2315 O.3     1  UNL1       -0.2858
     29 O          19.5112   70.2769   -5.9992 O.3     1  UNL1       -0.3258
     30 O          18.5387   70.9944   -9.9476 O.3     1  UNL1       -0.3794
     31 O          16.4771   71.0402   -7.9487 O.3     1  UNL1       -0.3794
     32 O          21.0891   71.8815   -8.9045 O.3     1  UNL1       -0.3775
     33 C          18.7652   71.3390   -8.5782 C.3     1  UNL1        0.1715
     34 C          17.7896   70.5373   -7.7143 C.3     1  UNL1        0.1694
     35 C          20.2094   71.0029   -8.2112 C.3     1  UNL1        0.1967
     36 C          18.1468   70.6492   -6.2260 C.3     1  UNL1        0.1761
     37 C          20.4456   71.0977   -6.7028 C.3     1  UNL1        0.2704
     38 H          17.6236   71.2058  -10.1872 H       1  UNL1        0.2105
     39 H          16.2642   70.9643   -8.8922 H       1  UNL1        0.2105
     40 H          20.9300   71.8120   -9.8583 H       1  UNL1        0.2106
     41 O          16.0709   70.4011   -5.0692 O.3     1  UNL1       -0.3794
     42 C          17.2846   69.7329   -5.3605 C.3     1  UNL1        0.1693
     43 H          15.5118   69.8296   -4.5192 H       1  UNL1        0.2105
@<TRIPOS>UNITY_ATOM_ATTR
2 1
charge -1
26 1
charge -1
@<TRIPOS>BOND
     1    25    28    1
     2    25    24    1
     3    25    26    1
     4    25    27    2
     5     1     4    1
     6     1    24    1
     7     1     2    1
     8     1     3    2
     9     6    11    1
    10     6    12    1
    11    29    36    1
    12    29    37    1
    13     7     9    1
    14     7    13    1
    15     8    10    1
    16     8    14    1
    17    28    37    1
    18     4     5    1
    19    30    33    1
    20    30    38    1
    21    31    34    1
    22    31    39    1
    23    32    35    1
    24    32    40    1
    25    41    42    1
    26    41    43    1
    27    15    19    2
    28    16    22    2
    29    17    12    1
    30    17    19   ar
    31    17    20   ar
    32    18    19   ar
    33    18    22   ar
    34    18    23    1
    35     9    10    1
    36     9    11    1
    37    10    12    1
    38    11     5    1
    39    33    34    1
    40    33    35    1
    41    34    36    1
    42    35    37    1
    43    36    42    1
    44    20    21   ar
    45    21    22   ar
@<TRIPOS>MOLECULE
*****
 43 45 0 0 0
SMALL
GASTEIGER

@<TRIPOS>ATOM
      1 P          22.4209   72.7159   -4.4442 P.3     1  UNL1        0.2189
      2 O          24.0249   72.5099   -4.4893 O.co2   1  UNL1       -0.4371
      3 O          21.9511   74.1055   -4.7600 O.2     1  UNL1       -0.5170
      4 O          21.9965   72.1440   -2.9913 O.3     1  UNL1       -0.3112
      5 C          21.1961   70.9762   -2.9318 C.3     1  UNL1        0.1811
      6 O          20.5425   70.6170   -0.6476 O.3     1  UNL1       -0.3308
      7 O          18.4753   72.7411   -1.1012 O.3     1  UNL1       -0.3794
      8 O          20.4294   74.0901    0.2398 O.3     1  UNL1       -0.3779
      9 C          19.8027   72.6495   -1.6158 C.3     1  UNL1        0.1713
     10 C          20.8103   72.9689   -0.5312 C.3     1  UNL1        0.1895
     11 C          20.0957   71.1815   -1.8998 C.3     1  UNL1        0.1764
     12 C          20.8234   71.6817    0.2756 C.3     1  UNL1        0.2383
     13 H          18.2652   73.6696   -0.9126 H       1  UNL1        0.2105
     14 H          20.4364   74.8837   -0.3179 H       1  UNL1        0.2106
     15 O          21.3286   71.9586    3.0408 O.2     1  UNL1       -0.2464
     16 O          25.7398   70.7187    2.5453 O.2     1  UNL1       -0.2670
     17 N          22.0947   71.4373    0.8964 N.ar    1  UNL1       -0.2551
     18 N          23.5246   71.3408    2.7918 N.ar    1  UNL1       -0.2743
     19 C          22.2430   71.6064    2.2928 C.ar    1  UNL1        0.3323
     20 C          23.1777   71.0342    0.1226 C.ar    1  UNL1        0.0869
     21 C          24.3936   70.7862    0.6137 C.ar    1  UNL1        0.0795
     22 C          24.6330   70.9392    2.0633 C.ar    1  UNL1        0.2626
     23 H          23.6516   71.4524    3.7620 H       1  UNL1        0.1734
     24 O          21.8796   71.5767   -5.4553 O.3     1  UNL1       -0.2703
     25 P          20.9545   71.6827   -6.7766 P.3     1  UNL1        0.2208
     26 O          21.1571   70.2437   -7.4878 O.co2   1  UNL1       -0.4371
     27 O          21.2699   72.8580   -7.6559 O.2     1  UNL1       -0.5170
     28 O          19.4403   71.6521   -6.2187 O.3     1  UNL1       -0.2858
     29 O          17.7601   70.1516   -5.4825 O.3     1  UNL1       -0.3258
     30 O          15.7037   71.9884   -8.5563 O.3     1  UNL1       -0.3794
     31 O          15.0073   72.5781   -5.8332 O.3     1  UNL1       -0.3794
     32 O          18.5204   71.3924   -8.8571 O.3     1  UNL1       -0.3775
     33 C          16.6258   71.9172   -7.4655 C.3     1  UNL1        0.1715
     34 C          15.8549   71.4973   -6.2124 C.3     1  UNL1        0.1694
     35 C          17.7121   70.8953   -7.7960 C.3     1  UNL1        0.1967
     36 C          16.8117   71.1412   -5.0667 C.3     1  UNL1        0.1761
     37 C          18.5771   70.5756   -6.5755 C.3     1  UNL1        0.2704
     38 H          15.0117   72.6359   -8.3530 H       1  UNL1        0.2105
     39 H          14.4085   72.7933   -6.5655 H       1  UNL1        0.2105
     40 H          17.9612   71.5907   -9.6239 H       1  UNL1        0.2106
     41 O          16.1281   69.1567   -3.9250 O.3     1  UNL1       -0.3794
     42 C          16.0710   70.5698   -3.8597 C.3     1  UNL1        0.1693
     43 H          15.6609   68.7792   -3.1628 H       1  UNL1        0.2105
@<TRIPOS>UNITY_ATOM_ATTR
2 1
charge -1
26 1
charge -1
@<TRIPOS>BOND
     1    25    28    1
     2    25    24    1
     3    25    26    1
     4    25    27    2
     5     1     4    1
     6     1    24    1
     7     1     2    1
     8     1     3    2
     9     6    11    1
    10     6    12    1
    11    29    36    1
    12    29    37    1
    13     7     9    1
    14     7    13    1
    15     8    10    1
    16     8    14    1
    17    28    37    1
    18     4     5    1
    19    30    33    1
    20    30    38    1
    21    31    34    1
    22    31    39    1
    23    32    35    1
    24    32    40    1
    25    41    42    1
    26    41    43    1
    27    15    19    2
    28    16    22    2
    29    17    12    1
    30    17    19   ar
    31    17    20   ar
    32    18    19   ar
    33    18    22   ar
    34    18    23    1
    35     9    10    1
    36     9    11    1
    37    10    12    1
    38    11     5    1
    39    33    34    1
    40    33    35    1
    41    34    36    1
    42    35    37    1
    43    36    42    1
    44    20    21   ar
    45    21    22   ar
@<TRIPOS>MOLECULE
*****
 43 45 0 0 0
SMALL
GASTEIGER

@<TRIPOS>ATOM
      1 P          22.1740   72.8387   -4.4638 P.3     1  UNL1        0.2189
      2 O          22.8943   72.2107   -5.7692 O.co2   1  UNL1       -0.4371
      3 O          21.5028   74.1622   -4.6854 O.2     1  UNL1       -0.5170
      4 O          23.3319   72.8185   -3.3338 O.3     1  UNL1       -0.3112
      5 C          22.9625   73.0370   -1.9833 C.3     1  UNL1        0.1811
      6 O          23.6389   71.2438   -0.5338 O.3     1  UNL1       -0.3308
      7 O          20.7293   70.5416   -0.3540 O.3     1  UNL1       -0.3794
      8 O          21.1654   71.8722    1.9862 O.3     1  UNL1       -0.3779
      9 C          21.3438   71.8264   -0.4382 C.3     1  UNL1        0.1713
     10 C          21.9901   72.1878    0.8829 C.3     1  UNL1        0.1895
     11 C          22.5504   71.7098   -1.3612 C.3     1  UNL1        0.1764
     12 C          23.2628   71.3589    0.8483 C.3     1  UNL1        0.2383
     13 H          19.9558   70.5911    0.2301 H       1  UNL1        0.2105
     14 H          20.3692   72.4256    1.9637 H       1  UNL1        0.2106
     15 O          25.1086   69.9563    2.4619 O.2     1  UNL1       -0.2464
     16 O          27.3440   73.8261    3.5879 O.2     1  UNL1       -0.2670
     17 N          24.3375   71.9748    1.5742 N.ar    1  UNL1       -0.2551
     18 N          26.2203   71.8843    3.0211 N.ar    1  UNL1       -0.2743
     19 C          25.2080   71.1804    2.3563 C.ar    1  UNL1        0.3323
     20 C          24.5201   73.3517    1.5062 C.ar    1  UNL1        0.0869
     21 C          25.4896   74.0078    2.1472 C.ar    1  UNL1        0.0795
     22 C          26.4420   73.2519    2.9860 C.ar    1  UNL1        0.2626
     23 H          26.8385   71.3516    3.5723 H       1  UNL1        0.1734
     24 O          21.1830   71.6528   -3.9897 O.3     1  UNL1       -0.2703
     25 P          20.2545   70.6409   -4.8423 P.3     1  UNL1        0.2208
     26 O          19.8138   69.5320   -3.7497 O.co2   1  UNL1       -0.4371
     27 O          20.9201   70.0763   -6.0638 O.2     1  UNL1       -0.5170
     28 O          18.9066   71.4769   -5.1411 O.3     1  UNL1       -0.2858
     29 O          19.2880   71.9098   -7.4397 O.3     1  UNL1       -0.3258
     30 O          15.3207   73.0307   -7.2067 O.3     1  UNL1       -0.3794
     31 O          16.0283   70.5902   -8.5450 O.3     1  UNL1       -0.3794
     32 O          17.1241   73.6413   -5.0262 O.3     1  UNL1       -0.3775
     33 C          16.4756   72.2516   -6.8835 C.3     1  UNL1        0.1715
     34 C          16.9771   71.5831   -8.1651 C.3     1  UNL1        0.1694
     35 C          17.5490   73.1685   -6.3000 C.3     1  UNL1        0.1967
     36 C          18.3588   70.9493   -7.9552 C.3     1  UNL1        0.1761
     37 C          18.8964   72.4546   -6.1781 C.3     1  UNL1        0.2704
     38 H          14.6351   72.4544   -7.5772 H       1  UNL1        0.2105
     39 H          15.1601   71.0034   -8.6740 H       1  UNL1        0.2105
     40 H          16.2703   74.0915   -5.1169 H       1  UNL1        0.2106
     41 O          18.4953   71.2315  -10.3239 O.3     1  UNL1       -0.3794
     42 C          18.9470   70.4149   -9.2593 C.3     1  UNL1        0.1693
     43 H          18.8621   70.9035  -11.1603 H       1  UNL1        0.2105
@<TRIPOS>UNITY_ATOM_ATTR
2 1
charge -1
26 1
charge -1
@<TRIPOS>BOND
     1    25    28    1
     2    25    24    1
     3    25    26    1
     4    25    27    2
     5     1     4    1
     6     1    24    1
     7     1     2    1
     8     1     3    2
     9     6    11    1
    10     6    12    1
    11    29    36    1
    12    29    37    1
    13     7     9    1
    14     7    13    1
    15     8    10    1
    16     8    14    1
    17    28    37    1
    18     4     5    1
    19    30    33    1
    20    30    38    1
    21    31    34    1
    22    31    39    1
    23    32    35    1
    24    32    40    1
    25    41    42    1
    26    41    43    1
    27    15    19    2
    28    16    22    2
    29    17    12    1
    30    17    19   ar
    31    17    20   ar
    32    18    19   ar
    33    18    22   ar
    34    18    23    1
    35     9    10    1
    36     9    11    1
    37    10    12    1
    38    11     5    1
    39    33    34    1
    40    33    35    1
    41    34    36    1
    42    35    37    1
    43    36    42    1
    44    20    21   ar
    45    21    22   ar
@<TRIPOS>MOLECULE
*****
 43 45 0 0 0
SMALL
GASTEIGER

@<TRIPOS>ATOM
      1 P          21.8642   72.5137   -5.6085 P.3     1  UNL1        0.2189
      2 O          21.2825   74.0020   -5.3560 O.co2   1  UNL1       -0.4371
      3 O          23.1163   72.4540   -6.4332 O.2     1  UNL1       -0.5170
      4 O          20.5972   71.6957   -6.1945 O.3     1  UNL1       -0.3112
      5 C          20.0843   72.0620   -7.4636 C.3     1  UNL1        0.1811
      6 O          18.9050   70.0044   -7.0771 O.3     1  UNL1       -0.3308
      7 O          18.1564   70.1060   -9.9788 O.3     1  UNL1       -0.3794
      8 O          15.8931   71.0018   -8.7494 O.3     1  UNL1       -0.3779
      9 C          18.3000   71.1759   -9.0461 C.3     1  UNL1        0.1713
     10 C          17.1265   71.2001   -8.0890 C.3     1  UNL1        0.1895
     11 C          19.4602   70.8373   -8.1184 C.3     1  UNL1        0.1764
     12 C          17.4707   70.0649   -7.1398 C.3     1  UNL1        0.2383
     13 H          17.4215   70.2998  -10.5823 H       1  UNL1        0.2105
     14 H          15.7191   71.7502   -9.3413 H       1  UNL1        0.2106
     15 O          16.2907   68.0587   -5.5395 O.2     1  UNL1       -0.2464
     16 O          15.5249   71.0096   -2.0831 O.2     1  UNL1       -0.2670
     17 N          16.9548   70.2811   -5.8175 N.ar    1  UNL1       -0.2551
     18 N          15.9105   69.5296   -3.8197 N.ar    1  UNL1       -0.2743
     19 C          16.3811   69.2064   -5.0988 C.ar    1  UNL1        0.3323
     20 C          17.0207   71.5473   -5.2464 C.ar    1  UNL1        0.0869
     21 C          16.5662   71.8393   -4.0260 C.ar    1  UNL1        0.0795
     22 C          15.9522   70.7729   -3.2088 C.ar    1  UNL1        0.2626
     23 H          15.5064   68.7968   -3.3006 H       1  UNL1        0.1734
     24 O          22.0163   71.9240   -4.1111 O.3     1  UNL1       -0.2703
     25 P          23.2357   72.0134   -3.0538 P.3     1  UNL1        0.2208
     26 O          23.9014   73.4523   -3.3759 O.co2   1  UNL1       -0.4371
     27 O          24.1935   70.8592   -3.1202 O.2     1  UNL1       -0.5170
     28 O          22.5201   72.2070   -1.6202 O.3     1  UNL1       -0.2858
     29 O          23.4131   70.6254   -0.0978 O.3     1  UNL1       -0.3258
     30 O          20.4606   72.2463    2.2910 O.3     1  UNL1       -0.3794
     31 O          23.2141   72.8654    2.8231 O.3     1  UNL1       -0.3794
     32 O          19.9641   71.8188   -0.5286 O.3     1  UNL1       -0.3775
     33 C          21.4810   72.2623    1.2890 C.3     1  UNL1        0.1715
     34 C          22.7972   71.8295    1.9379 C.3     1  UNL1        0.1694
     35 C          21.0934   71.3014    0.1665 C.3     1  UNL1        0.1967
     36 C          23.8761   71.5650    0.8792 C.3     1  UNL1        0.1761
     37 C          22.2530   71.0696   -0.8040 C.3     1  UNL1        0.2704
     38 H          20.7003   72.8547    3.0064 H       1  UNL1        0.2105
     39 H          22.5238   73.0229    3.4863 H       1  UNL1        0.2105
     40 H          19.2369   71.9609    0.0966 H       1  UNL1        0.2106
     41 O          24.7900   70.2241    2.6329 O.3     1  UNL1       -0.3794
     42 C          25.1476   70.9816    1.4916 C.3     1  UNL1        0.1693
     43 H          25.5893   69.8464    3.0330 H       1  UNL1        0.2105
@<TRIPOS>UNITY_ATOM_ATTR
2 1
charge -1
26 1
charge -1
@<TRIPOS>BOND
     1    25    28    1
     2    25    24    1
     3    25    26    1
     4    25    27    2
     5     1     4    1
     6     1    24    1
     7     1     2    1
     8     1     3    2
     9     6    11    1
    10     6    12    1
    11    29    36    1
    12    29    37    1
    13     7     9    1
    14     7    13    1
    15     8    10    1
    16     8    14    1
    17    28    37    1
    18     4     5    1
    19    30    33    1
    20    30    38    1
    21    31    34    1
    22    31    39    1
    23    32    35    1
    24    32    40    1
    25    41    42    1
    26    41    43    1
    27    15    19    2
    28    16    22    2
    29    17    12    1
    30    17    19   ar
    31    17    20   ar
    32    18    19   ar
    33    18    22   ar
    34    18    23    1
    35     9    10    1
    36     9    11    1
    37    10    12    1
    38    11     5    1
    39    33    34    1
    40    33    35    1
    41    34    36    1
    42    35    37    1
    43    36    42    1
    44    20    21   ar
    45    21    22   ar
@<TRIPOS>MOLECULE
*****
 43 45 0 0 0
SMALL
GASTEIGER

@<TRIPOS>ATOM
      1 P          23.2888   73.3404   -4.4602 P.3     1  UNL1        0.2189
      2 O          23.8824   74.6711   -5.1632 O.co2   1  UNL1       -0.4371
      3 O          24.3191   72.4177   -3.8784 O.2     1  UNL1       -0.5170
      4 O          22.3295   72.6974   -5.5933 O.3     1  UNL1       -0.3112
      5 C          21.1122   72.0964   -5.1872 C.3     1  UNL1        0.1811
      6 O          19.5842   70.3469   -5.8018 O.3     1  UNL1       -0.3308
      7 O          19.8365   71.3688   -8.6094 O.3     1  UNL1       -0.3794
      8 O          17.4539   72.4235   -7.8049 O.3     1  UNL1       -0.3779
      9 C          19.8257   72.0961   -7.3821 C.3     1  UNL1        0.1713
     10 C          18.4228   72.1478   -6.8139 C.3     1  UNL1        0.1895
     11 C          20.5613   71.2656   -6.3380 C.3     1  UNL1        0.1764
     12 C          18.2721   70.7578   -6.2196 C.3     1  UNL1        0.2383
     13 H          19.3725   71.8796   -9.2919 H       1  UNL1        0.2105
     14 H          17.5917   73.3186   -8.1519 H       1  UNL1        0.2106
     15 O          16.6751   68.5514   -5.4716 O.2     1  UNL1       -0.2464
     16 O          14.9406   70.8034   -1.8437 O.2     1  UNL1       -0.2670
     17 N          17.3941   70.7400   -5.0838 N.ar    1  UNL1       -0.2551
     18 N          15.8129   69.6745   -3.6657 N.ar    1  UNL1       -0.2743
     19 C          16.6349   69.5818   -4.7961 C.ar    1  UNL1        0.3323
     20 C          17.2927   71.8621   -4.2686 C.ar    1  UNL1        0.0869
     21 C          16.5032   71.9348   -3.1950 C.ar    1  UNL1        0.0795
     22 C          15.6767   70.7677   -2.8250 C.ar    1  UNL1        0.2626
     23 H          15.2744   68.8798   -3.4461 H       1  UNL1        0.1734
     24 O          22.2359   73.9350   -3.3874 O.3     1  UNL1       -0.2703
     25 P          22.4424   74.9550   -2.1505 P.3     1  UNL1        0.2208
     26 O          21.2165   75.9971   -2.3203 O.co2   1  UNL1       -0.4371
     27 O          23.7987   75.5970   -2.1022 O.2     1  UNL1       -0.5170
     28 O          22.0644   74.0909   -0.8408 O.3     1  UNL1       -0.2858
     29 O          23.3231   73.8351    1.1508 O.3     1  UNL1       -0.3258
     30 O          21.5611   70.1037    1.0001 O.3     1  UNL1       -0.3794
     31 O          20.6752   72.0121    2.9548 O.3     1  UNL1       -0.3794
     32 O          22.4561   71.3775   -1.4404 O.3     1  UNL1       -0.3775
     33 C          21.6298   71.5205    0.8175 C.3     1  UNL1        0.1715
     34 C          21.8629   72.1692    2.1834 C.3     1  UNL1        0.1694
     35 C          22.7785   71.8459   -0.1353 C.3     1  UNL1        0.1967
     36 C          22.2127   73.6563    2.0379 C.3     1  UNL1        0.1761
     37 C          23.0767   73.3459   -0.1690 C.3     1  UNL1        0.2704
     38 H          20.8334   69.8902    1.6037 H       1  UNL1        0.2105
     39 H          20.4652   71.0687    3.0387 H       1  UNL1        0.2105
     40 H          22.2697   70.4268   -1.4057 H       1  UNL1        0.2106
     41 O          21.6620   75.2958    3.6864 O.3     1  UNL1       -0.3794
     42 C          22.6030   74.2854    3.3735 C.3     1  UNL1        0.1693
     43 H          21.8976   75.7049    4.5343 H       1  UNL1        0.2105
@<TRIPOS>UNITY_ATOM_ATTR
2 1
charge -1
26 1
charge -1
@<TRIPOS>BOND
     1    25    28    1
     2    25    24    1
     3    25    26    1
     4    25    27    2
     5     1     4    1
     6     1    24    1
     7     1     2    1
     8     1     3    2
     9     6    11    1
    10     6    12    1
    11    29    36    1
    12    29    37    1
    13     7     9    1
    14     7    13    1
    15     8    10    1
    16     8    14    1
    17    28    37    1
    18     4     5    1
    19    30    33    1
    20    30    38    1
    21    31    34    1
    22    31    39    1
    23    32    35    1
    24    32    40    1
    25    41    42    1
    26    41    43    1
    27    15    19    2
    28    16    22    2
    29    17    12    1
    30    17    19   ar
    31    17    20   ar
    32    18    19   ar
    33    18    22   ar
    34    18    23    1
    35     9    10    1
    36     9    11    1
    37    10    12    1
    38    11     5    1
    39    33    34    1
    40    33    35    1
    41    34    36    1
    42    35    37    1
    43    36    42    1
    44    20    21   ar
    45    21    22   ar
@<TRIPOS>MOLECULE
*****
 43 45 0 0 0
SMALL
GASTEIGER

@<TRIPOS>ATOM
      1 P          20.8282   71.8475   -3.2151 P.3     1  UNL1        0.2189
      2 O          21.3574   70.3603   -2.8607 O.co2   1  UNL1       -0.4371
      3 O          19.8770   72.4367   -2.2154 O.2     1  UNL1       -0.5170
      4 O          20.2638   71.7092   -4.7252 O.3     1  UNL1       -0.3112
      5 C          19.6112   70.5073   -5.0957 C.3     1  UNL1        0.1811
      6 O          17.4607   71.3342   -4.4133 O.3     1  UNL1       -0.3308
      7 O          16.9909   68.6107   -3.2502 O.3     1  UNL1       -0.3794
      8 O          15.6010   68.5039   -5.5939 O.3     1  UNL1       -0.3779
      9 C          17.6884   68.9755   -4.4400 C.3     1  UNL1        0.1713
     10 C          16.7080   69.3792   -5.5214 C.3     1  UNL1        0.1895
     11 C          18.4221   70.2836   -4.1715 C.3     1  UNL1        0.1764
     12 C          16.3174   70.7810   -5.0853 C.3     1  UNL1        0.2383
     13 H          16.5149   67.7778   -3.3971 H       1  UNL1        0.2105
     14 H          15.9010   67.6255   -5.8754 H       1  UNL1        0.2106
     15 O          16.9285   70.1973   -7.7804 O.2     1  UNL1       -0.2464
     16 O          14.9589   74.0920   -9.2616 O.2     1  UNL1       -0.2670
     17 N          15.9757   71.6248   -6.1956 N.ar    1  UNL1       -0.2551
     18 N          15.9471   72.1370   -8.5157 N.ar    1  UNL1       -0.2743
     19 C          16.3295   71.2403   -7.5099 C.ar    1  UNL1        0.3323
     20 C          15.2971   72.8185   -5.9757 C.ar    1  UNL1        0.0869
     21 C          14.9408   73.6632   -6.9457 C.ar    1  UNL1        0.0795
     22 C          15.2727   73.3359   -8.3474 C.ar    1  UNL1        0.2626
     23 H          16.1834   71.8901   -9.4393 H       1  UNL1        0.1734
     24 O          22.1977   72.6828   -3.4142 O.3     1  UNL1       -0.2703
     25 P          23.7160   72.3542   -2.9674 P.3     1  UNL1        0.2208
     26 O          24.5937   73.3934   -3.8433 O.co2   1  UNL1       -0.4371
     27 O          24.1095   70.9153   -3.1365 O.2     1  UNL1       -0.5170
     28 O          23.8245   72.9038   -1.4538 O.3     1  UNL1       -0.2858
     29 O          23.6549   71.5641    0.4938 O.3     1  UNL1       -0.3258
     30 O          22.2470   75.1321    2.0228 O.3     1  UNL1       -0.3794
     31 O          24.8537   74.1949    2.7808 O.3     1  UNL1       -0.3794
     32 O          21.5427   74.3371   -0.6701 O.3     1  UNL1       -0.3775
     33 C          23.0664   74.3024    1.1949 C.3     1  UNL1        0.1715
     34 C          23.8947   73.3895    2.1013 C.3     1  UNL1        0.1694
     35 C          22.1706   73.4762    0.2739 C.3     1  UNL1        0.1967
     36 C          24.5970   72.2925    1.2898 C.3     1  UNL1        0.1761
     37 C          22.9590   72.3824   -0.4486 C.3     1  UNL1        0.2704
     38 H          22.8097   75.6597    2.6097 H       1  UNL1        0.2105
     39 H          24.3973   74.8839    3.2890 H       1  UNL1        0.2105
     40 H          21.0466   75.0249   -0.2002 H       1  UNL1        0.2106
     41 O          24.7278   70.0032    1.9612 O.3     1  UNL1       -0.3794
     42 C          25.3003   71.2778    2.1886 C.3     1  UNL1        0.1693
     43 H          25.1658   69.3471    2.5263 H       1  UNL1        0.2105
@<TRIPOS>UNITY_ATOM_ATTR
2 1
charge -1
26 1
charge -1
@<TRIPOS>BOND
     1    25    28    1
     2    25    24    1
     3    25    26    1
     4    25    27    2
     5     1     4    1
     6     1    24    1
     7     1     2    1
     8     1     3    2
     9     6    11    1
    10     6    12    1
    11    29    36    1
    12    29    37    1
    13     7     9    1
    14     7    13    1
    15     8    10    1
    16     8    14    1
    17    28    37    1
    18     4     5    1
    19    30    33    1
    20    30    38    1
    21    31    34    1
    22    31    39    1
    23    32    35    1
    24    32    40    1
    25    41    42    1
    26    41    43    1
    27    15    19    2
    28    16    22    2
    29    17    12    1
    30    17    19   ar
    31    17    20   ar
    32    18    19   ar
    33    18    22   ar
    34    18    23    1
    35     9    10    1
    36     9    11    1
    37    10    12    1
    38    11     5    1
    39    33    34    1
    40    33    35    1
    41    34    36    1
    42    35    37    1
    43    36    42    1
    44    20    21   ar
    45    21    22   ar
@<TRIPOS>MOLECULE
*****
 43 45 0 0 0
SMALL
GASTEIGER

@<TRIPOS>ATOM
      1 P          22.8191   71.8124   -3.0521 P.3     1  UNL1        0.2189
      2 O          24.0961   70.8200   -3.0938 O.co2   1  UNL1       -0.4371
      3 O          22.6953   72.7357   -4.2285 O.2     1  UNL1       -0.5170
      4 O          22.9308   72.5286   -1.6056 O.3     1  UNL1       -0.3112
      5 C          23.9531   72.1071   -0.7196 C.3     1  UNL1        0.1811
      6 O          24.0932   71.1698    1.4885 O.3     1  UNL1       -0.3308
      7 O          21.3609   70.0437    0.9809 O.3     1  UNL1       -0.3794
      8 O          20.8270   72.2239    2.5295 O.3     1  UNL1       -0.3779
      9 C          21.9142   71.2912    0.5650 C.3     1  UNL1        0.1713
     10 C          21.9967   72.2467    1.7371 C.3     1  UNL1        0.1895
     11 C          23.3842   71.0656    0.2343 C.3     1  UNL1        0.1764
     12 C          23.2165   71.7291    2.4802 C.3     1  UNL1        0.2383
     13 H          20.4223   70.1625    1.1972 H       1  UNL1        0.2105
     14 H          20.0794   72.5623    2.0126 H       1  UNL1        0.2106
     15 O          22.4311   72.7590    4.9902 O.2     1  UNL1       -0.2464
     16 O          25.9594   75.7228    5.0834 O.2     1  UNL1       -0.2670
     17 N          23.9119   72.7699    3.1835 N.ar    1  UNL1       -0.2551
     18 N          24.1886   74.2338    5.0346 N.ar    1  UNL1       -0.2743
     19 C          23.4340   73.2159    4.4378 C.ar    1  UNL1        0.3323
     20 C          25.0544   73.3370    2.6294 C.ar    1  UNL1        0.0869
     21 C          25.7619   74.3078    3.2108 C.ar    1  UNL1        0.0795
     22 C          25.3302   74.8305    4.5232 C.ar    1  UNL1        0.2626
     23 H          23.8744   74.5606    5.9088 H       1  UNL1        0.1734
     24 O          21.5759   70.7973   -2.8600 O.3     1  UNL1       -0.2703
     25 P          19.9854   71.0715   -2.7716 P.3     1  UNL1        0.2208
     26 O          19.8976   72.6664   -2.5142 O.co2   1  UNL1       -0.4371
     27 O          19.2734   70.2385   -1.7453 O.2     1  UNL1       -0.5170
     28 O          19.4519   70.8724   -4.2818 O.3     1  UNL1       -0.2858
     29 O          19.6933   71.9014   -6.4030 O.3     1  UNL1       -0.3258
     30 O          15.5713   71.7580   -6.2045 O.3     1  UNL1       -0.3794
     31 O          16.9676   69.9881   -7.9837 O.3     1  UNL1       -0.3794
     32 O          17.1116   72.3526   -3.8268 O.3     1  UNL1       -0.3775
     33 C          16.9037   71.2901   -5.9783 C.3     1  UNL1        0.1715
     34 C          17.5819   71.0989   -7.3364 C.3     1  UNL1        0.1694
     35 C          17.6590   72.3201   -5.1405 C.3     1  UNL1        0.1967
     36 C          19.0885   70.8567   -7.1741 C.3     1  UNL1        0.1761
     37 C          19.1566   72.0132   -5.0834 C.3     1  UNL1        0.2704
     38 H          15.0862   71.1084   -6.7356 H       1  UNL1        0.2105
     39 H          16.0165   70.1535   -8.0796 H       1  UNL1        0.2105
     40 H          16.1634   72.5481   -3.8765 H       1  UNL1        0.2106
     41 O          19.5591   69.5681   -9.1303 O.3     1  UNL1       -0.3794
     42 C          19.8102   70.8203   -8.5194 C.3     1  UNL1        0.1693
     43 H          20.0120   69.5307   -9.9878 H       1  UNL1        0.2105
@<TRIPOS>UNITY_ATOM_ATTR
2 1
charge -1
26 1
charge -1
@<TRIPOS>BOND
     1    25    28    1
     2    25    24    1
     3    25    26    1
     4    25    27    2
     5     1     4    1
     6     1    24    1
     7     1     2    1
     8     1     3    2
     9     6    11    1
    10     6    12    1
    11    29    36    1
    12    29    37    1
    13     7     9    1
    14     7    13    1
    15     8    10    1
    16     8    14    1
    17    28    37    1
    18     4     5    1
    19    30    33    1
    20    30    38    1
    21    31    34    1
    22    31    39    1
    23    32    35    1
    24    32    40    1
    25    41    42    1
    26    41    43    1
    27    15    19    2
    28    16    22    2
    29    17    12    1
    30    17    19   ar
    31    17    20   ar
    32    18    19   ar
    33    18    22   ar
    34    18    23    1
    35     9    10    1
    36     9    11    1
    37    10    12    1
    38    11     5    1
    39    33    34    1
    40    33    35    1
    41    34    36    1
    42    35    37    1
    43    36    42    1
    44    20    21   ar
    45    21    22   ar
