@<TRIPOS>MOLECULE
UD2
 46 48 0 0 0
SMALL
GASTEIGER

@<TRIPOS>ATOM
      1 P          22.2261   71.2092   -2.8629 P.3     1  UNL1        0.2189
      2 O          21.7354   69.6776   -2.9321 O.3     1  UNL1       -0.4371
      3 O          23.4333   71.3794   -3.7011 O.2     1  UNL1       -0.5170
      4 O          21.0554   72.1727   -3.4059 O.3     1  UNL1       -0.3112
      5 C          20.0113   72.6744   -2.5694 C.3     1  UNL1        0.1811
      6 C          17.8684   71.5257   -5.2199 C.3     1  UNL1        0.2383
      7 C          18.0349   70.2952   -4.2924 C.3     1  UNL1        0.1895
      8 O          16.8680   69.4711   -4.3239 O.3     1  UNL1       -0.3779
      9 C          18.2069   70.9562   -2.9028 C.3     1  UNL1        0.1713
     10 C          18.6558   72.3948   -3.2231 C.3     1  UNL1        0.1764
     11 O          18.7711   72.4991   -4.6512 O.3     1  UNL1       -0.3308
     12 O          16.9647   70.9648   -2.1973 O.3     1  UNL1       -0.3794
     13 H          16.9239   68.6879   -3.7599 H       1  UNL1        0.2106
     14 H          16.6056   70.0848   -2.0208 H       1  UNL1        0.2105
     15 N          18.2628   71.1952   -6.5911 N.ar    1  UNL1       -0.2551
     16 C          17.3248   70.8398   -7.4870 C.ar    1  UNL1        0.3323
     17 N          17.6586   70.5306   -8.7540 N.ar    1  UNL1       -0.2743
     18 C          18.9481   70.5750   -9.1462 C.ar    1  UNL1        0.2626
     19 C          19.9458   70.9485   -8.2138 C.ar    1  UNL1        0.0795
     20 C          19.5820   71.2574   -6.9514 C.ar    1  UNL1        0.0869
     21 O          16.1581   70.7956   -7.1474 O.2     1  UNL1       -0.2464
     22 O          19.2515   70.2958  -10.2927 O.2     1  UNL1       -0.2670
     23 H          16.9699   70.2752   -9.3869 H       1  UNL1        0.1734
     24 O          22.5726   71.5937   -1.3380 O.3     1  UNL1       -0.2703
     25 P          22.5361   70.7858    0.0545 P.3     1  UNL1        0.2208
     26 O          21.1464   69.9801    0.1706 O.3     1  UNL1       -0.4371
     27 O          23.6647   69.8306    0.1007 O.2     1  UNL1       -0.5170
     28 O          22.6597   71.8229    1.2799 O.3     1  UNL1       -0.2865
     29 C          21.6859   72.8342    1.5451 C.3     1  UNL1        0.2611
     30 C          22.2551   74.2037    1.1668 C.3     1  UNL1        0.1582
     31 C          23.4795   74.4968    2.0394 C.3     1  UNL1        0.1625
     32 C          23.0716   74.4248    3.5134 C.3     1  UNL1        0.1686
     33 C          22.4708   73.0463    3.8013 C.3     1  UNL1        0.1760
     34 O          23.9738   75.8051    1.7440 O.3     1  UNL1       -0.3801
     35 O          22.1016   75.4365    3.7906 O.3     1  UNL1       -0.3794
     36 O          21.3558   72.8242    2.9355 O.3     1  UNL1       -0.3263
     37 H          24.7512   76.0574    2.2609 H       1  UNL1        0.2105
     38 H          21.7965   75.4490    4.7086 H       1  UNL1        0.2105
     39 C          22.4003   75.2709   -1.0190 C.2     1  UNL1        0.2231
     40 C          22.8058   75.2647   -2.4695 C.3     1  UNL1        0.0946
     41 N          22.6497   74.1969   -0.2441 N.am    1  UNL1       -0.2994
     42 O          21.8486   76.2432   -0.5473 O.2     1  UNL1       -0.2751
     43 H          23.0898   73.4189   -0.6211 H       1  UNL1        0.1496
     44 C          22.0058   72.9869    5.2576 C.3     1  UNL1        0.1693
     45 O          20.6084   73.2787    5.3245 O.3     1  UNL1       -0.3794
     46 H          20.2444   73.2589    6.2202 H       1  UNL1        0.2105
@<TRIPOS>BOND
     1    29    30    1
     2    30    41    1
     3    30    31    1
     4    31    34    1
     5    31    32    1
     6    32    35    1
     7    32    33    1
     8    33    36    1
     9    33    44    1
    10    39    40    1
    11    39    42    2
    12    39    41   am
    13    41    43    1
    14    29    28    1
    15    34    37    1
    16    35    38    1
    17    29    36    1
    18    44    45    1
    19    45    46    1
    20    15     6    1
    21    15    16   ar
    22    16    21    2
    23    16    17   ar
    24    17    23    1
    25    17    18   ar
    26    18    19   ar
    27    19    20   ar
    28    15    20   ar
    29    18    22    2
    30     6     7    1
    31     6    11    1
    32     7     9    1
    33     7     8    1
    34     8    13    1
    35     9    10    1
    36     9    12    1
    37    10     5    1
    38    10    11    1
    39    12    14    1
    40     5     4    1
    41     4     1    1
    42     1     2    1
    43     1    24    1
    44     1     3    2
    45    24    25    1
    46    28    25    1
    47    25    26    1
    48    25    27    2
@<TRIPOS>MOLECULE
UD2
 46 48 0 0 0
SMALL
GASTEIGER

@<TRIPOS>ATOM
      1 P          22.2845   71.4304   -2.9670 P.3     1  UNL1        0.2189
      2 O          22.1010   69.8320   -3.0208 O.3     1  UNL1       -0.4371
      3 O          23.4545   71.8210   -3.7839 O.2     1  UNL1       -0.5170
      4 O          20.9621   72.1421   -3.5487 O.3     1  UNL1       -0.3112
      5 C          19.9007   72.6103   -2.7146 C.3     1  UNL1        0.1811
      6 C          17.8042   71.4210   -5.3842 C.3     1  UNL1        0.2383
      7 C          17.9813   70.1954   -4.4523 C.3     1  UNL1        0.1895
      8 O          16.8285   69.3522   -4.4939 O.3     1  UNL1       -0.3779
      9 C          18.1282   70.8621   -3.0625 C.3     1  UNL1        0.1713
     10 C          18.5567   72.3071   -3.3815 C.3     1  UNL1        0.1764
     11 O          18.6849   72.4102   -4.8085 O.3     1  UNL1       -0.3308
     12 O          16.8789   70.8518   -2.3697 O.3     1  UNL1       -0.3794
     13 H          16.8915   68.5712   -3.9275 H       1  UNL1        0.2106
     14 H          16.5325   69.9664   -2.1950 H       1  UNL1        0.2105
     15 N          18.2180   71.0941   -6.7506 N.ar    1  UNL1       -0.2551
     16 C          17.2985   70.6981   -7.6486 C.ar    1  UNL1        0.3323
     17 N          17.6504   70.3912   -8.9112 N.ar    1  UNL1       -0.2743
     18 C          18.9397   70.4789   -9.2968 C.ar    1  UNL1        0.2626
     19 C          19.9179   70.8954   -8.3621 C.ar    1  UNL1        0.0795
     20 C          19.5362   71.2009   -7.1042 C.ar    1  UNL1        0.0869
     21 O          16.1322   70.6147   -7.3150 O.2     1  UNL1       -0.2464
     22 O          19.2595   70.2018  -10.4394 O.2     1  UNL1       -0.2670
     23 H          16.9749   70.1062   -9.5457 H       1  UNL1        0.1734
     24 O          22.5155   71.8933   -1.4420 O.3     1  UNL1       -0.2703
     25 P          22.1689   71.2412   -0.0111 P.3     1  UNL1        0.2208
     26 O          20.8831   70.2823   -0.1562 O.3     1  UNL1       -0.4371
     27 O          23.3241   70.4479    0.4626 O.2     1  UNL1       -0.5170
     28 O          21.8498   72.4109    1.0485 O.3     1  UNL1       -0.2865
     29 C          22.1379   73.7877    0.7983 C.3     1  UNL1        0.2611
     30 C          22.2457   74.5373    2.1284 C.3     1  UNL1        0.1582
     31 C          20.8985   74.4684    2.8541 C.3     1  UNL1        0.1625
     32 C          19.8115   75.0504    1.9463 C.3     1  UNL1        0.1686
     33 C          19.7974   74.2808    0.6229 C.3     1  UNL1        0.1760
     34 O          20.9682   75.2280    4.0630 O.3     1  UNL1       -0.3801
     35 O          20.0873   76.4295    1.6945 O.3     1  UNL1       -0.3794
     36 O          21.0881   74.3588    0.0146 O.3     1  UNL1       -0.3263
     37 H          20.1479   75.2276    4.5751 H       1  UNL1        0.2105
     38 H          19.4376   76.8634    1.1238 H       1  UNL1        0.2105
     39 C          24.0898   74.6834    3.7145 C.2     1  UNL1        0.2231
     40 C          25.1543   74.0450    4.5677 C.3     1  UNL1        0.0946
     41 N          23.2810   73.9156    2.9579 N.am    1  UNL1       -0.2994
     42 O          23.9600   75.8898    3.7079 O.2     1  UNL1       -0.2751
     43 H          23.3851   72.9511    2.9621 H       1  UNL1        0.1496
     44 C          18.7543   74.8947   -0.3128 C.3     1  UNL1        0.1693
     45 O          19.3731   75.8916   -1.1286 O.3     1  UNL1       -0.3794
     46 H          18.7694   76.3242   -1.7478 H       1  UNL1        0.2105
@<TRIPOS>BOND
     1    29    30    1
     2    30    41    1
     3    30    31    1
     4    31    34    1
     5    31    32    1
     6    32    35    1
     7    32    33    1
     8    33    36    1
     9    33    44    1
    10    39    40    1
    11    39    42    2
    12    39    41   am
    13    41    43    1
    14    29    28    1
    15    34    37    1
    16    35    38    1
    17    29    36    1
    18    44    45    1
    19    45    46    1
    20    15     6    1
    21    15    16   ar
    22    16    21    2
    23    16    17   ar
    24    17    23    1
    25    17    18   ar
    26    18    19   ar
    27    19    20   ar
    28    15    20   ar
    29    18    22    2
    30     6     7    1
    31     6    11    1
    32     7     9    1
    33     7     8    1
    34     8    13    1
    35     9    10    1
    36     9    12    1
    37    10     5    1
    38    10    11    1
    39    12    14    1
    40     5     4    1
    41     4     1    1
    42     1     2    1
    43     1    24    1
    44     1     3    2
    45    24    25    1
    46    28    25    1
    47    25    26    1
    48    25    27    2
@<TRIPOS>MOLECULE
UD2
 46 48 0 0 0
SMALL
GASTEIGER

@<TRIPOS>ATOM
      1 P          21.8712   70.6335   -0.1891 P.3     1  UNL1        0.2189
      2 O          21.9836   69.1872    0.5088 O.3     1  UNL1       -0.4371
      3 O          23.1510   70.9614   -0.8550 O.2     1  UNL1       -0.5170
      4 O          20.6879   70.6116   -1.2814 O.3     1  UNL1       -0.3112
      5 C          20.7758   71.2896   -2.5360 C.3     1  UNL1        0.1811
      6 C          18.2759   71.1674   -5.1191 C.3     1  UNL1        0.2383
      7 C          18.1216   69.8230   -4.3635 C.3     1  UNL1        0.1895
      8 O          16.7664   69.3714   -4.3975 O.3     1  UNL1       -0.3779
      9 C          18.5392   70.2094   -2.9235 C.3     1  UNL1        0.1713
     10 C          19.3694   71.4946   -3.1042 C.3     1  UNL1        0.1764
     11 O          19.4456   71.7599   -4.5139 O.3     1  UNL1       -0.3308
     12 O          17.3854   70.4673   -2.1217 O.3     1  UNL1       -0.3794
     13 H          16.6191   68.5334   -3.9385 H       1  UNL1        0.2106
     14 H          16.7959   69.7075   -2.0235 H       1  UNL1        0.2105
     15 N          18.4962   70.9336   -6.5480 N.ar    1  UNL1       -0.2551
     16 C          17.4415   70.7933   -7.3707 C.ar    1  UNL1        0.3323
     17 N          17.6144   70.5775   -8.6882 N.ar    1  UNL1       -0.2743
     18 C          18.8572   70.5001   -9.2059 C.ar    1  UNL1        0.2626
     19 C          19.9765   70.6471   -8.3517 C.ar    1  UNL1        0.0795
     20 C          19.7737   70.8668   -7.0356 C.ar    1  UNL1        0.0869
     21 O          16.3152   70.8609   -6.9177 O.2     1  UNL1       -0.2464
     22 O          19.0151   70.3052  -10.3982 O.2     1  UNL1       -0.2670
     23 H          16.8430   70.4773   -9.2670 H       1  UNL1        0.1734
     24 O          21.5474   71.7458    0.9295 O.3     1  UNL1       -0.2703
     25 P          21.4856   73.3548    0.9210 P.3     1  UNL1        0.2208
     26 O          22.6570   73.9314   -0.0219 O.3     1  UNL1       -0.4371
     27 O          20.1727   73.7956    0.4010 O.2     1  UNL1       -0.5170
     28 O          21.6824   73.9073    2.4206 O.3     1  UNL1       -0.2865
     29 C          22.5691   73.3018    3.3632 C.3     1  UNL1        0.2611
     30 C          22.1506   73.6924    4.7827 C.3     1  UNL1        0.1582
     31 C          22.2699   75.2113    4.9411 C.3     1  UNL1        0.1625
     32 C          23.7060   75.6359    4.6217 C.3     1  UNL1        0.1686
     33 C          24.0645   75.1702    3.2080 C.3     1  UNL1        0.1760
     34 O          21.9515   75.5774    6.2857 O.3     1  UNL1       -0.3801
     35 O          24.6007   75.0399    5.5628 O.3     1  UNL1       -0.3794
     36 O          23.9030   73.7532    3.1197 O.3     1  UNL1       -0.3263
     37 H          22.0060   76.5274    6.4577 H       1  UNL1        0.2105
     38 H          25.5305   75.2657    5.4198 H       1  UNL1        0.2105
     39 C          19.7569   74.1482    4.7757 C.2     1  UNL1        0.2231
     40 C          18.3299   73.7286    5.0127 C.3     1  UNL1        0.0946
     41 N          20.7628   73.2836    5.0137 N.am    1  UNL1       -0.2994
     42 O          20.0015   75.2654    4.3704 O.2     1  UNL1       -0.2751
     43 H          20.5678   72.3906    5.3387 H       1  UNL1        0.1496
     44 C          25.5179   75.5382    2.9034 C.3     1  UNL1        0.1693
     45 O          25.7767   76.8703    3.3514 O.3     1  UNL1       -0.3794
     46 H          26.6814   77.1713    3.1902 H       1  UNL1        0.2105
@<TRIPOS>BOND
     1    29    30    1
     2    30    41    1
     3    30    31    1
     4    31    34    1
     5    31    32    1
     6    32    35    1
     7    32    33    1
     8    33    36    1
     9    33    44    1
    10    39    40    1
    11    39    42    2
    12    39    41   am
    13    41    43    1
    14    29    28    1
    15    34    37    1
    16    35    38    1
    17    29    36    1
    18    44    45    1
    19    45    46    1
    20    15     6    1
    21    15    16   ar
    22    16    21    2
    23    16    17   ar
    24    17    23    1
    25    17    18   ar
    26    18    19   ar
    27    19    20   ar
    28    15    20   ar
    29    18    22    2
    30     6     7    1
    31     6    11    1
    32     7     9    1
    33     7     8    1
    34     8    13    1
    35     9    10    1
    36     9    12    1
    37    10     5    1
    38    10    11    1
    39    12    14    1
    40     5     4    1
    41     4     1    1
    42     1     2    1
    43     1    24    1
    44     1     3    2
    45    24    25    1
    46    28    25    1
    47    25    26    1
    48    25    27    2
@<TRIPOS>MOLECULE
UD2
 46 48 0 0 0
SMALL
GASTEIGER

@<TRIPOS>ATOM
      1 P          22.8945   72.0454   -3.3533 P.3     1  UNL1        0.2189
      2 O          23.4281   70.5268   -3.3322 O.3     1  UNL1       -0.4371
      3 O          23.6074   72.8049   -4.4040 O.2     1  UNL1       -0.5170
      4 O          21.3141   72.0545   -3.6631 O.3     1  UNL1       -0.3112
      5 C          20.3209   72.0563   -2.6360 C.3     1  UNL1        0.1811
      6 C          18.0085   71.3337   -5.2945 C.3     1  UNL1        0.2383
      7 C          18.0385   70.0400   -4.4417 C.3     1  UNL1        0.1895
      8 O          16.7790   69.3670   -4.4913 O.3     1  UNL1       -0.3779
      9 C          18.3139   70.5926   -3.0217 C.3     1  UNL1        0.1713
     10 C          18.9304   71.9822   -3.2716 C.3     1  UNL1        0.1764
     11 O          19.0333   72.1552   -4.6939 O.3     1  UNL1       -0.3308
     12 O          17.0943   70.7107   -2.2872 O.3     1  UNL1       -0.3794
     13 H          16.7480   68.5511   -3.9736 H       1  UNL1        0.2106
     14 H          16.6330   69.8721   -2.1518 H       1  UNL1        0.2105
     15 N          18.3360   71.0386   -6.6911 N.ar    1  UNL1       -0.2551
     16 C          17.3485   70.7812   -7.5671 C.ar    1  UNL1        0.3323
     17 N          17.6204   70.5066   -8.8566 N.ar    1  UNL1       -0.2743
     18 C          18.8966   70.4875   -9.2920 C.ar    1  UNL1        0.2626
     19 C          19.9459   70.7578   -8.3810 C.ar    1  UNL1        0.0795
     20 C          19.6441   71.0341   -7.0949 C.ar    1  UNL1        0.0869
     21 O          16.1931   70.7951   -7.1886 O.2     1  UNL1       -0.2464
     22 O          19.1440   70.2396  -10.4590 O.2     1  UNL1       -0.2670
     23 H          16.8965   70.3220   -9.4747 H       1  UNL1        0.1734
     24 O          23.1637   72.7291   -1.9203 O.3     1  UNL1       -0.2703
     25 P          23.2713   74.2530   -1.4113 P.3     1  UNL1        0.2208
     26 O          24.7200   74.8446   -1.7923 O.3     1  UNL1       -0.4371
     27 O          22.2205   75.0660   -2.0618 O.2     1  UNL1       -0.5170
     28 O          23.0751   74.3002    0.1862 O.3     1  UNL1       -0.2865
     29 C          21.8160   74.0752    0.8228 C.3     1  UNL1        0.2611
     30 C          21.9479   74.3402    2.3245 C.3     1  UNL1        0.1582
     31 C          22.9544   73.3522    2.9221 C.3     1  UNL1        0.1625
     32 C          22.4906   71.9239    2.6233 C.3     1  UNL1        0.1686
     33 C          22.3378   71.7520    1.1097 C.3     1  UNL1        0.1760
     34 O          23.0291   73.5440    4.3367 O.3     1  UNL1       -0.3801
     35 O          21.2341   71.6866    3.2607 O.3     1  UNL1       -0.3794
     36 O          21.4120   72.7205    0.6129 O.3     1  UNL1       -0.3263
     37 H          23.6498   72.9507    4.7814 H       1  UNL1        0.2105
     38 H          20.8789   70.7989    3.1130 H       1  UNL1        0.2105
     39 C          23.7396   75.9595    2.6491 C.2     1  UNL1        0.2231
     40 C          24.2254   77.3679    2.8704 C.3     1  UNL1        0.0946
     41 N          22.4197   75.7104    2.5400 N.am    1  UNL1       -0.2994
     42 O          24.5366   75.0482    2.5690 O.2     1  UNL1       -0.2751
     43 H          21.7820   76.4385    2.6050 H       1  UNL1        0.1496
     44 C          21.8173   70.3458    0.8063 C.3     1  UNL1        0.1693
     45 O          22.9117   69.4985    0.4502 O.3     1  UNL1       -0.3794
     46 H          22.6550   68.5893    0.2441 H       1  UNL1        0.2105
@<TRIPOS>BOND
     1    29    30    1
     2    30    41    1
     3    30    31    1
     4    31    34    1
     5    31    32    1
     6    32    35    1
     7    32    33    1
     8    33    36    1
     9    33    44    1
    10    39    40    1
    11    39    42    2
    12    39    41   am
    13    41    43    1
    14    29    28    1
    15    34    37    1
    16    35    38    1
    17    29    36    1
    18    44    45    1
    19    45    46    1
    20    15     6    1
    21    15    16   ar
    22    16    21    2
    23    16    17   ar
    24    17    23    1
    25    17    18   ar
    26    18    19   ar
    27    19    20   ar
    28    15    20   ar
    29    18    22    2
    30     6     7    1
    31     6    11    1
    32     7     9    1
    33     7     8    1
    34     8    13    1
    35     9    10    1
    36     9    12    1
    37    10     5    1
    38    10    11    1
    39    12    14    1
    40     5     4    1
    41     4     1    1
    42     1     2    1
    43     1    24    1
    44     1     3    2
    45    24    25    1
    46    28    25    1
    47    25    26    1
    48    25    27    2
@<TRIPOS>MOLECULE
UD2
 46 48 0 0 0
SMALL
GASTEIGER

@<TRIPOS>ATOM
      1 P          22.1067   70.8511   -2.5503 P.3     1  UNL1        0.2189
      2 O          23.5413   70.6091   -3.2394 O.3     1  UNL1       -0.4371
      3 O          21.5173   69.5495   -2.1665 O.2     1  UNL1       -0.5170
      4 O          22.2897   71.7655   -1.2372 O.3     1  UNL1       -0.3112
      5 C          21.2237   72.0390   -0.3259 C.3     1  UNL1        0.1811
      6 C          21.6694   74.6336    2.1248 C.3     1  UNL1        0.2383
      7 C          23.0872   74.3975    1.5449 C.3     1  UNL1        0.1895
      8 O          23.8559   75.6017    1.5710 O.3     1  UNL1       -0.3779
      9 C          22.7765   73.9719    0.0890 C.3     1  UNL1        0.1713
     10 C          21.3127   73.4941    0.1406 C.3     1  UNL1        0.1764
     11 O          20.8769   73.5972    1.5055 O.3     1  UNL1       -0.3308
     12 O          22.9086   75.0859   -0.7954 O.3     1  UNL1       -0.3794
     13 H          24.7511   75.5049    1.2189 H       1  UNL1        0.2106
     14 H          23.7976   75.4645   -0.8223 H       1  UNL1        0.2105
     15 N          21.6752   74.4784    3.5811 N.ar    1  UNL1       -0.2551
     16 C          21.7479   73.2483    4.1199 C.ar    1  UNL1        0.3323
     17 N          21.7549   73.0760    5.4550 N.ar    1  UNL1       -0.2743
     18 C          21.6905   74.1428    6.2773 C.ar    1  UNL1        0.2626
     19 C          21.6146   75.4436    5.7238 C.ar    1  UNL1        0.0795
     20 C          21.6137   75.5871    4.3818 C.ar    1  UNL1        0.0869
     21 O          21.8067   72.2772    3.3905 O.2     1  UNL1       -0.2464
     22 O          21.6971   73.9883    7.4859 O.2     1  UNL1       -0.2670
     23 H          21.8065   72.1820    5.8269 H       1  UNL1        0.1734
     24 O          21.1301   71.5970   -3.5910 O.3     1  UNL1       -0.2703
     25 P          21.3295   72.7926   -4.6510 P.3     1  UNL1        0.2208
     26 O          21.2643   74.2066   -3.8829 O.3     1  UNL1       -0.4371
     27 O          22.6452   72.6514   -5.3124 O.2     1  UNL1       -0.5170
     28 O          20.1621   72.7284   -5.7581 O.3     1  UNL1       -0.2865
     29 C          18.7757   72.8511   -5.4355 C.3     1  UNL1        0.2611
     30 C          18.0410   71.5713   -5.8419 C.3     1  UNL1        0.1582
     31 C          18.1512   71.3894   -7.3588 C.3     1  UNL1        0.1625
     32 C          17.5834   72.6302   -8.0535 C.3     1  UNL1        0.1686
     33 C          18.3360   73.8694   -7.5618 C.3     1  UNL1        0.1760
     34 O          17.4060   70.2363   -7.7566 O.3     1  UNL1       -0.3801
     35 O          16.1951   72.7588   -7.7417 O.3     1  UNL1       -0.3794
     36 O          18.2195   73.9627   -6.1406 O.3     1  UNL1       -0.3263
     37 H          17.4324   70.0601   -8.7071 H       1  UNL1        0.2105
     38 H          15.7693   73.5262   -8.1489 H       1  UNL1        0.2105
     39 C          17.9347   69.7122   -4.2702 C.2     1  UNL1        0.2231
     40 C          18.5586   68.5309   -3.5747 C.3     1  UNL1        0.0946
     41 N          18.6488   70.4225   -5.1656 N.am    1  UNL1       -0.2994
     42 O          16.7884   70.0250   -4.0245 O.2     1  UNL1       -0.2751
     43 H          19.5656   70.1733   -5.3615 H       1  UNL1        0.1496
     44 C          17.7349   75.1199   -8.2063 C.3     1  UNL1        0.1693
     45 O          18.7733   76.0644   -8.4746 O.3     1  UNL1       -0.3794
     46 H          18.4642   76.8839   -8.8844 H       1  UNL1        0.2105
@<TRIPOS>BOND
     1    29    30    1
     2    30    41    1
     3    30    31    1
     4    31    34    1
     5    31    32    1
     6    32    35    1
     7    32    33    1
     8    33    36    1
     9    33    44    1
    10    39    40    1
    11    39    42    2
    12    39    41   am
    13    41    43    1
    14    29    28    1
    15    34    37    1
    16    35    38    1
    17    29    36    1
    18    44    45    1
    19    45    46    1
    20    15     6    1
    21    15    16   ar
    22    16    21    2
    23    16    17   ar
    24    17    23    1
    25    17    18   ar
    26    18    19   ar
    27    19    20   ar
    28    15    20   ar
    29    18    22    2
    30     6     7    1
    31     6    11    1
    32     7     9    1
    33     7     8    1
    34     8    13    1
    35     9    10    1
    36     9    12    1
    37    10     5    1
    38    10    11    1
    39    12    14    1
    40     5     4    1
    41     4     1    1
    42     1     2    1
    43     1    24    1
    44     1     3    2
    45    24    25    1
    46    28    25    1
    47    25    26    1
    48    25    27    2
@<TRIPOS>MOLECULE
UD2
 46 48 0 0 0
SMALL
GASTEIGER

@<TRIPOS>ATOM
      1 P          22.8184   72.0842   -3.2664 P.3     1  UNL1        0.2189
      2 O          23.4087   70.5876   -3.2107 O.3     1  UNL1       -0.4371
      3 O          23.5237   72.8546   -4.3143 O.2     1  UNL1       -0.5170
      4 O          21.2456   72.0282   -3.6083 O.3     1  UNL1       -0.3112
      5 C          20.2317   72.0125   -2.6018 C.3     1  UNL1        0.1811
      6 C          17.9638   71.3236   -5.3071 C.3     1  UNL1        0.2383
      7 C          17.9510   70.0326   -4.4496 C.3     1  UNL1        0.1895
      8 O          16.6804   69.3833   -4.5242 O.3     1  UNL1       -0.3779
      9 C          18.2062   70.5853   -3.0259 C.3     1  UNL1        0.1713
     10 C          18.8540   71.9622   -3.2670 C.3     1  UNL1        0.1764
     11 O          18.9907   72.1279   -4.6873 O.3     1  UNL1       -0.3308
     12 O          16.9736   70.7290   -2.3182 O.3     1  UNL1       -0.3794
     13 H          16.6229   68.5700   -4.0046 H       1  UNL1        0.2106
     14 H          16.4937   69.8997   -2.1900 H       1  UNL1        0.2105
     15 N          18.3156   71.0172   -6.6954 N.ar    1  UNL1       -0.2551
     16 C          17.3436   70.7519   -7.5862 C.ar    1  UNL1        0.3323
     17 N          17.6379   70.4669   -8.8686 N.ar    1  UNL1       -0.2743
     18 C          18.9215   70.4451   -9.2816 C.ar    1  UNL1        0.2626
     19 C          19.9548   70.7234   -8.3547 C.ar    1  UNL1        0.0795
     20 C          19.6305   71.0101   -7.0764 C.ar    1  UNL1        0.0869
     21 O          16.1818   70.7682   -7.2279 O.2     1  UNL1       -0.2464
     22 O          19.1893   70.1877  -10.4420 O.2     1  UNL1       -0.2670
     23 H          16.9249   70.2768   -9.4976 H       1  UNL1        0.1734
     24 O          23.0316   72.7990   -1.8392 O.3     1  UNL1       -0.2703
     25 P          23.0046   74.3298   -1.3406 P.3     1  UNL1        0.2208
     26 O          24.4713   74.9739   -1.5072 O.3     1  UNL1       -0.4371
     27 O          22.0346   75.0965   -2.1528 O.2     1  UNL1       -0.5170
     28 O          22.5679   74.3820    0.2084 O.3     1  UNL1       -0.2865
     29 C          23.3256   73.7670    1.2519 C.3     1  UNL1        0.2611
     30 C          22.4972   72.6532    1.8969 C.3     1  UNL1        0.1582
     31 C          21.2429   73.2631    2.5303 C.3     1  UNL1        0.1625
     32 C          21.6635   74.3335    3.5412 C.3     1  UNL1        0.1686
     33 C          22.5242   75.3827    2.8326 C.3     1  UNL1        0.1760
     34 O          20.5003   72.2407    3.1985 O.3     1  UNL1       -0.3801
     35 O          22.4174   73.7275    4.5927 O.3     1  UNL1       -0.3794
     36 O          23.6573   74.7454    2.2394 O.3     1  UNL1       -0.3263
     37 H          19.6908   72.5566    3.6228 H       1  UNL1        0.2105
     38 H          22.7181   74.3488    5.2706 H       1  UNL1        0.2105
     39 C          22.5670   70.4152    0.9355 C.2     1  UNL1        0.2231
     40 C          22.1646   69.4139   -0.1152 C.3     1  UNL1        0.0946
     41 N          22.1055   71.6799    0.8743 N.am    1  UNL1       -0.2994
     42 O          23.3073   70.0836    1.8379 O.2     1  UNL1       -0.2751
     43 H          21.5145   71.9458    0.1525 H       1  UNL1        0.1496
     44 C          22.9981   76.4239    3.8484 C.3     1  UNL1        0.1693
     45 O          24.0404   75.8666    4.6518 O.3     1  UNL1       -0.3794
     46 H          24.3897   76.4725    5.3195 H       1  UNL1        0.2105
@<TRIPOS>BOND
     1    29    30    1
     2    30    41    1
     3    30    31    1
     4    31    34    1
     5    31    32    1
     6    32    35    1
     7    32    33    1
     8    33    36    1
     9    33    44    1
    10    39    40    1
    11    39    42    2
    12    39    41   am
    13    41    43    1
    14    29    28    1
    15    34    37    1
    16    35    38    1
    17    29    36    1
    18    44    45    1
    19    45    46    1
    20    15     6    1
    21    15    16   ar
    22    16    21    2
    23    16    17   ar
    24    17    23    1
    25    17    18   ar
    26    18    19   ar
    27    19    20   ar
    28    15    20   ar
    29    18    22    2
    30     6     7    1
    31     6    11    1
    32     7     9    1
    33     7     8    1
    34     8    13    1
    35     9    10    1
    36     9    12    1
    37    10     5    1
    38    10    11    1
    39    12    14    1
    40     5     4    1
    41     4     1    1
    42     1     2    1
    43     1    24    1
    44     1     3    2
    45    24    25    1
    46    28    25    1
    47    25    26    1
    48    25    27    2
@<TRIPOS>MOLECULE
UD2
 46 48 0 0 0
SMALL
GASTEIGER

@<TRIPOS>ATOM
      1 P          21.9413   70.7177   -0.4204 P.3     1  UNL1        0.2189
      2 O          21.4846   69.4454    0.4537 O.3     1  UNL1       -0.4371
      3 O          23.0343   70.3216   -1.3355 O.2     1  UNL1       -0.5170
      4 O          20.6899   71.2552   -1.2799 O.3     1  UNL1       -0.3112
      5 C          20.7414   71.4394   -2.6958 C.3     1  UNL1        0.1811
      6 C          18.2218   71.1310   -5.2440 C.3     1  UNL1        0.2383
      7 C          18.1614   69.7886   -4.4717 C.3     1  UNL1        0.1895
      8 O          16.8367   69.2530   -4.4827 O.3     1  UNL1       -0.3779
      9 C          18.5720   70.2172   -3.0417 C.3     1  UNL1        0.1713
     10 C          19.3178   71.5495   -3.2475 C.3     1  UNL1        0.1764
     11 O          19.3597   71.8025   -4.6609 O.3     1  UNL1       -0.3308
     12 O          17.4144   70.4122   -2.2276 O.3     1  UNL1       -0.3794
     13 H          16.7479   68.4129   -4.0126 H       1  UNL1        0.2106
     14 H          16.8749   69.6183   -2.1132 H       1  UNL1        0.2105
     15 N          18.4384   70.8946   -6.6731 N.ar    1  UNL1       -0.2551
     16 C          17.3817   70.7800   -7.4972 C.ar    1  UNL1        0.3323
     17 N          17.5511   70.5624   -8.8148 N.ar    1  UNL1       -0.2743
     18 C          18.7924   70.4573   -9.3313 C.ar    1  UNL1        0.2626
     19 C          19.9138   70.5769   -8.4755 C.ar    1  UNL1        0.0795
     20 C          19.7145   70.7991   -7.1593 C.ar    1  UNL1        0.0869
     21 O          16.2567   70.8728   -7.0454 O.2     1  UNL1       -0.2464
     22 O          18.9472   70.2607  -10.5237 O.2     1  UNL1       -0.2670
     23 H          16.7783   70.4810   -9.3947 H       1  UNL1        0.1734
     24 O          22.4588   71.8853    0.5606 O.3     1  UNL1       -0.2703
     25 P          21.7587   72.7759    1.7050 P.3     1  UNL1        0.2208
     26 O          20.7881   73.8631    1.0195 O.3     1  UNL1       -0.4371
     27 O          20.9663   71.9005    2.5961 O.2     1  UNL1       -0.5170
     28 O          22.8911   73.5327    2.5638 O.3     1  UNL1       -0.2865
     29 C          22.7438   74.8728    3.0366 C.3     1  UNL1        0.2611
     30 C          24.0964   75.3927    3.5294 C.3     1  UNL1        0.1582
     31 C          24.5658   74.5329    4.7071 C.3     1  UNL1        0.1625
     32 C          23.4980   74.5621    5.8041 C.3     1  UNL1        0.1686
     33 C          22.1681   74.0741    5.2234 C.3     1  UNL1        0.1760
     34 O          25.7928   75.0563    5.2208 O.3     1  UNL1       -0.3801
     35 O          23.3469   75.8978    6.2882 O.3     1  UNL1       -0.3794
     36 O          21.8043   74.8970    4.1133 O.3     1  UNL1       -0.3263
     37 H          26.1491   74.5589    5.9697 H       1  UNL1        0.2105
     38 H          22.6841   75.9912    6.9867 H       1  UNL1        0.2105
     39 C          25.4002   76.4186    1.7447 C.2     1  UNL1        0.2231
     40 C          26.4079   76.3372    0.6283 C.3     1  UNL1        0.0946
     41 N          25.0765   75.3127    2.4434 N.am    1  UNL1       -0.2994
     42 O          24.8792   77.4804    2.0156 O.2     1  UNL1       -0.2751
     43 H          25.4921   74.4634    2.2265 H       1  UNL1        0.1496
     44 C          21.0819   74.1567    6.2976 C.3     1  UNL1        0.1693
     45 O          19.9063   73.4855    5.8399 O.3     1  UNL1       -0.3794
     46 H          19.1743   73.4980    6.4716 H       1  UNL1        0.2105
@<TRIPOS>BOND
     1    29    30    1
     2    30    41    1
     3    30    31    1
     4    31    34    1
     5    31    32    1
     6    32    35    1
     7    32    33    1
     8    33    36    1
     9    33    44    1
    10    39    40    1
    11    39    42    2
    12    39    41   am
    13    41    43    1
    14    29    28    1
    15    34    37    1
    16    35    38    1
    17    29    36    1
    18    44    45    1
    19    45    46    1
    20    15     6    1
    21    15    16   ar
    22    16    21    2
    23    16    17   ar
    24    17    23    1
    25    17    18   ar
    26    18    19   ar
    27    19    20   ar
    28    15    20   ar
    29    18    22    2
    30     6     7    1
    31     6    11    1
    32     7     9    1
    33     7     8    1
    34     8    13    1
    35     9    10    1
    36     9    12    1
    37    10     5    1
    38    10    11    1
    39    12    14    1
    40     5     4    1
    41     4     1    1
    42     1     2    1
    43     1    24    1
    44     1     3    2
    45    24    25    1
    46    28    25    1
    47    25    26    1
    48    25    27    2
@<TRIPOS>MOLECULE
UD2
 46 48 0 0 0
SMALL
GASTEIGER

@<TRIPOS>ATOM
      1 P          22.5974   72.9748   -3.5673 P.3     1  UNL1        0.2189
      2 O          22.6799   73.5363   -2.0608 O.3     1  UNL1       -0.4371
      3 O          23.9463   72.5648   -4.0161 O.2     1  UNL1       -0.5170
      4 O          21.6075   71.7054   -3.6133 O.3     1  UNL1       -0.3112
      5 C          20.6175   71.4552   -2.6139 C.3     1  UNL1        0.1811
      6 C          18.1938   71.2297   -5.2618 C.3     1  UNL1        0.2383
      7 C          18.0454   69.8978   -4.4831 C.3     1  UNL1        0.1895
      8 O          16.7010   69.4179   -4.5451 O.3     1  UNL1       -0.3779
      9 C          18.4147   70.3216   -3.0404 C.3     1  UNL1        0.1713
     10 C          19.2237   71.6198   -3.2247 C.3     1  UNL1        0.1764
     11 O          19.3340   71.8583   -4.6369 O.3     1  UNL1       -0.3308
     12 O          17.2339   70.5718   -2.2763 O.3     1  UNL1       -0.3794
     13 H          16.5577   68.5864   -4.0731 H       1  UNL1        0.2106
     14 H          16.6573   69.8022   -2.1786 H       1  UNL1        0.2105
     15 N          18.4587   70.9719   -6.6790 N.ar    1  UNL1       -0.2551
     16 C          17.4302   70.8142   -7.5312 C.ar    1  UNL1        0.3323
     17 N          17.6442   70.5761   -8.8387 N.ar    1  UNL1       -0.2743
     18 C          18.9025   70.4934   -9.3165 C.ar    1  UNL1        0.2626
     19 C          19.9946   70.6584   -8.4309 C.ar    1  UNL1        0.0795
     20 C          19.7507   70.9004   -7.1257 C.ar    1  UNL1        0.0869
     21 O          16.2903   70.8863   -7.1143 O.2     1  UNL1       -0.2464
     22 O          19.0976   70.2784  -10.4998 O.2     1  UNL1       -0.2670
     23 H          16.8912   70.4637   -9.4392 H       1  UNL1        0.1734
     24 O          22.0352   74.1284   -4.5402 O.3     1  UNL1       -0.2703
     25 P          22.0976   74.3788   -6.1296 P.3     1  UNL1        0.2208
     26 O          22.6992   73.0727   -6.8550 O.3     1  UNL1       -0.4371
     27 O          20.7351   74.6430   -6.6415 O.2     1  UNL1       -0.5170
     28 O          23.0419   75.6464   -6.4365 O.3     1  UNL1       -0.2865
     29 C          22.7162   76.6428   -7.4073 C.3     1  UNL1        0.2611
     30 C          23.7541   76.6194   -8.5319 C.3     1  UNL1        0.1582
     31 C          25.1293   76.9659   -7.9531 C.3     1  UNL1        0.1625
     32 C          25.0518   78.3306   -7.2632 C.3     1  UNL1        0.1686
     33 C          23.9636   78.2880   -6.1871 C.3     1  UNL1        0.1760
     34 O          26.0919   77.0184   -9.0086 O.3     1  UNL1       -0.3801
     35 O          24.7321   79.3356   -8.2270 O.3     1  UNL1       -0.3794
     36 O          22.7168   77.9301   -6.7866 O.3     1  UNL1       -0.3263
     37 H          26.9875   77.2326   -8.7133 H       1  UNL1        0.2105
     38 H          24.6658   80.2278   -7.8587 H       1  UNL1        0.2105
     39 C          23.8703   75.1453  -10.4688 C.2     1  UNL1        0.2231
     40 C          23.9150   73.7715  -11.0845 C.3     1  UNL1        0.0946
     41 N          23.7973   75.2827   -9.1302 N.am    1  UNL1       -0.2994
     42 O          23.8999   76.1293  -11.1780 O.2     1  UNL1       -0.2751
     43 H          23.7726   74.4962   -8.5628 H       1  UNL1        0.1496
     44 C          23.8388   79.6655   -5.5335 C.3     1  UNL1        0.1693
     45 O          24.9299   79.8668   -4.6327 O.3     1  UNL1       -0.3794
     46 H          24.9153   80.7218   -4.1813 H       1  UNL1        0.2105
@<TRIPOS>BOND
     1    29    30    1
     2    30    41    1
     3    30    31    1
     4    31    34    1
     5    31    32    1
     6    32    35    1
     7    32    33    1
     8    33    36    1
     9    33    44    1
    10    39    40    1
    11    39    42    2
    12    39    41   am
    13    41    43    1
    14    29    28    1
    15    34    37    1
    16    35    38    1
    17    29    36    1
    18    44    45    1
    19    45    46    1
    20    15     6    1
    21    15    16   ar
    22    16    21    2
    23    16    17   ar
    24    17    23    1
    25    17    18   ar
    26    18    19   ar
    27    19    20   ar
    28    15    20   ar
    29    18    22    2
    30     6     7    1
    31     6    11    1
    32     7     9    1
    33     7     8    1
    34     8    13    1
    35     9    10    1
    36     9    12    1
    37    10     5    1
    38    10    11    1
    39    12    14    1
    40     5     4    1
    41     4     1    1
    42     1     2    1
    43     1    24    1
    44     1     3    2
    45    24    25    1
    46    28    25    1
    47    25    26    1
    48    25    27    2
@<TRIPOS>MOLECULE
UD2
 46 48 0 0 0
SMALL
GASTEIGER

@<TRIPOS>ATOM
      1 P          22.0317   70.4583   -0.1901 P.3     1  UNL1        0.2189
      2 O          21.2678   70.9328    1.1451 O.3     1  UNL1       -0.4371
      3 O          22.8997   69.3016    0.1221 O.2     1  UNL1       -0.5170
      4 O          20.9498   70.0322   -1.3044 O.3     1  UNL1       -0.3112
      5 C          21.0396   70.4400   -2.6708 C.3     1  UNL1        0.1811
      6 C          18.4518   70.9352   -5.1192 C.3     1  UNL1        0.2383
      7 C          18.0946   69.5878   -4.4417 C.3     1  UNL1        0.1895
      8 O          16.6808   69.3812   -4.4312 O.3     1  UNL1       -0.3779
      9 C          18.6335   69.7934   -3.0047 C.3     1  UNL1        0.1713
     10 C          19.6689   70.9250   -3.1492 C.3     1  UNL1        0.1764
     11 O          19.7318   71.2722   -4.5416 O.3     1  UNL1       -0.3308
     12 O          17.5776   70.1898   -2.1279 O.3     1  UNL1       -0.3794
     13 H          16.4074   68.5510   -4.0181 H       1  UNL1        0.2106
     14 H          16.8680   69.5385   -2.0458 H       1  UNL1        0.2105
     15 N          18.5676   70.7685   -6.5696 N.ar    1  UNL1       -0.2551
     16 C          17.4627   70.8084   -7.3354 C.ar    1  UNL1        0.3323
     17 N          17.5395   70.6580   -8.6709 N.ar    1  UNL1       -0.2743
     18 C          18.7349   70.4655   -9.2646 C.ar    1  UNL1        0.2626
     19 C          19.9063   70.4224   -8.4708 C.ar    1  UNL1        0.0795
     20 C          19.8003   70.5804   -7.1347 C.ar    1  UNL1        0.0869
     21 O          16.3781   70.9815   -6.8136 O.2     1  UNL1       -0.2464
     22 O          18.8059   70.3296  -10.4733 O.2     1  UNL1       -0.2670
     23 H          16.7328   70.6882   -9.2080 H       1  UNL1        0.1734
     24 O          22.9321   71.6691   -0.7527 O.3     1  UNL1       -0.2703
     25 P          22.7280   73.2635   -0.8475 P.3     1  UNL1        0.2208
     26 O          21.3782   73.6783   -0.0731 O.3     1  UNL1       -0.4371
     27 O          23.8829   73.9468   -0.2249 O.2     1  UNL1       -0.5170
     28 O          22.6157   73.6992   -2.3936 O.3     1  UNL1       -0.2865
     29 C          23.7539   73.8547   -3.2431 C.3     1  UNL1        0.2611
     30 C          24.0157   75.3441   -3.4793 C.3     1  UNL1        0.1582
     31 C          22.8107   75.9577   -4.1991 C.3     1  UNL1        0.1625
     32 C          22.5681   75.1966   -5.5054 C.3     1  UNL1        0.1686
     33 C          22.3620   73.7125   -5.1909 C.3     1  UNL1        0.1760
     34 O          23.0771   77.3318   -4.4893 O.3     1  UNL1       -0.3801
     35 O          23.6989   75.3507   -6.3650 O.3     1  UNL1       -0.3794
     36 O          23.5049   73.2115   -4.4948 O.3     1  UNL1       -0.3263
     37 H          22.3542   77.7843   -4.9452 H       1  UNL1        0.2105
     38 H          23.6144   74.8928   -7.2130 H       1  UNL1        0.2105
     39 C          25.3830   76.6262   -1.9222 C.2     1  UNL1        0.2231
     40 C          25.5854   77.3179   -0.5997 C.3     1  UNL1        0.0946
     41 N          24.2119   76.0166   -2.1925 N.am    1  UNL1       -0.2994
     42 O          26.2746   76.6174   -2.7451 O.2     1  UNL1       -0.2751
     43 H          23.4992   76.0225   -1.5345 H       1  UNL1        0.1496
     44 C          22.1783   72.9357   -6.4960 C.3     1  UNL1        0.1693
     45 O          22.8046   73.6460   -7.5662 O.3     1  UNL1       -0.3794
     46 H          22.7276   73.2106   -8.4262 H       1  UNL1        0.2105
@<TRIPOS>BOND
     1    29    30    1
     2    30    41    1
     3    30    31    1
     4    31    34    1
     5    31    32    1
     6    32    35    1
     7    32    33    1
     8    33    36    1
     9    33    44    1
    10    39    40    1
    11    39    42    2
    12    39    41   am
    13    41    43    1
    14    29    28    1
    15    34    37    1
    16    35    38    1
    17    29    36    1
    18    44    45    1
    19    45    46    1
    20    15     6    1
    21    15    16   ar
    22    16    21    2
    23    16    17   ar
    24    17    23    1
    25    17    18   ar
    26    18    19   ar
    27    19    20   ar
    28    15    20   ar
    29    18    22    2
    30     6     7    1
    31     6    11    1
    32     7     9    1
    33     7     8    1
    34     8    13    1
    35     9    10    1
    36     9    12    1
    37    10     5    1
    38    10    11    1
    39    12    14    1
    40     5     4    1
    41     4     1    1
    42     1     2    1
    43     1    24    1
    44     1     3    2
    45    24    25    1
    46    28    25    1
    47    25    26    1
    48    25    27    2
@<TRIPOS>MOLECULE
UD2
 46 48 0 0 0
SMALL
GASTEIGER

@<TRIPOS>ATOM
      1 P          22.7559   71.7994   -3.1400 P.3     1  UNL1        0.2189
      2 O          22.9631   72.3231   -1.6320 O.3     1  UNL1       -0.4371
      3 O          23.3433   70.4486   -3.2789 O.2     1  UNL1       -0.5170
      4 O          21.1819   71.7373   -3.4749 O.3     1  UNL1       -0.3112
      5 C          20.1816   72.2806   -2.6114 C.3     1  UNL1        0.1811
      6 C          17.9452   71.3860   -5.2825 C.3     1  UNL1        0.2383
      7 C          18.0306   70.1128   -4.4028 C.3     1  UNL1        0.1895
      8 O          16.8082   69.3746   -4.4540 O.3     1  UNL1       -0.3779
      9 C          18.2581   70.7073   -2.9913 C.3     1  UNL1        0.1713
     10 C          18.8053   72.1218   -3.2623 C.3     1  UNL1        0.1764
     11 O          18.9181   72.2714   -4.6865 O.3     1  UNL1       -0.3308
     12 O          17.0244   70.7767   -2.2744 O.3     1  UNL1       -0.3794
     13 H          16.8125   68.5687   -3.9200 H       1  UNL1        0.2106
     14 H          16.6053   69.9181   -2.1274 H       1  UNL1        0.2105
     15 N          18.3061   71.0804   -6.6686 N.ar    1  UNL1       -0.2551
     16 C          17.3427   70.7763   -7.5565 C.ar    1  UNL1        0.3323
     17 N          17.6455   70.4911   -8.8368 N.ar    1  UNL1       -0.2743
     18 C          18.9289   70.5081   -9.2507 C.ar    1  UNL1        0.2626
     19 C          19.9530   70.8276   -8.3270 C.ar    1  UNL1        0.0795
     20 C          19.6202   71.1135   -7.0507 C.ar    1  UNL1        0.0869
     21 O          16.1812   70.7573   -7.1973 O.2     1  UNL1       -0.2464
     22 O          19.2042   70.2505  -10.4093 O.2     1  UNL1       -0.2670
     23 H          16.9388   70.2727   -9.4637 H       1  UNL1        0.1734
     24 O          23.4822   72.8086   -4.1635 O.3     1  UNL1       -0.2703
     25 P          23.4568   74.4059   -4.3654 P.3     1  UNL1        0.2208
     26 O          22.4974   75.0713   -3.2561 O.3     1  UNL1       -0.4371
     27 O          24.8269   74.9439   -4.2183 O.2     1  UNL1       -0.5170
     28 O          22.8987   74.7521   -5.8355 O.3     1  UNL1       -0.2865
     29 C          23.2737   75.9291   -6.5533 C.3     1  UNL1        0.2611
     30 C          22.0177   76.6338   -7.0716 C.3     1  UNL1        0.1582
     31 C          21.2885   75.7059   -8.0483 C.3     1  UNL1        0.1625
     32 C          22.2456   75.3190   -9.1792 C.3     1  UNL1        0.1686
     33 C          23.4931   74.6649   -8.5794 C.3     1  UNL1        0.1760
     34 O          20.1541   76.3835   -8.5935 O.3     1  UNL1       -0.3801
     35 O          22.6224   76.4891   -9.9073 O.3     1  UNL1       -0.3794
     36 O          24.1061   75.5683   -7.6574 O.3     1  UNL1       -0.3263
     37 H          19.6440   75.8533   -9.2211 H       1  UNL1        0.2105
     38 H          23.2302   76.3183  -10.6403 H       1  UNL1        0.2105
     39 C          20.1549   76.0950   -5.5959 C.2     1  UNL1        0.2231
     40 C          19.2472   76.4204   -4.4389 C.3     1  UNL1        0.0946
     41 N          21.1350   76.9511   -5.9462 N.am    1  UNL1       -0.2994
     42 O          20.0041   75.0615   -6.2134 O.2     1  UNL1       -0.2751
     43 H          21.2553   77.7780   -5.4534 H       1  UNL1        0.1496
     44 C          24.4808   74.3294   -9.6984 C.3     1  UNL1        0.1693
     45 O          23.7984   73.6353  -10.7448 O.3     1  UNL1       -0.3794
     46 H          24.3645   73.3904  -11.4895 H       1  UNL1        0.2105
@<TRIPOS>BOND
     1    29    30    1
     2    30    41    1
     3    30    31    1
     4    31    34    1
     5    31    32    1
     6    32    35    1
     7    32    33    1
     8    33    36    1
     9    33    44    1
    10    39    40    1
    11    39    42    2
    12    39    41   am
    13    41    43    1
    14    29    28    1
    15    34    37    1
    16    35    38    1
    17    29    36    1
    18    44    45    1
    19    45    46    1
    20    15     6    1
    21    15    16   ar
    22    16    21    2
    23    16    17   ar
    24    17    23    1
    25    17    18   ar
    26    18    19   ar
    27    19    20   ar
    28    15    20   ar
    29    18    22    2
    30     6     7    1
    31     6    11    1
    32     7     9    1
    33     7     8    1
    34     8    13    1
    35     9    10    1
    36     9    12    1
    37    10     5    1
    38    10    11    1
    39    12    14    1
    40     5     4    1
    41     4     1    1
    42     1     2    1
    43     1    24    1
    44     1     3    2
    45    24    25    1
    46    28    25    1
    47    25    26    1
    48    25    27    2
@<TRIPOS>MOLECULE
UD2
 46 48 0 0 0
SMALL
GASTEIGER

@<TRIPOS>ATOM
      1 P          21.7268   75.3683   -3.5368 P.3     1  UNL1        0.2189
      2 O          20.5959   76.4685   -3.2177 O.3     1  UNL1       -0.4371
      3 O          22.8433   76.0055   -4.2691 O.2     1  UNL1       -0.5170
      4 O          22.2757   74.7471   -2.1560 O.3     1  UNL1       -0.3112
      5 C          21.6346   73.6621   -1.4829 C.3     1  UNL1        0.1811
      6 C          23.0812   72.4109    1.5632 C.3     1  UNL1        0.2383
      7 C          22.1378   71.2777    1.0856 C.3     1  UNL1        0.1895
      8 O          22.6351   69.9985    1.4831 O.3     1  UNL1       -0.3779
      9 C          22.1911   71.4371   -0.4536 C.3     1  UNL1        0.1713
     10 C          22.6704   72.8859   -0.6657 C.3     1  UNL1        0.1764
     11 O          22.8156   73.4829    0.6327 O.3     1  UNL1       -0.3308
     12 O          23.1231   70.5137   -1.0188 O.3     1  UNL1       -0.3794
     13 H          22.0790   69.2571    1.2080 H       1  UNL1        0.2106
     14 H          22.9016   69.5856   -0.8639 H       1  UNL1        0.2105
     15 N          22.7472   72.8186    2.9296 N.ar    1  UNL1       -0.2551
     16 C          21.5287   72.5436    3.4281 C.ar    1  UNL1        0.3323
     17 N          21.1944   72.9067    4.6805 N.ar    1  UNL1       -0.2743
     18 C          22.0841   73.5546    5.4597 C.ar    1  UNL1        0.2626
     19 C          23.3708   73.8496    4.9482 C.ar    1  UNL1        0.0795
     20 C          23.6803   73.4700    3.6905 C.ar    1  UNL1        0.0869
     21 O          20.7164   71.9598    2.7369 O.2     1  UNL1       -0.2464
     22 O          21.7830   73.8834    6.5936 O.2     1  UNL1       -0.2670
     23 H          20.3111   72.7017    5.0239 H       1  UNL1        0.1734
     24 O          21.0940   74.1938   -4.4387 O.3     1  UNL1       -0.2703
     25 P          21.7204   73.0082   -5.3304 P.3     1  UNL1        0.2208
     26 O          22.7456   73.6303   -6.4055 O.3     1  UNL1       -0.4371
     27 O          22.4414   72.0595   -4.4538 O.2     1  UNL1       -0.5170
     28 O          20.5376   72.2344   -6.1015 O.3     1  UNL1       -0.2865
     29 C          19.4050   72.9025   -6.6602 C.3     1  UNL1        0.2611
     30 C          18.1234   72.3450   -6.0362 C.3     1  UNL1        0.1582
     31 C          18.0029   70.8575   -6.3815 C.3     1  UNL1        0.1625
     32 C          18.0260   70.6942   -7.9037 C.3     1  UNL1        0.1686
     33 C          19.3118   71.3155   -8.4558 C.3     1  UNL1        0.1760
     34 O          16.7722   70.3458   -5.8650 O.3     1  UNL1       -0.3801
     35 O          16.8937   71.3544   -8.4722 O.3     1  UNL1       -0.3794
     36 O          19.3768   72.6908   -8.0732 O.3     1  UNL1       -0.3263
     37 H          16.6300   69.4067   -6.0467 H       1  UNL1        0.2105
     38 H          16.8444   71.2923   -9.4364 H       1  UNL1        0.2105
     39 C          18.6433   71.5066   -3.8081 C.2     1  UNL1        0.2231
     40 C          18.6988   71.6726   -2.3121 C.3     1  UNL1        0.0946
     41 N          18.1769   72.5071   -4.5811 N.am    1  UNL1       -0.2994
     42 O          19.0185   70.4716   -4.3181 O.2     1  UNL1       -0.2751
     43 H          17.8759   73.3344   -4.1737 H       1  UNL1        0.1496
     44 C          19.3147   71.2096   -9.9820 C.3     1  UNL1        0.1693
     45 O          18.5262   70.0875  -10.3838 O.3     1  UNL1       -0.3794
     46 H          18.4833   69.9589  -11.3413 H       1  UNL1        0.2105
@<TRIPOS>BOND
     1    29    30    1
     2    30    41    1
     3    30    31    1
     4    31    34    1
     5    31    32    1
     6    32    35    1
     7    32    33    1
     8    33    36    1
     9    33    44    1
    10    39    40    1
    11    39    42    2
    12    39    41   am
    13    41    43    1
    14    29    28    1
    15    34    37    1
    16    35    38    1
    17    29    36    1
    18    44    45    1
    19    45    46    1
    20    15     6    1
    21    15    16   ar
    22    16    21    2
    23    16    17   ar
    24    17    23    1
    25    17    18   ar
    26    18    19   ar
    27    19    20   ar
    28    15    20   ar
    29    18    22    2
    30     6     7    1
    31     6    11    1
    32     7     9    1
    33     7     8    1
    34     8    13    1
    35     9    10    1
    36     9    12    1
    37    10     5    1
    38    10    11    1
    39    12    14    1
    40     5     4    1
    41     4     1    1
    42     1     2    1
    43     1    24    1
    44     1     3    2
    45    24    25    1
    46    28    25    1
    47    25    26    1
    48    25    27    2
@<TRIPOS>MOLECULE
UD2
 46 48 0 0 0
SMALL
GASTEIGER

@<TRIPOS>ATOM
      1 P          22.4409   70.6185   -0.2291 P.3     1  UNL1        0.2189
      2 O          21.3085   69.6202    0.3299 O.3     1  UNL1       -0.4371
      3 O          23.7686   69.9772   -0.1075 O.2     1  UNL1       -0.5170
      4 O          22.1455   70.9519   -1.7768 O.3     1  UNL1       -0.3112
      5 C          21.5347   70.0189   -2.6699 C.3     1  UNL1        0.1811
      6 C          18.7323   70.8136   -4.7797 C.3     1  UNL1        0.2383
      7 C          18.5680   69.3049   -4.4655 C.3     1  UNL1        0.1895
      8 O          17.1878   68.9355   -4.4449 O.3     1  UNL1       -0.3779
      9 C          19.1897   69.1975   -3.0515 C.3     1  UNL1        0.1713
     10 C          20.0891   70.4434   -2.9401 C.3     1  UNL1        0.1764
     11 O          20.0107   71.1411   -4.1932 O.3     1  UNL1       -0.3308
     12 O          18.1678   69.2269   -2.0537 O.3     1  UNL1       -0.3794
     13 H          17.0334   68.0006   -4.2531 H       1  UNL1        0.2106
     14 H          17.5373   68.4966   -2.1136 H       1  UNL1        0.2105
     15 N          18.7549   71.0397   -6.2266 N.ar    1  UNL1       -0.2551
     16 C          17.5983   71.1986   -6.8944 C.ar    1  UNL1        0.3323
     17 N          17.5893   71.4076   -8.2242 N.ar    1  UNL1       -0.2743
     18 C          18.7488   71.4628   -8.9105 C.ar    1  UNL1        0.2626
     19 C          19.9737   71.2982   -8.2201 C.ar    1  UNL1        0.0795
     20 C          19.9533   71.0943   -6.8861 C.ar    1  UNL1        0.0869
     21 O          16.5453   71.1514   -6.2885 O.2     1  UNL1       -0.2464
     22 O          18.7420   71.6523  -10.1141 O.2     1  UNL1       -0.2670
     23 H          16.7464   71.5189   -8.6904 H       1  UNL1        0.1734
     24 O          22.4233   71.9831    0.6259 O.3     1  UNL1       -0.2703
     25 P          22.1817   72.3250    2.1808 P.3     1  UNL1        0.2208
     26 O          20.6460   72.0267    2.5630 O.3     1  UNL1       -0.4371
     27 O          23.0691   71.4848    3.0145 O.2     1  UNL1       -0.5170
     28 O          22.5090   73.8791    2.4456 O.3     1  UNL1       -0.2865
     29 C          23.7537   74.3323    2.9810 C.3     1  UNL1        0.2611
     30 C          23.4947   75.4187    4.0276 C.3     1  UNL1        0.1582
     31 C          22.8158   76.6145    3.3526 C.3     1  UNL1        0.1625
     32 C          23.7022   77.1114    2.2072 C.3     1  UNL1        0.1686
     33 C          23.9531   75.9595    1.2305 C.3     1  UNL1        0.1760
     34 O          22.6367   77.6631    4.3074 O.3     1  UNL1       -0.3801
     35 O          24.9481   77.5725    2.7329 O.3     1  UNL1       -0.3794
     36 O          24.5576   74.8686    1.9281 O.3     1  UNL1       -0.3263
     37 H          22.2105   78.4532    3.9479 H       1  UNL1        0.2105
     38 H          25.5614   77.9021    2.0612 H       1  UNL1        0.2105
     39 C          22.8982   75.1355    6.3731 C.2     1  UNL1        0.2231
     40 C          22.0007   74.5908    7.4532 C.3     1  UNL1        0.0946
     41 N          22.6214   74.8883    5.0776 N.am    1  UNL1       -0.2994
     42 O          23.8712   75.7972    6.6692 O.2     1  UNL1       -0.2751
     43 H          21.8442   74.3585    4.8405 H       1  UNL1        0.1496
     44 C          24.8869   76.4317    0.1144 C.3     1  UNL1        0.1693
     45 O          25.7336   75.3529   -0.2876 O.3     1  UNL1       -0.3794
     46 H          26.3535   75.5808   -0.9938 H       1  UNL1        0.2105
@<TRIPOS>BOND
     1    29    30    1
     2    30    41    1
     3    30    31    1
     4    31    34    1
     5    31    32    1
     6    32    35    1
     7    32    33    1
     8    33    36    1
     9    33    44    1
    10    39    40    1
    11    39    42    2
    12    39    41   am
    13    41    43    1
    14    29    28    1
    15    34    37    1
    16    35    38    1
    17    29    36    1
    18    44    45    1
    19    45    46    1
    20    15     6    1
    21    15    16   ar
    22    16    21    2
    23    16    17   ar
    24    17    23    1
    25    17    18   ar
    26    18    19   ar
    27    19    20   ar
    28    15    20   ar
    29    18    22    2
    30     6     7    1
    31     6    11    1
    32     7     9    1
    33     7     8    1
    34     8    13    1
    35     9    10    1
    36     9    12    1
    37    10     5    1
    38    10    11    1
    39    12    14    1
    40     5     4    1
    41     4     1    1
    42     1     2    1
    43     1    24    1
    44     1     3    2
    45    24    25    1
    46    28    25    1
    47    25    26    1
    48    25    27    2
@<TRIPOS>MOLECULE
UD2
 46 48 0 0 0
SMALL
GASTEIGER

@<TRIPOS>ATOM
      1 P          22.3800   71.0977   -2.4740 P.3     1  UNL1        0.2189
      2 O          23.6015   70.7151   -3.4503 O.3     1  UNL1       -0.4371
      3 O          21.5625   69.8932   -2.2104 O.2     1  UNL1       -0.5170
      4 O          22.9620   71.6663   -1.0841 O.3     1  UNL1       -0.3112
      5 C          22.6469   71.0891    0.1844 C.3     1  UNL1        0.1811
      6 C          20.6554   72.9044    2.5666 C.3     1  UNL1        0.2383
      7 C          21.1212   73.9775    1.5499 C.3     1  UNL1        0.1895
      8 O          20.1507   75.0191    1.4271 O.3     1  UNL1       -0.3779
      9 C          21.2236   73.1605    0.2387 C.3     1  UNL1        0.1713
     10 C          21.3471   71.7001    0.7136 C.3     1  UNL1        0.1764
     11 O          21.3644   71.7173    2.1499 O.3     1  UNL1       -0.3308
     12 O          20.0448   73.3326   -0.5497 O.3     1  UNL1       -0.3794
     13 H          20.3970   75.7148    0.8026 H       1  UNL1        0.2106
     14 H          19.8857   74.2449   -0.8268 H       1  UNL1        0.2105
     15 N          21.0386   73.2833    3.9284 N.ar    1  UNL1       -0.2551
     16 C          20.1204   73.8131    4.7561 C.ar    1  UNL1        0.3323
     17 N          20.4446   74.1706    6.0128 N.ar    1  UNL1       -0.2743
     18 C          21.7040   73.9995    6.4636 C.ar    1  UNL1        0.2626
     19 C          22.6804   73.4420    5.6034 C.ar    1  UNL1        0.0795
     20 C          22.3265   73.0887    4.3499 C.ar    1  UNL1        0.0869
     21 O          18.9809   73.9729    4.3632 O.2     1  UNL1       -0.2464
     22 O          21.9987   74.3223    7.6009 O.2     1  UNL1       -0.2670
     23 H          19.7706   74.5523    6.5960 H       1  UNL1        0.1734
     24 O          21.4663   72.2244   -3.1733 O.3     1  UNL1       -0.2703
     25 P          21.3882   72.8354   -4.6611 P.3     1  UNL1        0.2208
     26 O          21.0219   74.4016   -4.5791 O.3     1  UNL1       -0.4371
     27 O          22.6963   72.6699   -5.3320 O.2     1  UNL1       -0.5170
     28 O          20.2525   72.0614   -5.5001 O.3     1  UNL1       -0.2865
     29 C          19.1715   72.7326   -6.1499 C.3     1  UNL1        0.2611
     30 C          17.8592   72.0093   -5.8379 C.3     1  UNL1        0.1582
     31 C          17.9259   70.5848   -6.3973 C.3     1  UNL1        0.1625
     32 C          18.2090   70.6509   -7.9006 C.3     1  UNL1        0.1686
     33 C          19.5082   71.4268   -8.1331 C.3     1  UNL1        0.1760
     34 O          16.6770   69.9259   -6.1750 O.3     1  UNL1       -0.3801
     35 O          17.1304   71.3157   -8.5609 O.3     1  UNL1       -0.3794
     36 O          19.3907   72.7314   -7.5621 O.3     1  UNL1       -0.3263
     37 H          16.6482   69.0171   -6.5042 H       1  UNL1        0.2105
     38 H          17.2433   71.3943   -9.5186 H       1  UNL1        0.2105
     39 C          16.4318   72.1332   -3.8669 C.2     1  UNL1        0.2231
     40 C          16.2286   72.0792   -2.3755 C.3     1  UNL1        0.0946
     41 N          17.6624   71.9568   -4.3870 N.am    1  UNL1       -0.2994
     42 O          15.4872   72.3357   -4.6011 O.2     1  UNL1       -0.2751
     43 H          18.4181   71.7959   -3.8004 H       1  UNL1        0.1496
     44 C          19.7670   71.5489   -9.6360 C.3     1  UNL1        0.1693
     45 O          18.5947   72.0486  -10.2829 O.3     1  UNL1       -0.3794
     46 H          18.6867   72.1516  -11.2400 H       1  UNL1        0.2105
@<TRIPOS>BOND
     1    29    30    1
     2    30    41    1
     3    30    31    1
     4    31    34    1
     5    31    32    1
     6    32    35    1
     7    32    33    1
     8    33    36    1
     9    33    44    1
    10    39    40    1
    11    39    42    2
    12    39    41   am
    13    41    43    1
    14    29    28    1
    15    34    37    1
    16    35    38    1
    17    29    36    1
    18    44    45    1
    19    45    46    1
    20    15     6    1
    21    15    16   ar
    22    16    21    2
    23    16    17   ar
    24    17    23    1
    25    17    18   ar
    26    18    19   ar
    27    19    20   ar
    28    15    20   ar
    29    18    22    2
    30     6     7    1
    31     6    11    1
    32     7     9    1
    33     7     8    1
    34     8    13    1
    35     9    10    1
    36     9    12    1
    37    10     5    1
    38    10    11    1
    39    12    14    1
    40     5     4    1
    41     4     1    1
    42     1     2    1
    43     1    24    1
    44     1     3    2
    45    24    25    1
    46    28    25    1
    47    25    26    1
    48    25    27    2
@<TRIPOS>MOLECULE
UD2
 46 48 0 0 0
SMALL
GASTEIGER

@<TRIPOS>ATOM
      1 P          22.7769   73.3917   -3.8965 P.3     1  UNL1        0.2189
      2 O          24.3478   73.7437   -3.8960 O.3     1  UNL1       -0.4371
      3 O          22.5997   71.9235   -3.9375 O.2     1  UNL1       -0.5170
      4 O          22.0955   73.9775   -2.5600 O.3     1  UNL1       -0.3112
      5 C          21.5574   73.1435   -1.5323 C.3     1  UNL1        0.1811
      6 C          23.1910   72.3199    1.5645 C.3     1  UNL1        0.2383
      7 C          22.4152   71.0347    1.1793 C.3     1  UNL1        0.1895
      8 O          23.0929   69.8689    1.6519 O.3     1  UNL1       -0.3779
      9 C          22.4334   71.0951   -0.3678 C.3     1  UNL1        0.1713
     10 C          22.6995   72.5793   -0.6835 C.3     1  UNL1        0.1764
     11 O          22.7681   73.2778    0.5698 O.3     1  UNL1       -0.3308
     12 O          23.4832   70.2769   -0.8867 O.3     1  UNL1       -0.3794
     13 H          22.6461   69.0392    1.4361 H       1  UNL1        0.2106
     14 H          23.3975   69.3394   -0.6669 H       1  UNL1        0.2105
     15 N          22.8127   72.7681    2.9065 N.ar    1  UNL1       -0.2551
     16 C          21.6057   72.4424    3.4023 C.ar    1  UNL1        0.3323
     17 N          21.2315   72.8409    4.6325 N.ar    1  UNL1       -0.2743
     18 C          22.0690   73.5763    5.3917 C.ar    1  UNL1        0.2626
     19 C          23.3431   73.9254    4.8828 C.ar    1  UNL1        0.0795
     20 C          23.6935   73.5088    3.6478 C.ar    1  UNL1        0.0869
     21 O          20.8404   71.7796    2.7289 O.2     1  UNL1       -0.2464
     22 O          21.7318   73.9372    6.5055 O.2     1  UNL1       -0.2670
     23 H          20.3571   72.5983    4.9742 H       1  UNL1        0.1734
     24 O          22.0789   74.0532   -5.1882 O.3     1  UNL1       -0.2703
     25 P          21.6295   73.4890   -6.6278 P.3     1  UNL1        0.2208
     26 O          21.4651   74.7166   -7.6573 O.3     1  UNL1       -0.4371
     27 O          22.6584   72.5550   -7.1351 O.2     1  UNL1       -0.5170
     28 O          20.2246   72.7151   -6.4862 O.3     1  UNL1       -0.2865
     29 C          19.0277   73.3510   -6.0340 C.3     1  UNL1        0.2611
     30 C          18.1053   72.3095   -5.3959 C.3     1  UNL1        0.1582
     31 C          17.7107   71.2736   -6.4530 C.3     1  UNL1        0.1625
     32 C          17.0483   71.9906   -7.6326 C.3     1  UNL1        0.1686
     33 C          18.0118   73.0446   -8.1847 C.3     1  UNL1        0.1760
     34 O          16.7908   70.3386   -5.8849 O.3     1  UNL1       -0.3801
     35 O          15.8466   72.6254   -7.1920 O.3     1  UNL1       -0.3794
     36 O          18.3630   73.9584   -7.1437 O.3     1  UNL1       -0.3263
     37 H          16.4985   69.6519   -6.4998 H       1  UNL1        0.2105
     38 H          15.3736   73.1009   -7.8893 H       1  UNL1        0.2105
     39 C          19.4592   70.4851   -4.5151 C.2     1  UNL1        0.2231
     40 C          20.1807   69.7998   -3.3844 C.3     1  UNL1        0.0946
     41 N          18.8066   71.6435   -4.2954 N.am    1  UNL1       -0.2994
     42 O          19.4653   69.9942   -5.6247 O.2     1  UNL1       -0.2751
     43 H          18.8006   72.0358   -3.4082 H       1  UNL1        0.1496
     44 C          17.3348   73.8064   -9.3256 C.3     1  UNL1        0.1693
     45 O          17.8113   73.3114  -10.5787 O.3     1  UNL1       -0.3794
     46 H          17.4238   73.7498  -11.3485 H       1  UNL1        0.2105
@<TRIPOS>BOND
     1    29    30    1
     2    30    41    1
     3    30    31    1
     4    31    34    1
     5    31    32    1
     6    32    35    1
     7    32    33    1
     8    33    36    1
     9    33    44    1
    10    39    40    1
    11    39    42    2
    12    39    41   am
    13    41    43    1
    14    29    28    1
    15    34    37    1
    16    35    38    1
    17    29    36    1
    18    44    45    1
    19    45    46    1
    20    15     6    1
    21    15    16   ar
    22    16    21    2
    23    16    17   ar
    24    17    23    1
    25    17    18   ar
    26    18    19   ar
    27    19    20   ar
    28    15    20   ar
    29    18    22    2
    30     6     7    1
    31     6    11    1
    32     7     9    1
    33     7     8    1
    34     8    13    1
    35     9    10    1
    36     9    12    1
    37    10     5    1
    38    10    11    1
    39    12    14    1
    40     5     4    1
    41     4     1    1
    42     1     2    1
    43     1    24    1
    44     1     3    2
    45    24    25    1
    46    28    25    1
    47    25    26    1
    48    25    27    2
@<TRIPOS>MOLECULE
UD2
 46 48 0 0 0
SMALL
GASTEIGER

@<TRIPOS>ATOM
      1 P          21.6823   70.7958   -2.9397 P.3     1  UNL1        0.2189
      2 O          21.4429   69.2048   -2.9947 O.3     1  UNL1       -0.4371
      3 O          22.9831   71.1214   -3.5648 O.2     1  UNL1       -0.5170
      4 O          20.5008   71.5441   -3.7382 O.3     1  UNL1       -0.3112
      5 C          19.5365   72.3799   -3.0956 C.3     1  UNL1        0.1811
      6 C          16.9262   72.1807   -5.5620 C.3     1  UNL1        0.2383
      7 C          17.6618   70.8202   -5.6623 C.3     1  UNL1        0.1895
      8 O          16.7631   69.7825   -6.0589 O.3     1  UNL1       -0.3779
      9 C          18.1469   70.6047   -4.2078 C.3     1  UNL1        0.1713
     10 C          18.1353   72.0176   -3.5937 C.3     1  UNL1        0.1764
     11 O          17.7330   72.9302   -4.6276 O.3     1  UNL1       -0.3308
     12 O          17.2481   69.7457   -3.5042 O.3     1  UNL1       -0.3794
     13 H          17.1766   68.9121   -6.1363 H       1  UNL1        0.2106
     14 H          17.1713   68.8599   -3.8836 H       1  UNL1        0.2105
     15 N          16.8935   72.8468   -6.8660 N.ar    1  UNL1       -0.2551
     16 C          18.0450   73.1092   -7.5093 C.ar    1  UNL1        0.3323
     17 N          18.0448   73.7203   -8.7088 N.ar    1  UNL1       -0.2743
     18 C          16.8807   74.0792   -9.2874 C.ar    1  UNL1        0.2626
     19 C          15.6610   73.8082   -8.6219 C.ar    1  UNL1        0.0795
     20 C          15.6908   73.1904   -7.4223 C.ar    1  UNL1        0.0869
     21 O          19.1021   72.7911   -6.9996 O.2     1  UNL1       -0.2464
     22 O          16.8791   74.6320  -10.3732 O.2     1  UNL1       -0.2670
     23 H          18.8841   73.9032   -9.1584 H       1  UNL1        0.1734
     24 O          21.6861   71.2854   -1.4056 O.3     1  UNL1       -0.2703
     25 P          22.3830   70.7406   -0.0600 P.3     1  UNL1        0.2208
     26 O          21.4709   69.5799    0.5840 O.3     1  UNL1       -0.4371
     27 O          23.7196   70.1951   -0.3824 O.2     1  UNL1       -0.5170
     28 O          22.5358   71.9496    0.9925 O.3     1  UNL1       -0.2865
     29 C          21.4221   72.6914    1.4931 C.3     1  UNL1        0.2611
     30 C          21.5806   74.1669    1.1187 C.3     1  UNL1        0.1582
     31 C          22.8448   74.7205    1.7835 C.3     1  UNL1        0.1625
     32 C          22.7450   74.5132    3.2973 C.3     1  UNL1        0.1686
     33 C          22.5416   73.0238    3.5878 C.3     1  UNL1        0.1760
     34 O          22.9612   76.1165    1.4993 O.3     1  UNL1       -0.3801
     35 O          21.6370   75.2559    3.8091 O.3     1  UNL1       -0.3794
     36 O          21.3670   72.5652    2.9156 O.3     1  UNL1       -0.3263
     37 H          23.7418   76.5331    1.8896 H       1  UNL1        0.2105
     38 H          21.5130   75.1703    4.7648 H       1  UNL1        0.2105
     39 C          22.9144   74.3368   -0.9135 C.2     1  UNL1        0.2231
     40 C          23.0353   74.4659   -2.4093 C.3     1  UNL1        0.0946
     41 N          21.6974   74.2927   -0.3363 N.am    1  UNL1       -0.2994
     42 O          23.9130   74.2726   -0.2273 O.2     1  UNL1       -0.2751
     43 H          20.8988   74.3451   -0.8844 H       1  UNL1        0.1496
     44 C          22.3812   72.8157    5.0949 C.3     1  UNL1        0.1693
     45 O          21.0215   73.0503    5.4669 O.3     1  UNL1       -0.3794
     46 H          20.8461   72.9362    6.4110 H       1  UNL1        0.2105
@<TRIPOS>BOND
     1    29    30    1
     2    30    41    1
     3    30    31    1
     4    31    34    1
     5    31    32    1
     6    32    35    1
     7    32    33    1
     8    33    36    1
     9    33    44    1
    10    39    40    1
    11    39    42    2
    12    39    41   am
    13    41    43    1
    14    29    28    1
    15    34    37    1
    16    35    38    1
    17    29    36    1
    18    44    45    1
    19    45    46    1
    20    15     6    1
    21    15    16   ar
    22    16    21    2
    23    16    17   ar
    24    17    23    1
    25    17    18   ar
    26    18    19   ar
    27    19    20   ar
    28    15    20   ar
    29    18    22    2
    30     6     7    1
    31     6    11    1
    32     7     9    1
    33     7     8    1
    34     8    13    1
    35     9    10    1
    36     9    12    1
    37    10     5    1
    38    10    11    1
    39    12    14    1
    40     5     4    1
    41     4     1    1
    42     1     2    1
    43     1    24    1
    44     1     3    2
    45    24    25    1
    46    28    25    1
    47    25    26    1
    48    25    27    2
@<TRIPOS>MOLECULE
UD2
 46 48 0 0 0
SMALL
GASTEIGER

@<TRIPOS>ATOM
      1 P          21.7624   73.5802   -5.6714 P.3     1  UNL1        0.2189
      2 O          22.6978   74.1634   -6.8445 O.3     1  UNL1       -0.4371
      3 O          21.3881   74.6740   -4.7482 O.2     1  UNL1       -0.5170
      4 O          20.4311   72.9414   -6.3144 O.3     1  UNL1       -0.3112
      5 C          20.4602   71.8541   -7.2408 C.3     1  UNL1        0.1811
      6 C          17.1640   73.0035   -8.1073 C.3     1  UNL1        0.2383
      7 C          18.0789   73.5650   -9.2251 C.3     1  UNL1        0.1895
      8 O          17.3689   73.6696  -10.4608 O.3     1  UNL1       -0.3779
      9 C          19.1850   72.4852   -9.3133 C.3     1  UNL1        0.1713
     10 C          19.1107   71.7584   -7.9569 C.3     1  UNL1        0.1764
     11 O          18.0962   72.4110   -7.1769 O.3     1  UNL1       -0.3308
     12 O          18.9126   71.5782  -10.3828 O.3     1  UNL1       -0.3794
     13 H          17.8989   74.0168  -11.1910 H       1  UNL1        0.2106
     14 H          18.8886   71.9935  -11.2554 H       1  UNL1        0.2105
     15 N          16.4106   74.0835   -7.4661 N.ar    1  UNL1       -0.2551
     16 C          15.1651   74.3678   -7.8862 C.ar    1  UNL1        0.3323
     17 N          14.4498   75.3550   -7.3154 N.ar    1  UNL1       -0.2743
     18 C          14.9756   76.0773   -6.3052 C.ar    1  UNL1        0.2626
     19 C          16.2853   75.7882   -5.8522 C.ar    1  UNL1        0.0795
     20 C          16.9780   74.7901   -6.4400 C.ar    1  UNL1        0.0869
     21 O          14.6782   73.7246   -8.7960 O.2     1  UNL1       -0.2464
     22 O          14.3291   76.9709   -5.7874 O.2     1  UNL1       -0.2670
     23 H          13.5536   75.5477   -7.6313 H       1  UNL1        0.1734
     24 O          22.5644   72.4435   -4.8602 O.3     1  UNL1       -0.2703
     25 P          22.2504   71.5837   -3.5354 P.3     1  UNL1        0.2208
     26 O          20.9576   70.6579   -3.7909 O.3     1  UNL1       -0.4371
     27 O          23.4138   70.7279   -3.2151 O.2     1  UNL1       -0.5170
     28 O          21.9621   72.5809   -2.3044 O.3     1  UNL1       -0.2865
     29 C          20.8724   72.4033   -1.3975 C.3     1  UNL1        0.2611
     30 C          20.6237   73.7074   -0.6357 C.3     1  UNL1        0.1582
     31 C          21.8664   74.0502    0.1917 C.3     1  UNL1        0.1625
     32 C          22.1807   72.8811    1.1292 C.3     1  UNL1        0.1686
     33 C          22.3695   71.6086    0.2991 C.3     1  UNL1        0.1760
     34 O          21.6161   75.2272    0.9633 O.3     1  UNL1       -0.3801
     35 O          21.0990   72.6987    2.0446 O.3     1  UNL1       -0.3794
     36 O          21.1901   71.3639   -0.4696 O.3     1  UNL1       -0.3263
     37 H          22.3629   75.5032    1.5122 H       1  UNL1        0.2105
     38 H          21.2301   71.9721    2.6698 H       1  UNL1        0.2105
     39 C          19.1487   75.3843   -1.6103 C.2     1  UNL1        0.2231
     40 C          18.8735   76.4951   -2.5896 C.3     1  UNL1        0.0946
     41 N          20.3568   74.7876   -1.5888 N.am    1  UNL1       -0.2994
     42 O          18.2823   75.0261   -0.8400 O.2     1  UNL1       -0.2751
     43 H          21.0494   75.0730   -2.2052 H       1  UNL1        0.1496
     44 C          22.6250   70.4241    1.2329 C.3     1  UNL1        0.1693
     45 O          23.0440   69.2935    0.4657 O.3     1  UNL1       -0.3794
     46 H          23.2241   68.5039    0.9940 H       1  UNL1        0.2105
@<TRIPOS>BOND
     1    29    30    1
     2    30    41    1
     3    30    31    1
     4    31    34    1
     5    31    32    1
     6    32    35    1
     7    32    33    1
     8    33    36    1
     9    33    44    1
    10    39    40    1
    11    39    42    2
    12    39    41   am
    13    41    43    1
    14    29    28    1
    15    34    37    1
    16    35    38    1
    17    29    36    1
    18    44    45    1
    19    45    46    1
    20    15     6    1
    21    15    16   ar
    22    16    21    2
    23    16    17   ar
    24    17    23    1
    25    17    18   ar
    26    18    19   ar
    27    19    20   ar
    28    15    20   ar
    29    18    22    2
    30     6     7    1
    31     6    11    1
    32     7     9    1
    33     7     8    1
    34     8    13    1
    35     9    10    1
    36     9    12    1
    37    10     5    1
    38    10    11    1
    39    12    14    1
    40     5     4    1
    41     4     1    1
    42     1     2    1
    43     1    24    1
    44     1     3    2
    45    24    25    1
    46    28    25    1
    47    25    26    1
    48    25    27    2
@<TRIPOS>MOLECULE
UD2
 46 48 0 0 0
SMALL
GASTEIGER

@<TRIPOS>ATOM
      1 P          19.7735   70.0800   -2.4375 P.3     1  UNL1        0.2189
      2 O          18.5072   69.1125   -2.2099 O.3     1  UNL1       -0.4371
      3 O          20.8017   69.3697   -3.2295 O.2     1  UNL1       -0.5170
      4 O          19.3038   71.4012   -3.2295 O.3     1  UNL1       -0.3112
      5 C          17.9635   71.8949   -3.1912 C.3     1  UNL1        0.1811
      6 C          17.8162   72.9479   -6.6272 C.3     1  UNL1        0.2383
      7 C          16.3539   72.5793   -6.2695 C.3     1  UNL1        0.1895
      8 O          15.4304   73.3767   -7.0132 O.3     1  UNL1       -0.3779
      9 C          16.2913   72.9235   -4.7612 C.3     1  UNL1        0.1713
     10 C          17.7650   72.9180   -4.3123 C.3     1  UNL1        0.1764
     11 O          18.5584   72.5533   -5.4529 O.3     1  UNL1       -0.3308
     12 O          15.7139   74.2158   -4.5680 O.3     1  UNL1       -0.3794
     13 H          14.5022   73.1828   -6.8247 H       1  UNL1        0.2106
     14 H          14.8048   74.2930   -4.8874 H       1  UNL1        0.2105
     15 N          18.2661   72.1944   -7.7997 N.ar    1  UNL1       -0.2551
     16 C          17.9732   70.8858   -7.9035 C.ar    1  UNL1        0.3323
     17 N          18.3740   70.1686   -8.9699 N.ar    1  UNL1       -0.2743
     18 C          19.0788   70.7571   -9.9576 C.ar    1  UNL1        0.2626
     19 C          19.3932   72.1341   -9.8618 C.ar    1  UNL1        0.0795
     20 C          18.9750   72.8297   -8.7835 C.ar    1  UNL1        0.0869
     21 O          17.3382   70.3421   -7.0206 O.2     1  UNL1       -0.2464
     22 O          19.4418   70.1092  -10.9235 O.2     1  UNL1       -0.2670
     23 H          18.1554   69.2258   -9.0284 H       1  UNL1        0.1734
     24 O          20.3906   70.5012   -1.0109 O.3     1  UNL1       -0.2703
     25 P          21.8721   70.4701   -0.3807 P.3     1  UNL1        0.2208
     26 O          22.0295   69.1687    0.5549 O.3     1  UNL1       -0.4371
     27 O          22.8711   70.4173   -1.4704 O.2     1  UNL1       -0.5170
     28 O          22.1083   71.7969    0.5006 O.3     1  UNL1       -0.2865
     29 C          21.0403   72.5374    1.0941 C.3     1  UNL1        0.2611
     30 C          20.9782   73.9339    0.4706 C.3     1  UNL1        0.1582
     31 C          22.2834   74.6768    0.7724 C.3     1  UNL1        0.1625
     32 C          22.4910   74.7268    2.2886 C.3     1  UNL1        0.1686
     33 C          22.4948   73.2994    2.8421 C.3     1  UNL1        0.1760
     34 O          22.2050   76.0078    0.2570 O.3     1  UNL1       -0.3801
     35 O          21.4306   75.4706    2.8916 O.3     1  UNL1       -0.3794
     36 O          21.2663   72.6544    2.5004 O.3     1  UNL1       -0.3263
     37 H          22.9997   76.5366    0.4121 H       1  UNL1        0.2105
     38 H          21.4975   75.5426    3.8541 H       1  UNL1        0.2105
     39 C          21.8829   73.8382   -1.7899 C.2     1  UNL1        0.2231
     40 C          21.7072   73.7159   -3.2808 C.3     1  UNL1        0.0946
     41 N          20.8065   73.8151   -0.9795 N.am    1  UNL1       -0.2994
     42 O          22.9942   73.9578   -1.3177 O.2     1  UNL1       -0.2751
     43 H          19.9178   73.7205   -1.3567 H       1  UNL1        0.1496
     44 C          22.6420   73.3433    4.3642 C.3     1  UNL1        0.1693
     45 O          21.9861   72.2115    4.9398 O.3     1  UNL1       -0.3794
     46 H          22.0389   72.1742    5.9046 H       1  UNL1        0.2105
@<TRIPOS>BOND
     1    29    30    1
     2    30    41    1
     3    30    31    1
     4    31    34    1
     5    31    32    1
     6    32    35    1
     7    32    33    1
     8    33    36    1
     9    33    44    1
    10    39    40    1
    11    39    42    2
    12    39    41   am
    13    41    43    1
    14    29    28    1
    15    34    37    1
    16    35    38    1
    17    29    36    1
    18    44    45    1
    19    45    46    1
    20    15     6    1
    21    15    16   ar
    22    16    21    2
    23    16    17   ar
    24    17    23    1
    25    17    18   ar
    26    18    19   ar
    27    19    20   ar
    28    15    20   ar
    29    18    22    2
    30     6     7    1
    31     6    11    1
    32     7     9    1
    33     7     8    1
    34     8    13    1
    35     9    10    1
    36     9    12    1
    37    10     5    1
    38    10    11    1
    39    12    14    1
    40     5     4    1
    41     4     1    1
    42     1     2    1
    43     1    24    1
    44     1     3    2
    45    24    25    1
    46    28    25    1
    47    25    26    1
    48    25    27    2
@<TRIPOS>MOLECULE
UD2
 46 48 0 0 0
SMALL
GASTEIGER

@<TRIPOS>ATOM
      1 P          22.9212   72.1924   -3.3009 P.3     1  UNL1        0.2189
      2 O          23.4619   70.6807   -3.1829 O.3     1  UNL1       -0.4371
      3 O          23.6345   72.8881   -4.3946 O.2     1  UNL1       -0.5170
      4 O          21.3420   72.1741   -3.6164 O.3     1  UNL1       -0.3112
      5 C          20.3519   71.9366   -2.6140 C.3     1  UNL1        0.1811
      6 C          18.0307   71.3324   -5.2942 C.3     1  UNL1        0.2383
      7 C          17.9981   70.0330   -4.4501 C.3     1  UNL1        0.1895
      8 O          16.7110   69.4156   -4.5136 O.3     1  UNL1       -0.3779
      9 C          18.2864   70.5639   -3.0245 C.3     1  UNL1        0.1713
     10 C          18.9644   71.9270   -3.2602 C.3     1  UNL1        0.1764
     11 O          19.0855   72.1047   -4.6805 O.3     1  UNL1       -0.3308
     12 O          17.0675   70.7299   -2.2981 O.3     1  UNL1       -0.3794
     13 H          16.6408   68.5985   -4.0017 H       1  UNL1        0.2106
     14 H          16.5693   69.9112   -2.1718 H       1  UNL1        0.2105
     15 N          18.3557   71.0325   -6.6904 N.ar    1  UNL1       -0.2551
     16 C          17.3661   70.7805   -7.5657 C.ar    1  UNL1        0.3323
     17 N          17.6357   70.5017   -8.8548 N.ar    1  UNL1       -0.2743
     18 C          18.9116   70.4729   -9.2905 C.ar    1  UNL1        0.2626
     19 C          19.9631   70.7372   -8.3803 C.ar    1  UNL1        0.0795
     20 C          19.6636   71.0180   -7.0946 C.ar    1  UNL1        0.0869
     21 O          16.2110   70.8033   -7.1868 O.2     1  UNL1       -0.2464
     22 O          19.1569   70.2211  -10.4571 O.2     1  UNL1       -0.2670
     23 H          16.9103   70.3212   -9.4724 H       1  UNL1        0.1734
     24 O          23.1815   72.9657   -1.9126 O.3     1  UNL1       -0.2703
     25 P          23.5890   74.4769   -1.5342 P.3     1  UNL1        0.2208
     26 O          22.6080   75.5032   -2.2946 O.3     1  UNL1       -0.4371
     27 O          23.4667   74.6698   -0.0726 O.2     1  UNL1       -0.5170
     28 O          25.1095   74.7520   -1.9869 O.3     1  UNL1       -0.2865
     29 C          25.5994   76.0521   -2.3201 C.3     1  UNL1        0.2611
     30 C          25.9682   76.0944   -3.8050 C.3     1  UNL1        0.1582
     31 C          27.0942   75.0907   -4.0714 C.3     1  UNL1        0.1625
     32 C          28.2847   75.4237   -3.1680 C.3     1  UNL1        0.1686
     33 C          27.8265   75.4072   -1.7072 C.3     1  UNL1        0.1760
     34 O          27.4953   75.1758   -5.4407 O.3     1  UNL1       -0.3801
     35 O          28.7861   76.7205   -3.4972 O.3     1  UNL1       -0.3794
     36 O          26.7579   76.3400   -1.5343 O.3     1  UNL1       -0.3263
     37 H          28.2063   74.5657   -5.6805 H       1  UNL1        0.2105
     38 H          29.5429   76.9978   -2.9621 H       1  UNL1        0.2105
     39 C          24.4871   76.4647   -5.7042 C.2     1  UNL1        0.2231
     40 C          23.2828   76.1018   -6.5328 C.3     1  UNL1        0.0946
     41 N          24.7965   75.7409   -4.6104 N.am    1  UNL1       -0.2994
     42 O          25.1794   77.4094   -6.0212 O.2     1  UNL1       -0.2751
     43 H          24.2426   74.9862   -4.3560 H       1  UNL1        0.1496
     44 C          28.9962   75.7976   -0.8017 C.3     1  UNL1        0.1693
     45 O          28.8560   75.1500    0.4646 O.3     1  UNL1       -0.3794
     46 H          29.5643   75.3523    1.0910 H       1  UNL1        0.2105
@<TRIPOS>BOND
     1    29    30    1
     2    30    41    1
     3    30    31    1
     4    31    34    1
     5    31    32    1
     6    32    35    1
     7    32    33    1
     8    33    36    1
     9    33    44    1
    10    39    40    1
    11    39    42    2
    12    39    41   am
    13    41    43    1
    14    29    28    1
    15    34    37    1
    16    35    38    1
    17    29    36    1
    18    44    45    1
    19    45    46    1
    20    15     6    1
    21    15    16   ar
    22    16    21    2
    23    16    17   ar
    24    17    23    1
    25    17    18   ar
    26    18    19   ar
    27    19    20   ar
    28    15    20   ar
    29    18    22    2
    30     6     7    1
    31     6    11    1
    32     7     9    1
    33     7     8    1
    34     8    13    1
    35     9    10    1
    36     9    12    1
    37    10     5    1
    38    10    11    1
    39    12    14    1
    40     5     4    1
    41     4     1    1
    42     1     2    1
    43     1    24    1
    44     1     3    2
    45    24    25    1
    46    28    25    1
    47    25    26    1
    48    25    27    2
@<TRIPOS>MOLECULE
UD2
 46 48 0 0 0
SMALL
GASTEIGER

@<TRIPOS>ATOM
      1 P          23.0105   72.9256   -3.9699 P.3     1  UNL1        0.2189
      2 O          24.1075   74.0779   -3.7243 O.3     1  UNL1       -0.4371
      3 O          23.5905   71.6095   -3.6233 O.2     1  UNL1       -0.5170
      4 O          21.7224   73.2051   -3.0444 O.3     1  UNL1       -0.3112
      5 C          21.8176   73.7208   -1.7153 C.3     1  UNL1        0.1811
      6 C          22.9656   72.2621    1.3654 C.3     1  UNL1        0.2383
      7 C          21.8778   71.2843    0.8528 C.3     1  UNL1        0.1895
      8 O          22.1649   69.9443    1.2574 O.3     1  UNL1       -0.3779
      9 C          22.0017   71.4361   -0.6831 C.3     1  UNL1        0.1713
     10 C          22.6994   72.7966   -0.8720 C.3     1  UNL1        0.1764
     11 O          22.8928   73.3632    0.4338 O.3     1  UNL1       -0.3308
     12 O          22.8013   70.3838   -1.2255 O.3     1  UNL1       -0.3794
     13 H          21.5124   69.2954    0.9612 H       1  UNL1        0.2106
     14 H          22.4382   69.4994   -1.0829 H       1  UNL1        0.2105
     15 N          22.6548   72.7134    2.7236 N.ar    1  UNL1       -0.2551
     16 C          21.4217   72.5200    3.2243 C.ar    1  UNL1        0.3323
     17 N          21.1081   72.9247    4.4693 N.ar    1  UNL1       -0.2743
     18 C          22.0338   73.5330    5.2386 C.ar    1  UNL1        0.2626
     19 C          23.3361   73.7421    4.7246 C.ar    1  UNL1        0.0795
     20 C          23.6240   73.3223    3.4746 C.ar    1  UNL1        0.0869
     21 O          20.5771   71.9727    2.5420 O.2     1  UNL1       -0.2464
     22 O          21.7514   73.8994    6.3657 O.2     1  UNL1       -0.2670
     23 H          20.2139   72.7785    4.8144 H       1  UNL1        0.1734
     24 O          22.5682   72.9266   -5.5183 O.3     1  UNL1       -0.2703
     25 P          21.1628   73.1230   -6.2794 P.3     1  UNL1        0.2208
     26 O          20.8126   74.6928   -6.3619 O.3     1  UNL1       -0.4371
     27 O          21.2601   72.5673   -7.6469 O.2     1  UNL1       -0.5170
     28 O          20.0020   72.3557   -5.4691 O.3     1  UNL1       -0.2865
     29 C          19.3343   71.1983   -5.9748 C.3     1  UNL1        0.2611
     30 C          17.8365   71.4867   -6.1018 C.3     1  UNL1        0.1582
     31 C          17.2632   71.7848   -4.7129 C.3     1  UNL1        0.1625
     32 C          17.5495   70.5980   -3.7888 C.3     1  UNL1        0.1686
     33 C          19.0587   70.3437   -3.7510 C.3     1  UNL1        0.1760
     34 O          15.8511   71.9832   -4.8121 O.3     1  UNL1       -0.3801
     35 O          16.8811   69.4359   -4.2829 O.3     1  UNL1       -0.3794
     36 O          19.5332   70.1040   -5.0774 O.3     1  UNL1       -0.3263
     37 H          15.4214   72.1774   -3.9678 H       1  UNL1        0.2105
     38 H          17.0193   68.6434   -3.7453 H       1  UNL1        0.2105
     39 C          16.6456   72.6355   -7.8906 C.2     1  UNL1        0.2231
     40 C          16.4363   73.8271   -8.7878 C.3     1  UNL1        0.0946
     41 N          17.6338   72.6461   -6.9743 N.am    1  UNL1       -0.2994
     42 O          15.9243   71.6652   -7.9924 O.2     1  UNL1       -0.2751
     43 H          18.2113   73.4213   -6.8932 H       1  UNL1        0.1496
     44 C          19.3481   69.1220   -2.8768 C.3     1  UNL1        0.1693
     45 O          19.4696   67.9622   -3.7030 O.3     1  UNL1       -0.3794
     46 H          19.6536   67.1482   -3.2146 H       1  UNL1        0.2105
@<TRIPOS>BOND
     1    29    30    1
     2    30    41    1
     3    30    31    1
     4    31    34    1
     5    31    32    1
     6    32    35    1
     7    32    33    1
     8    33    36    1
     9    33    44    1
    10    39    40    1
    11    39    42    2
    12    39    41   am
    13    41    43    1
    14    29    28    1
    15    34    37    1
    16    35    38    1
    17    29    36    1
    18    44    45    1
    19    45    46    1
    20    15     6    1
    21    15    16   ar
    22    16    21    2
    23    16    17   ar
    24    17    23    1
    25    17    18   ar
    26    18    19   ar
    27    19    20   ar
    28    15    20   ar
    29    18    22    2
    30     6     7    1
    31     6    11    1
    32     7     9    1
    33     7     8    1
    34     8    13    1
    35     9    10    1
    36     9    12    1
    37    10     5    1
    38    10    11    1
    39    12    14    1
    40     5     4    1
    41     4     1    1
    42     1     2    1
    43     1    24    1
    44     1     3    2
    45    24    25    1
    46    28    25    1
    47    25    26    1
    48    25    27    2
@<TRIPOS>MOLECULE
UD2
 46 48 0 0 0
SMALL
GASTEIGER

@<TRIPOS>ATOM
      1 P          22.8246   73.8810   -4.3423 P.3     1  UNL1        0.2189
      2 O          23.9424   72.8154   -3.8881 O.3     1  UNL1       -0.4371
      3 O          22.4628   73.6445   -5.7572 O.2     1  UNL1       -0.5170
      4 O          21.5162   73.7127   -3.4184 O.3     1  UNL1       -0.3112
      5 C          21.5543   73.1248   -2.1167 C.3     1  UNL1        0.1811
      6 C          19.2538   70.7371   -3.5108 C.3     1  UNL1        0.2383
      7 C          20.5931   69.9658   -3.3942 C.3     1  UNL1        0.1895
      8 O          20.3621   68.5747   -3.1633 O.3     1  UNL1       -0.3779
      9 C          21.2447   70.6304   -2.1569 C.3     1  UNL1        0.1713
     10 C          20.5298   71.9902   -2.0397 C.3     1  UNL1        0.1764
     11 O          19.6104   72.0863   -3.1391 O.3     1  UNL1       -0.3308
     12 O          21.0150   69.8418   -0.9881 O.3     1  UNL1       -0.3794
     13 H          21.1698   68.0495   -3.0837 H       1  UNL1        0.2106
     14 H          21.3931   68.9532   -1.0317 H       1  UNL1        0.2105
     15 N          18.7528   70.6958   -4.8864 N.ar    1  UNL1       -0.2551
     16 C          17.5043   70.2581   -5.1280 C.ar    1  UNL1        0.3323
     17 N          17.0178   70.2093   -6.3823 N.ar    1  UNL1       -0.2743
     18 C          17.7809   70.6033   -7.4220 C.ar    1  UNL1        0.2626
     19 C          19.0967   71.0672   -7.1821 C.ar    1  UNL1        0.0795
     20 C          19.5570   71.1095   -5.9141 C.ar    1  UNL1        0.0869
     21 O          16.8049   69.8999   -4.2001 O.2     1  UNL1       -0.2464
     22 O          17.3417   70.5600   -8.5577 O.2     1  UNL1       -0.2670
     23 H          16.1158   69.8899   -6.5389 H       1  UNL1        0.1734
     24 O          23.4075   75.3732   -4.1791 O.3     1  UNL1       -0.2703
     25 P          24.5145   76.2337   -4.9710 P.3     1  UNL1        0.2208
     26 O          24.2739   76.0873   -6.5567 O.3     1  UNL1       -0.4371
     27 O          24.4021   77.6573   -4.5850 O.2     1  UNL1       -0.5170
     28 O          25.9838   75.6905   -4.5983 O.3     1  UNL1       -0.2865
     29 C          27.1467   76.5205   -4.6099 C.3     1  UNL1        0.2611
     30 C          28.3757   75.6739   -4.9496 C.3     1  UNL1        0.1582
     31 C          28.5715   74.6140   -3.8611 C.3     1  UNL1        0.1625
     32 C          28.7034   75.3101   -2.5037 C.3     1  UNL1        0.1686
     33 C          27.4613   76.1710   -2.2583 C.3     1  UNL1        0.1760
     34 O          29.7592   73.8660   -4.1316 O.3     1  UNL1       -0.3801
     35 O          29.8673   76.1387   -2.5029 O.3     1  UNL1       -0.3794
     36 O          27.3201   77.1148   -3.3219 O.3     1  UNL1       -0.3263
     37 H          29.9451   73.1751   -3.4810 H       1  UNL1        0.2105
     38 H          30.0132   76.6123   -1.6719 H       1  UNL1        0.2105
     39 C          29.1908   74.9360   -7.1242 C.2     1  UNL1        0.2231
     40 C          28.9847   74.2595   -8.4540 C.3     1  UNL1        0.0946
     41 N          28.1743   75.0159   -6.2431 N.am    1  UNL1       -0.2994
     42 O          30.2726   75.4095   -6.8455 O.2     1  UNL1       -0.2751
     43 H          27.3089   74.6383   -6.4658 H       1  UNL1        0.1496
     44 C          27.6121   76.9166   -0.9309 C.3     1  UNL1        0.1693
     45 O          28.3578   78.1176   -1.1405 O.3     1  UNL1       -0.3794
     46 H          28.4925   78.6424   -0.3395 H       1  UNL1        0.2105
@<TRIPOS>BOND
     1    29    30    1
     2    30    41    1
     3    30    31    1
     4    31    34    1
     5    31    32    1
     6    32    35    1
     7    32    33    1
     8    33    36    1
     9    33    44    1
    10    39    40    1
    11    39    42    2
    12    39    41   am
    13    41    43    1
    14    29    28    1
    15    34    37    1
    16    35    38    1
    17    29    36    1
    18    44    45    1
    19    45    46    1
    20    15     6    1
    21    15    16   ar
    22    16    21    2
    23    16    17   ar
    24    17    23    1
    25    17    18   ar
    26    18    19   ar
    27    19    20   ar
    28    15    20   ar
    29    18    22    2
    30     6     7    1
    31     6    11    1
    32     7     9    1
    33     7     8    1
    34     8    13    1
    35     9    10    1
    36     9    12    1
    37    10     5    1
    38    10    11    1
    39    12    14    1
    40     5     4    1
    41     4     1    1
    42     1     2    1
    43     1    24    1
    44     1     3    2
    45    24    25    1
    46    28    25    1
    47    25    26    1
    48    25    27    2
