@<TRIPOS>MOLECULE
UD2
 46 48 0 0 0
SMALL
GASTEIGER

@<TRIPOS>ATOM
      1 P          21.1329   71.6941   -2.4269 P.3     1  UNL1        0.2189
      2 O          22.1111   70.5404   -2.9777 O.3     1  UNL1       -0.4371
      3 O          21.6812   73.0202   -2.7870 O.2     1  UNL1       -0.5170
      4 O          19.6736   71.5198   -3.0855 O.3     1  UNL1       -0.3112
      5 C          18.5616   70.9699   -2.3765 C.3     1  UNL1        0.1811
      6 C          16.9668   70.5701   -5.5755 C.3     1  UNL1        0.2383
      7 C          17.0218   69.1379   -4.9858 C.3     1  UNL1        0.1895
      8 O          15.9153   68.3563   -5.4402 O.3     1  UNL1       -0.3779
      9 C          16.9195   69.4083   -3.4647 C.3     1  UNL1        0.1713
     10 C          17.3546   70.8784   -3.3134 C.3     1  UNL1        0.1764
     11 O          17.7131   71.3551   -4.6203 O.3     1  UNL1       -0.3308
     12 O          15.5740   69.2358   -3.0168 O.3     1  UNL1       -0.3794
     13 H          15.9057   67.4519   -5.0988 H       1  UNL1        0.2106
     14 H          15.2281   68.3420   -3.1430 H       1  UNL1        0.2105
     15 N          17.6087   70.6112   -6.8913 N.ar    1  UNL1       -0.2551
     16 C          16.8617   70.4775   -8.0017 C.ar    1  UNL1        0.3323
     17 N          17.4251   70.5111   -9.2238 N.ar    1  UNL1       -0.2743
     18 C          18.7564   70.6825   -9.3530 C.ar    1  UNL1        0.2626
     19 C          19.5547   70.8256   -8.1927 C.ar    1  UNL1        0.0795
     20 C          18.9628   70.7922   -6.9802 C.ar    1  UNL1        0.0869
     21 O          15.6600   70.3225   -7.9002 O.2     1  UNL1       -0.2464
     22 O          19.2675   70.7136  -10.4586 O.2     1  UNL1       -0.2670
     23 H          16.8720   70.4120  -10.0140 H       1  UNL1        0.1734
     24 O          21.0151   71.5787   -0.8250 O.3     1  UNL1       -0.2703
     25 P          22.0668   71.2656    0.3535 P.3     1  UNL1        0.2208
     26 O          21.6130   69.9338    1.1373 O.3     1  UNL1       -0.4371
     27 O          23.4121   71.0614   -0.2268 O.2     1  UNL1       -0.5170
     28 O          22.1072   72.5054    1.3801 O.3     1  UNL1       -0.2865
     29 C          22.3587   72.3508    2.7780 C.3     1  UNL1        0.2611
     30 C          22.0863   73.6748    3.4959 C.3     1  UNL1        0.1582
     31 C          23.0496   74.7411    2.9652 C.3     1  UNL1        0.1625
     32 C          24.4888   74.2581    3.1645 C.3     1  UNL1        0.1686
     33 C          24.6686   72.9112    2.4591 C.3     1  UNL1        0.1760
     34 O          22.8520   75.9619    3.6819 O.3     1  UNL1       -0.3801
     35 O          24.7525   74.1057    4.5604 O.3     1  UNL1       -0.3794
     36 O          23.7227   71.9739    2.9773 O.3     1  UNL1       -0.3263
     37 H          23.4299   76.6830    3.3967 H       1  UNL1        0.2105
     38 H          25.6484   73.8006    4.7611 H       1  UNL1        0.2105
     39 C          19.8787   74.3493    4.2765 C.2     1  UNL1        0.2231
     40 C          18.4588   74.7798    4.0176 C.3     1  UNL1        0.0946
     41 N          20.7052   74.0934    3.2433 N.am    1  UNL1       -0.2994
     42 O          20.2792   74.2325    5.4159 O.2     1  UNL1       -0.2751
     43 H          20.3851   74.1856    2.3322 H       1  UNL1        0.1496
     44 C          26.0871   72.3930    2.7037 C.3     1  UNL1        0.1693
     45 O          26.1263   70.9831    2.4734 O.3     1  UNL1       -0.3794
     46 H          26.9971   70.5857    2.6102 H       1  UNL1        0.2105
@<TRIPOS>BOND
     1    29    30    1
     2    30    41    1
     3    30    31    1
     4    31    34    1
     5    31    32    1
     6    32    35    1
     7    32    33    1
     8    33    36    1
     9    33    44    1
    10    39    40    1
    11    39    42    2
    12    39    41   am
    13    41    43    1
    14    29    28    1
    15    34    37    1
    16    35    38    1
    17    29    36    1
    18    44    45    1
    19    45    46    1
    20    15     6    1
    21    15    16   ar
    22    16    21    2
    23    16    17   ar
    24    17    23    1
    25    17    18   ar
    26    18    19   ar
    27    19    20   ar
    28    15    20   ar
    29    18    22    2
    30     6     7    1
    31     6    11    1
    32     7     9    1
    33     7     8    1
    34     8    13    1
    35     9    10    1
    36     9    12    1
    37    10     5    1
    38    10    11    1
    39    12    14    1
    40     5     4    1
    41     4     1    1
    42     1     2    1
    43     1    24    1
    44     1     3    2
    45    24    25    1
    46    28    25    1
    47    25    26    1
    48    25    27    2
@<TRIPOS>MOLECULE
UD2
 46 48 0 0 0
SMALL
GASTEIGER

@<TRIPOS>ATOM
      1 P          22.4084   71.8073   -3.4828 P.3     1  UNL1        0.2189
      2 O          21.5270   70.5079   -3.8378 O.3     1  UNL1       -0.4371
      3 O          23.8195   71.4085   -3.2865 O.2     1  UNL1       -0.5170
      4 O          22.3133   72.8668   -4.6921 O.3     1  UNL1       -0.3112
      5 C          22.7670   72.5780   -6.0158 C.3     1  UNL1        0.1811
      6 C          19.4156   72.0306   -7.2011 C.3     1  UNL1        0.2383
      7 C          19.3279   73.3390   -6.3750 C.3     1  UNL1        0.1895
      8 O          18.3173   74.2044   -6.8960 O.3     1  UNL1       -0.3779
      9 C          20.7365   73.9483   -6.5803 C.3     1  UNL1        0.1713
     10 C          21.6078   72.7492   -7.0006 C.3     1  UNL1        0.1764
     11 O          20.7701   71.5826   -6.9770 O.3     1  UNL1       -0.3308
     12 O          20.7080   74.9333   -7.6146 O.3     1  UNL1       -0.3794
     13 H          18.2237   75.0362   -6.4123 H       1  UNL1        0.2106
     14 H          20.1278   75.6838   -7.4282 H       1  UNL1        0.2105
     15 N          18.4559   71.0418   -6.7046 N.ar    1  UNL1       -0.2551
     16 C          17.5425   70.5204   -7.5427 C.ar    1  UNL1        0.3323
     17 N          16.6483   69.6102   -7.1136 N.ar    1  UNL1       -0.2743
     18 C          16.6572   69.2038   -5.8278 C.ar    1  UNL1        0.2626
     19 C          17.6139   69.7436   -4.9348 C.ar    1  UNL1        0.0795
     20 C          18.5012   70.6515   -5.3932 C.ar    1  UNL1        0.0869
     21 O          17.5229   70.8775   -8.7048 O.2     1  UNL1       -0.2464
     22 O          15.8487   68.3797   -5.4383 O.2     1  UNL1       -0.2670
     23 H          15.9957   69.2453   -7.7309 H       1  UNL1        0.1734
     24 O          21.8486   72.4834   -2.1327 O.3     1  UNL1       -0.2703
     25 P          20.8801   71.9799   -0.9488 P.3     1  UNL1        0.2208
     26 O          19.3731   72.4637   -1.2466 O.3     1  UNL1       -0.4371
     27 O          20.9179   70.5030   -0.8747 O.2     1  UNL1       -0.5170
     28 O          21.3768   72.6009    0.4513 O.3     1  UNL1       -0.2865
     29 C          21.0568   72.0210    1.7172 C.3     1  UNL1        0.2611
     30 C          20.8001   73.1320    2.7383 C.3     1  UNL1        0.1582
     31 C          22.0787   73.9570    2.9145 C.3     1  UNL1        0.1625
     32 C          23.2181   73.0278    3.3419 C.3     1  UNL1        0.1686
     33 C          23.3816   71.9206    2.2972 C.3     1  UNL1        0.1760
     34 O          21.8703   74.9511    3.9203 O.3     1  UNL1       -0.3801
     35 O          22.9104   72.4468    4.6103 O.3     1  UNL1       -0.3794
     36 O          22.1485   71.2118    2.1596 O.3     1  UNL1       -0.3263
     37 H          22.6408   75.5121    4.0838 H       1  UNL1        0.2105
     38 H          23.5904   71.8445    4.9432 H       1  UNL1        0.2105
     39 C          18.7274   74.3635    3.0922 C.2     1  UNL1        0.2231
     40 C          17.6175   75.2542    2.5991 C.3     1  UNL1        0.0946
     41 N          19.7207   73.9983    2.2578 N.am    1  UNL1       -0.2994
     42 O          18.7277   73.9741    4.2413 O.2     1  UNL1       -0.2751
     43 H          19.7203   74.3086    1.3387 H       1  UNL1        0.1496
     44 C          24.4786   70.9537    2.7467 C.3     1  UNL1        0.1693
     45 O          24.6424   69.9282    1.7649 O.3     1  UNL1       -0.3794
     46 H          25.3234   69.2778    1.9845 H       1  UNL1        0.2105
@<TRIPOS>BOND
     1    29    30    1
     2    30    41    1
     3    30    31    1
     4    31    34    1
     5    31    32    1
     6    32    35    1
     7    32    33    1
     8    33    36    1
     9    33    44    1
    10    39    40    1
    11    39    42    2
    12    39    41   am
    13    41    43    1
    14    29    28    1
    15    34    37    1
    16    35    38    1
    17    29    36    1
    18    44    45    1
    19    45    46    1
    20    15     6    1
    21    15    16   ar
    22    16    21    2
    23    16    17   ar
    24    17    23    1
    25    17    18   ar
    26    18    19   ar
    27    19    20   ar
    28    15    20   ar
    29    18    22    2
    30     6     7    1
    31     6    11    1
    32     7     9    1
    33     7     8    1
    34     8    13    1
    35     9    10    1
    36     9    12    1
    37    10     5    1
    38    10    11    1
    39    12    14    1
    40     5     4    1
    41     4     1    1
    42     1     2    1
    43     1    24    1
    44     1     3    2
    45    24    25    1
    46    28    25    1
    47    25    26    1
    48    25    27    2
@<TRIPOS>MOLECULE
UD2
 46 48 0 0 0
SMALL
GASTEIGER

@<TRIPOS>ATOM
      1 P          21.0858   71.9396   -1.9705 P.3     1  UNL1        0.2189
      2 O          22.0512   70.7837   -2.5390 O.3     1  UNL1       -0.4371
      3 O          21.1466   73.1175   -2.8637 O.2     1  UNL1       -0.5170
      4 O          19.5727   71.3918   -1.9069 O.3     1  UNL1       -0.3112
      5 C          19.1556   70.1848   -2.5477 C.3     1  UNL1        0.1811
      6 C          17.3080   70.4476   -5.6225 C.3     1  UNL1        0.2383
      7 C          17.0582   68.9959   -5.1406 C.3     1  UNL1        0.1895
      8 O          15.7703   68.5356   -5.5544 O.3     1  UNL1       -0.3779
      9 C          17.1218   69.1487   -3.6011 C.3     1  UNL1        0.1713
     10 C          17.9036   70.4585   -3.3847 C.3     1  UNL1        0.1764
     11 O          18.2800   70.9512   -4.6805 O.3     1  UNL1       -0.3308
     12 O          15.8058   69.2552   -3.0555 O.3     1  UNL1       -0.3794
     13 H          15.5675   67.6319   -5.2772 H       1  UNL1        0.2106
     14 H          15.2495   68.4808   -3.2144 H       1  UNL1        0.2105
     15 N          17.8547   70.4532   -6.9812 N.ar    1  UNL1       -0.2551
     16 C          17.0200   70.4320   -8.0355 C.ar    1  UNL1        0.3323
     17 N          17.4947   70.4364   -9.2952 N.ar    1  UNL1       -0.2743
     18 C          18.8242   70.4641   -9.5194 C.ar    1  UNL1        0.2626
     19 C          19.7143   70.4877   -8.4189 C.ar    1  UNL1        0.0795
     20 C          19.2106   70.4870   -7.1668 C.ar    1  UNL1        0.0869
     21 O          15.8188   70.4071   -7.8483 O.2     1  UNL1       -0.2464
     22 O          19.2551   70.4685  -10.6590 O.2     1  UNL1       -0.2670
     23 H          16.8789   70.4196  -10.0440 H       1  UNL1        0.1734
     24 O          21.5657   72.3613   -0.4923 O.3     1  UNL1       -0.2703
     25 P          22.1688   71.5499    0.7611 P.3     1  UNL1        0.2208
     26 O          21.4783   70.0971    0.8417 O.3     1  UNL1       -0.4371
     27 O          23.6297   71.3923    0.5903 O.2     1  UNL1       -0.5170
     28 O          21.8713   72.3620    2.1193 O.3     1  UNL1       -0.2865
     29 C          22.1733   73.7493    2.2788 C.3     1  UNL1        0.2611
     30 C          23.1193   73.9331    3.4679 C.3     1  UNL1        0.1582
     31 C          22.4182   73.4600    4.7450 C.3     1  UNL1        0.1625
     32 C          21.1120   74.2402    4.9164 C.3     1  UNL1        0.1686
     33 C          20.2431   74.0444    3.6712 C.3     1  UNL1        0.1760
     34 O          23.2668   73.6961    5.8708 O.3     1  UNL1       -0.3801
     35 O          21.4035   75.6290    5.0826 O.3     1  UNL1       -0.3794
     36 O          20.9653   74.4752    2.5158 O.3     1  UNL1       -0.3263
     37 H          22.8856   73.4190    6.7152 H       1  UNL1        0.2105
     38 H          20.6200   76.1852    5.1962 H       1  UNL1        0.2105
     39 C          25.5447   73.7231    3.3611 C.2     1  UNL1        0.2231
     40 C          26.7935   72.9101    3.1416 C.3     1  UNL1        0.0946
     41 N          24.3336   73.1417    3.2540 N.am    1  UNL1       -0.2994
     42 O          25.6285   74.9022    3.6345 O.2     1  UNL1       -0.2751
     43 H          24.2661   72.1992    3.0345 H       1  UNL1        0.1496
     44 C          18.9618   74.8689    3.8088 C.3     1  UNL1        0.1693
     45 O          18.4528   74.7412    5.1381 O.3     1  UNL1       -0.3794
     46 H          17.6393   75.2388    5.2979 H       1  UNL1        0.2105
@<TRIPOS>BOND
     1    29    30    1
     2    30    41    1
     3    30    31    1
     4    31    34    1
     5    31    32    1
     6    32    35    1
     7    32    33    1
     8    33    36    1
     9    33    44    1
    10    39    40    1
    11    39    42    2
    12    39    41   am
    13    41    43    1
    14    29    28    1
    15    34    37    1
    16    35    38    1
    17    29    36    1
    18    44    45    1
    19    45    46    1
    20    15     6    1
    21    15    16   ar
    22    16    21    2
    23    16    17   ar
    24    17    23    1
    25    17    18   ar
    26    18    19   ar
    27    19    20   ar
    28    15    20   ar
    29    18    22    2
    30     6     7    1
    31     6    11    1
    32     7     9    1
    33     7     8    1
    34     8    13    1
    35     9    10    1
    36     9    12    1
    37    10     5    1
    38    10    11    1
    39    12    14    1
    40     5     4    1
    41     4     1    1
    42     1     2    1
    43     1    24    1
    44     1     3    2
    45    24    25    1
    46    28    25    1
    47    25    26    1
    48    25    27    2
@<TRIPOS>MOLECULE
UD2
 46 48 0 0 0
SMALL
GASTEIGER

@<TRIPOS>ATOM
      1 P          20.2890   70.4964   -3.0271 P.3     1  UNL1        0.2189
      2 O          19.8686   70.3666   -1.4786 O.3     1  UNL1       -0.4371
      3 O          19.7099   69.3702   -3.7922 O.2     1  UNL1       -0.5170
      4 O          19.7350   71.8882   -3.6185 O.3     1  UNL1       -0.3112
      5 C          18.5665   72.5369   -3.1135 C.3     1  UNL1        0.1811
      6 C          17.0972   71.4978   -6.2277 C.3     1  UNL1        0.2383
      7 C          16.9784   70.2564   -5.3073 C.3     1  UNL1        0.1895
      8 O          15.8220   69.4850   -5.6381 O.3     1  UNL1       -0.3779
      9 C          16.8299   70.9021   -3.9079 C.3     1  UNL1        0.1713
     10 C          17.4035   72.3210   -4.0851 C.3     1  UNL1        0.1764
     11 O          17.8715   72.4273   -5.4390 O.3     1  UNL1       -0.3308
     12 O          15.4536   70.9622   -3.5297 O.3     1  UNL1       -0.3794
     13 H          15.7044   68.6973   -5.0901 H       1  UNL1        0.2106
     14 H          15.0257   70.0981   -3.4610 H       1  UNL1        0.2105
     15 N          17.8034   71.1570   -7.4647 N.ar    1  UNL1       -0.2551
     16 C          17.1107   70.7004   -8.5233 C.ar    1  UNL1        0.3323
     17 N          17.7337   70.3793   -9.6727 N.ar    1  UNL1       -0.2743
     18 C          19.0712   70.5139   -9.7802 C.ar    1  UNL1        0.2626
     19 C          19.8127   70.9944   -8.6741 C.ar    1  UNL1        0.0795
     20 C          19.1616   71.3126   -7.5355 C.ar    1  UNL1        0.0869
     21 O          15.9042   70.5742   -8.4407 O.2     1  UNL1       -0.2464
     22 O          19.6363   70.2241  -10.8200 O.2     1  UNL1       -0.2670
     23 H          17.2194   70.0504  -10.4259 H       1  UNL1        0.1734
     24 O          21.8941   70.4618   -3.1525 O.3     1  UNL1       -0.2703
     25 P          23.0379   71.5949   -3.1797 P.3     1  UNL1        0.2208
     26 O          24.4765   70.9102   -2.9446 O.3     1  UNL1       -0.4371
     27 O          23.0256   72.2773   -4.4922 O.2     1  UNL1       -0.5170
     28 O          22.7572   72.6688   -2.0133 O.3     1  UNL1       -0.2865
     29 C          23.7235   73.6346   -1.5953 C.3     1  UNL1        0.2611
     30 C          23.6894   73.7651   -0.0707 C.3     1  UNL1        0.1582
     31 C          22.3093   74.2721    0.3590 C.3     1  UNL1        0.1625
     32 C          22.0242   75.6021   -0.3440 C.3     1  UNL1        0.1686
     33 C          22.1224   75.4006   -1.8585 C.3     1  UNL1        0.1760
     34 O          22.2920   74.4669    1.7750 O.3     1  UNL1       -0.3801
     35 O          22.9822   76.5771    0.0718 O.3     1  UNL1       -0.3794
     36 O          23.4194   74.8992   -2.1875 O.3     1  UNL1       -0.3263
     37 H          21.4462   74.7873    2.1172 H       1  UNL1        0.2105
     38 H          22.8621   77.4462   -0.3357 H       1  UNL1        0.2105
     39 C          24.7352   72.3599    1.6232 C.2     1  UNL1        0.2231
     40 C          24.9951   71.0152    2.2499 C.3     1  UNL1        0.0946
     41 N          23.9419   72.4567    0.5382 N.am    1  UNL1       -0.2994
     42 O          25.2404   73.3571    2.0951 O.2     1  UNL1       -0.2751
     43 H          23.5386   71.6596    0.1600 H       1  UNL1        0.1496
     44 C          21.8977   76.7382   -2.5663 C.3     1  UNL1        0.1693
     45 O          23.1545   77.3873   -2.7698 O.3     1  UNL1       -0.3794
     46 H          23.0882   78.2433   -3.2147 H       1  UNL1        0.2105
@<TRIPOS>BOND
     1    29    30    1
     2    30    41    1
     3    30    31    1
     4    31    34    1
     5    31    32    1
     6    32    35    1
     7    32    33    1
     8    33    36    1
     9    33    44    1
    10    39    40    1
    11    39    42    2
    12    39    41   am
    13    41    43    1
    14    29    28    1
    15    34    37    1
    16    35    38    1
    17    29    36    1
    18    44    45    1
    19    45    46    1
    20    15     6    1
    21    15    16   ar
    22    16    21    2
    23    16    17   ar
    24    17    23    1
    25    17    18   ar
    26    18    19   ar
    27    19    20   ar
    28    15    20   ar
    29    18    22    2
    30     6     7    1
    31     6    11    1
    32     7     9    1
    33     7     8    1
    34     8    13    1
    35     9    10    1
    36     9    12    1
    37    10     5    1
    38    10    11    1
    39    12    14    1
    40     5     4    1
    41     4     1    1
    42     1     2    1
    43     1    24    1
    44     1     3    2
    45    24    25    1
    46    28    25    1
    47    25    26    1
    48    25    27    2
@<TRIPOS>MOLECULE
UD2
 46 48 0 0 0
SMALL
GASTEIGER

@<TRIPOS>ATOM
      1 P          20.8146   72.4673   -2.8545 P.3     1  UNL1        0.2189
      2 O          22.1940   72.2122   -3.6440 O.3     1  UNL1       -0.4371
      3 O          20.2178   73.7447   -3.3028 O.2     1  UNL1       -0.5170
      4 O          19.7916   71.2611   -3.1581 O.3     1  UNL1       -0.3112
      5 C          18.6137   71.0275   -2.3839 C.3     1  UNL1        0.1811
      6 C          17.0057   70.5863   -5.5708 C.3     1  UNL1        0.2383
      7 C          17.0550   69.1632   -4.9588 C.3     1  UNL1        0.1895
      8 O          15.9427   68.3807   -5.3972 O.3     1  UNL1       -0.3779
      9 C          16.9594   69.4580   -3.4418 C.3     1  UNL1        0.1713
     10 C          17.4030   70.9279   -3.3151 C.3     1  UNL1        0.1764
     11 O          17.7595   71.3821   -4.6305 O.3     1  UNL1       -0.3308
     12 O          15.6145   69.2999   -2.9867 O.3     1  UNL1       -0.3794
     13 H          15.9294   67.4818   -5.0417 H       1  UNL1        0.2106
     14 H          15.2634   68.4062   -3.0977 H       1  UNL1        0.2105
     15 N          17.6433   70.6033   -6.8892 N.ar    1  UNL1       -0.2551
     16 C          16.8860   70.5119   -7.9969 C.ar    1  UNL1        0.3323
     17 N          17.4451   70.5247   -9.2214 N.ar    1  UNL1       -0.2743
     18 C          18.7827   70.6321   -9.3557 C.ar    1  UNL1        0.2626
     19 C          19.5919   70.7301   -8.1982 C.ar    1  UNL1        0.0795
     20 C          19.0041   70.7189   -6.9833 C.ar    1  UNL1        0.0869
     21 O          15.6786   70.4148   -7.8908 O.2     1  UNL1       -0.2464
     22 O          19.2900   70.6442  -10.4634 O.2     1  UNL1       -0.2670
     23 H          16.8846   70.4567  -10.0096 H       1  UNL1        0.1734
     24 O          21.1064   72.5370   -1.2723 O.3     1  UNL1       -0.2703
     25 P          21.8554   71.5648   -0.2298 P.3     1  UNL1        0.2208
     26 O          20.9004   70.3161    0.1199 O.3     1  UNL1       -0.4371
     27 O          23.1126   71.0700   -0.8322 O.2     1  UNL1       -0.5170
     28 O          22.1898   72.3793    1.1183 O.3     1  UNL1       -0.2865
     29 C          21.9858   73.7874    1.2480 C.3     1  UNL1        0.2611
     30 C          23.2896   74.5242    0.9319 C.3     1  UNL1        0.1582
     31 C          24.3578   74.1133    1.9500 C.3     1  UNL1        0.1625
     32 C          23.8467   74.4173    3.3609 C.3     1  UNL1        0.1686
     33 C          22.5211   73.6844    3.5834 C.3     1  UNL1        0.1760
     34 O          25.5575   74.8517    1.7072 O.3     1  UNL1       -0.3801
     35 O          23.6448   75.8245    3.5030 O.3     1  UNL1       -0.3794
     36 O          21.5818   74.0886    2.5853 O.3     1  UNL1       -0.3263
     37 H          26.2786   74.6410    2.3161 H       1  UNL1        0.2105
     38 H          23.3197   76.0899    4.3747 H       1  UNL1        0.2105
     39 C          24.1968   75.1263   -1.2480 C.2     1  UNL1        0.2231
     40 C          24.6573   74.7628   -2.6353 C.3     1  UNL1        0.0946
     41 N          23.7371   74.1698   -0.4174 N.am    1  UNL1       -0.2994
     42 O          24.2395   76.2810   -0.8776 O.2     1  UNL1       -0.2751
     43 H          23.7019   73.2467   -0.7135 H       1  UNL1        0.1496
     44 C          21.9737   74.0304    4.9694 C.3     1  UNL1        0.1693
     45 O          22.2217   72.9448    5.8651 O.3     1  UNL1       -0.3794
     46 H          21.9005   73.0951    6.7647 H       1  UNL1        0.2105
@<TRIPOS>BOND
     1    29    30    1
     2    30    41    1
     3    30    31    1
     4    31    34    1
     5    31    32    1
     6    32    35    1
     7    32    33    1
     8    33    36    1
     9    33    44    1
    10    39    40    1
    11    39    42    2
    12    39    41   am
    13    41    43    1
    14    29    28    1
    15    34    37    1
    16    35    38    1
    17    29    36    1
    18    44    45    1
    19    45    46    1
    20    15     6    1
    21    15    16   ar
    22    16    21    2
    23    16    17   ar
    24    17    23    1
    25    17    18   ar
    26    18    19   ar
    27    19    20   ar
    28    15    20   ar
    29    18    22    2
    30     6     7    1
    31     6    11    1
    32     7     9    1
    33     7     8    1
    34     8    13    1
    35     9    10    1
    36     9    12    1
    37    10     5    1
    38    10    11    1
    39    12    14    1
    40     5     4    1
    41     4     1    1
    42     1     2    1
    43     1    24    1
    44     1     3    2
    45    24    25    1
    46    28    25    1
    47    25    26    1
    48    25    27    2
@<TRIPOS>MOLECULE
UD2
 46 48 0 0 0
SMALL
GASTEIGER

@<TRIPOS>ATOM
      1 P          23.4715   72.0918   -3.3816 P.3     1  UNL1        0.2189
      2 O          24.4257   73.0014   -4.3055 O.3     1  UNL1       -0.4371
      3 O          24.1758   70.8404   -3.0256 O.2     1  UNL1       -0.5170
      4 O          23.0982   72.8983   -2.0385 O.3     1  UNL1       -0.3112
      5 C          21.7627   73.0056   -1.5422 C.3     1  UNL1        0.1811
      6 C          23.0696   72.0790    1.6781 C.3     1  UNL1        0.2383
      7 C          22.3805   73.4468    1.9160 C.3     1  UNL1        0.1895
      8 O          21.8663   73.5343    3.2463 O.3     1  UNL1       -0.3779
      9 C          21.2302   73.4160    0.8801 C.3     1  UNL1        0.1713
     10 C          21.6822   72.3668   -0.1535 C.3     1  UNL1        0.1764
     11 O          22.9814   71.9034    0.2474 O.3     1  UNL1       -0.3308
     12 O          20.0092   73.0123    1.5022 O.3     1  UNL1       -0.3794
     13 H          21.4264   74.3722    3.4439 H       1  UNL1        0.2106
     14 H          19.7086   73.6066    2.2028 H       1  UNL1        0.2105
     15 N          24.4691   72.1249    2.1074 N.ar    1  UNL1       -0.2551
     16 C          25.1846   70.9878    2.1698 C.ar    1  UNL1        0.3323
     17 N          26.4726   71.0003    2.5611 N.ar    1  UNL1       -0.2743
     18 C          27.0687   72.1624    2.8969 C.ar    1  UNL1        0.2626
     19 C          26.3276   73.3671    2.8348 C.ar    1  UNL1        0.0795
     20 C          25.0392   73.3256    2.4350 C.ar    1  UNL1        0.0869
     21 O          24.6601   69.9327    1.8698 O.2     1  UNL1       -0.2464
     22 O          28.2345   72.1752    3.2508 O.2     1  UNL1       -0.2670
     23 H          26.9736   70.1712    2.6016 H       1  UNL1        0.1734
     24 O          22.1225   71.7385   -4.1870 O.3     1  UNL1       -0.2703
     25 P          21.4086   72.3497   -5.4945 P.3     1  UNL1        0.2208
     26 O          21.1629   73.9273   -5.2832 O.3     1  UNL1       -0.4371
     27 O          22.2762   72.1399   -6.6742 O.2     1  UNL1       -0.5170
     28 O          19.9962   71.6128   -5.7286 O.3     1  UNL1       -0.2865
     29 C          18.9091   72.2185   -6.4306 C.3     1  UNL1        0.2611
     30 C          17.5866   71.8020   -5.7823 C.3     1  UNL1        0.1582
     31 C          17.4269   70.2830   -5.8989 C.3     1  UNL1        0.1625
     32 C          17.5004   69.8845   -7.3754 C.3     1  UNL1        0.1686
     33 C          18.8266   70.3750   -7.9624 C.3     1  UNL1        0.1760
     34 O          16.1608   69.8937   -5.3616 O.3     1  UNL1       -0.3801
     35 O          16.4136   70.4808   -8.0857 O.3     1  UNL1       -0.3794
     36 O          18.9257   71.7906   -7.7940 O.3     1  UNL1       -0.3263
     37 H          15.9926   68.9422   -5.4021 H       1  UNL1        0.2105
     38 H          16.3977   70.2710   -9.0300 H       1  UNL1        0.2105
     39 C          18.0428   71.3236   -3.4369 C.2     1  UNL1        0.2231
     40 C          18.0490   71.7185   -1.9834 C.3     1  UNL1        0.0946
     41 N          17.5921   72.1867   -4.3686 N.am    1  UNL1       -0.2994
     42 O          18.4437   70.2279   -3.7697 O.2     1  UNL1       -0.2751
     43 H          17.2706   73.0625   -4.1029 H       1  UNL1        0.1496
     44 C          18.8820   70.0332   -9.4525 C.3     1  UNL1        0.1693
     45 O          18.4552   71.1625  -10.2172 O.3     1  UNL1       -0.3794
     46 H          18.4648   71.0173  -11.1732 H       1  UNL1        0.2105
@<TRIPOS>BOND
     1    29    30    1
     2    30    41    1
     3    30    31    1
     4    31    34    1
     5    31    32    1
     6    32    35    1
     7    32    33    1
     8    33    36    1
     9    33    44    1
    10    39    40    1
    11    39    42    2
    12    39    41   am
    13    41    43    1
    14    29    28    1
    15    34    37    1
    16    35    38    1
    17    29    36    1
    18    44    45    1
    19    45    46    1
    20    15     6    1
    21    15    16   ar
    22    16    21    2
    23    16    17   ar
    24    17    23    1
    25    17    18   ar
    26    18    19   ar
    27    19    20   ar
    28    15    20   ar
    29    18    22    2
    30     6     7    1
    31     6    11    1
    32     7     9    1
    33     7     8    1
    34     8    13    1
    35     9    10    1
    36     9    12    1
    37    10     5    1
    38    10    11    1
    39    12    14    1
    40     5     4    1
    41     4     1    1
    42     1     2    1
    43     1    24    1
    44     1     3    2
    45    24    25    1
    46    28    25    1
    47    25    26    1
    48    25    27    2
@<TRIPOS>MOLECULE
UD2
 46 48 0 0 0
SMALL
GASTEIGER

@<TRIPOS>ATOM
      1 P          22.1138   71.2893    0.2910 P.3     1  UNL1        0.2189
      2 O          21.1811   72.5714    0.5700 O.3     1  UNL1       -0.4371
      3 O          21.6154   70.1365    1.0730 O.2     1  UNL1       -0.5170
      4 O          22.0762   70.9298   -1.2784 O.3     1  UNL1       -0.3112
      5 C          21.3752   71.7204   -2.2402 C.3     1  UNL1        0.1811
      6 C          20.6889   70.9235   -5.6797 C.3     1  UNL1        0.2383
      7 C          21.1220   72.4115   -5.7034 C.3     1  UNL1        0.1895
      8 O          21.7720   72.7340   -6.9343 O.3     1  UNL1       -0.3779
      9 C          22.1170   72.4795   -4.5190 C.3     1  UNL1        0.1713
     10 C          21.7524   71.2603   -3.6505 C.3     1  UNL1        0.1764
     11 O          20.6294   70.6139   -4.2704 O.3     1  UNL1       -0.3308
     12 O          23.4615   72.3743   -4.9902 O.3     1  UNL1       -0.3794
     13 H          22.0612   73.6544   -6.9974 H       1  UNL1        0.2106
     14 H          23.7258   73.0854   -5.5894 H       1  UNL1        0.2105
     15 N          19.3725   70.7596   -6.3004 N.ar    1  UNL1       -0.2551
     16 C          19.2855   70.4212   -7.5992 C.ar    1  UNL1        0.3323
     17 N          18.0890   70.2640   -8.1955 N.ar    1  UNL1       -0.2743
     18 C          16.9518   70.4432   -7.4932 C.ar    1  UNL1        0.2626
     19 C          17.0285   70.7986   -6.1250 C.ar    1  UNL1        0.0795
     20 C          18.2415   70.9454   -5.5517 C.ar    1  UNL1        0.0869
     21 O          20.3026   70.2563   -8.2447 O.2     1  UNL1       -0.2464
     22 O          15.8681   70.3009   -8.0317 O.2     1  UNL1       -0.2670
     23 H          18.0442   70.0211   -9.1332 H       1  UNL1        0.1734
     24 O          23.6276   71.6210    0.7288 O.3     1  UNL1       -0.2703
     25 P          24.3880   71.7079    2.1455 P.3     1  UNL1        0.2208
     26 O          24.7005   70.2206    2.6785 O.3     1  UNL1       -0.4371
     27 O          25.6577   72.4487    1.9795 O.2     1  UNL1       -0.5170
     28 O          23.4540   72.4746    3.2097 O.3     1  UNL1       -0.2865
     29 C          23.3077   73.8956    3.2354 C.3     1  UNL1        0.2611
     30 C          23.8359   74.4399    4.5649 C.3     1  UNL1        0.1582
     31 C          22.9977   73.8652    5.7110 C.3     1  UNL1        0.1625
     32 C          21.5264   74.2213    5.4816 C.3     1  UNL1        0.1686
     33 C          21.0871   73.6852    4.1164 C.3     1  UNL1        0.1760
     34 O          23.4369   74.4252    6.9507 O.3     1  UNL1       -0.3801
     35 O          21.3683   75.6410    5.5112 O.3     1  UNL1       -0.3794
     36 O          21.9262   74.2344    3.0984 O.3     1  UNL1       -0.3263
     37 H          22.9491   74.1042    7.7216 H       1  UNL1        0.2105
     38 H          20.4585   75.9391    5.3716 H       1  UNL1        0.2105
     39 C          26.1292   74.9181    5.2358 C.2     1  UNL1        0.2231
     40 C          27.5684   74.5101    5.4110 C.3     1  UNL1        0.0946
     41 N          25.2358   74.0423    4.7348 N.am    1  UNL1       -0.2994
     42 O          25.7733   76.0360    5.5455 O.2     1  UNL1       -0.2751
     43 H          25.5200   73.1488    4.4861 H       1  UNL1        0.1496
     44 C          19.6350   74.0886    3.8535 C.3     1  UNL1        0.1693
     45 O          19.3876   74.0901    2.4460 O.3     1  UNL1       -0.3794
     46 H          18.4843   74.3373    2.2052 H       1  UNL1        0.2105
@<TRIPOS>BOND
     1    29    30    1
     2    30    41    1
     3    30    31    1
     4    31    34    1
     5    31    32    1
     6    32    35    1
     7    32    33    1
     8    33    36    1
     9    33    44    1
    10    39    40    1
    11    39    42    2
    12    39    41   am
    13    41    43    1
    14    29    28    1
    15    34    37    1
    16    35    38    1
    17    29    36    1
    18    44    45    1
    19    45    46    1
    20    15     6    1
    21    15    16   ar
    22    16    21    2
    23    16    17   ar
    24    17    23    1
    25    17    18   ar
    26    18    19   ar
    27    19    20   ar
    28    15    20   ar
    29    18    22    2
    30     6     7    1
    31     6    11    1
    32     7     9    1
    33     7     8    1
    34     8    13    1
    35     9    10    1
    36     9    12    1
    37    10     5    1
    38    10    11    1
    39    12    14    1
    40     5     4    1
    41     4     1    1
    42     1     2    1
    43     1    24    1
    44     1     3    2
    45    24    25    1
    46    28    25    1
    47    25    26    1
    48    25    27    2
@<TRIPOS>MOLECULE
UD2
 46 48 0 0 0
SMALL
GASTEIGER

@<TRIPOS>ATOM
      1 P          16.3070   69.7252   -2.4839 P.3     1  UNL1        0.2189
      2 O          17.1698   68.3949   -2.2060 O.3     1  UNL1       -0.4371
      3 O          15.9639   69.8002   -3.9211 O.2     1  UNL1       -0.5170
      4 O          14.9544   69.6795   -1.6108 O.3     1  UNL1       -0.3112
      5 C          14.7790   68.8047   -0.4948 C.3     1  UNL1        0.1811
      6 C          11.9696   67.7874    1.5074 C.3     1  UNL1        0.2383
      7 C          12.2752   69.2343    1.9713 C.3     1  UNL1        0.1895
      8 O          11.0825   69.8959    2.3974 O.3     1  UNL1       -0.3779
      9 C          12.8330   69.8793    0.6789 C.3     1  UNL1        0.1713
     10 C          13.2874   68.6799   -0.1746 C.3     1  UNL1        0.1764
     11 O          13.0509   67.4916    0.5970 O.3     1  UNL1       -0.3308
     12 O          11.8090   70.6134    0.0056 O.3     1  UNL1       -0.3794
     13 H          11.2222   70.8042    2.6977 H       1  UNL1        0.2106
     14 H          11.4445   71.3451    0.5217 H       1  UNL1        0.2105
     15 N          11.9866   66.8663    2.6459 N.ar    1  UNL1       -0.2551
     16 C          13.1573   66.3704    3.0845 C.ar    1  UNL1        0.3323
     17 N          13.2026   65.5219    4.1286 N.ar    1  UNL1       -0.2743
     18 C          12.0661   65.1557    4.7554 C.ar    1  UNL1        0.2626
     19 C          10.8269   65.6708    4.3049 C.ar    1  UNL1        0.0795
     20 C          10.8114   66.5231    3.2585 C.ar    1  UNL1        0.0869
     21 O          14.1899   66.6921    2.5291 O.2     1  UNL1       -0.2464
     22 O          12.1058   64.3880    5.7008 O.2     1  UNL1       -0.2670
     23 H          14.0551   65.1728    4.4313 H       1  UNL1        0.1734
     24 O          17.1690   71.0207   -2.0692 O.3     1  UNL1       -0.2703
     25 P          18.6344   71.5607   -2.4614 P.3     1  UNL1        0.2208
     26 O          18.8917   72.9807   -1.7464 O.3     1  UNL1       -0.4371
     27 O          19.6553   70.5898   -2.0103 O.2     1  UNL1       -0.5170
     28 O          18.7310   71.7385   -4.0588 O.3     1  UNL1       -0.2865
     29 C          19.5500   70.9102   -4.8862 C.3     1  UNL1        0.2611
     30 C          20.4985   71.7867   -5.7076 C.3     1  UNL1        0.1582
     31 C          19.6745   72.6929   -6.6275 C.3     1  UNL1        0.1625
     32 C          18.7758   71.8235   -7.5112 C.3     1  UNL1        0.1686
     33 C          17.8934   70.9454   -6.6199 C.3     1  UNL1        0.1760
     34 O          20.5533   73.4627   -7.4510 O.3     1  UNL1       -0.3801
     35 O          19.5857   70.9949   -8.3471 O.3     1  UNL1       -0.3794
     36 O          18.7210   70.1506   -5.7682 O.3     1  UNL1       -0.3263
     37 H          20.0982   74.0609   -8.0594 H       1  UNL1        0.2105
     38 H          19.0811   70.4153   -8.9349 H       1  UNL1        0.2105
     39 C          22.6069   72.8373   -5.0841 C.2     1  UNL1        0.2231
     40 C          23.4396   73.6841   -4.1577 C.3     1  UNL1        0.0946
     41 N          21.3079   72.6103   -4.8059 N.am    1  UNL1       -0.2994
     42 O          23.1054   72.3588   -6.0815 O.2     1  UNL1       -0.2751
     43 H          20.9092   72.9917   -4.0081 H       1  UNL1        0.1496
     44 C          17.0348   70.0307   -7.4955 C.3     1  UNL1        0.1693
     45 O          16.6813   70.7163   -8.6986 O.3     1  UNL1       -0.3794
     46 H          16.1354   70.1951   -9.3030 H       1  UNL1        0.2105
@<TRIPOS>BOND
     1    29    30    1
     2    30    41    1
     3    30    31    1
     4    31    34    1
     5    31    32    1
     6    32    35    1
     7    32    33    1
     8    33    36    1
     9    33    44    1
    10    39    40    1
    11    39    42    2
    12    39    41   am
    13    41    43    1
    14    29    28    1
    15    34    37    1
    16    35    38    1
    17    29    36    1
    18    44    45    1
    19    45    46    1
    20    15     6    1
    21    15    16   ar
    22    16    21    2
    23    16    17   ar
    24    17    23    1
    25    17    18   ar
    26    18    19   ar
    27    19    20   ar
    28    15    20   ar
    29    18    22    2
    30     6     7    1
    31     6    11    1
    32     7     9    1
    33     7     8    1
    34     8    13    1
    35     9    10    1
    36     9    12    1
    37    10     5    1
    38    10    11    1
    39    12    14    1
    40     5     4    1
    41     4     1    1
    42     1     2    1
    43     1    24    1
    44     1     3    2
    45    24    25    1
    46    28    25    1
    47    25    26    1
    48    25    27    2
@<TRIPOS>MOLECULE
UD2
 46 48 0 0 0
SMALL
GASTEIGER

@<TRIPOS>ATOM
      1 P          22.0512   72.8991   -6.6216 P.3     1  UNL1        0.2189
      2 O          23.0255   73.3426   -7.8239 O.3     1  UNL1       -0.4371
      3 O          21.1160   74.0027   -6.3111 O.2     1  UNL1       -0.5170
      4 O          21.2152   71.5949   -7.0619 O.3     1  UNL1       -0.3112
      5 C          20.6422   71.4413   -8.3617 C.3     1  UNL1        0.1811
      6 C          17.5754   70.1407   -7.0052 C.3     1  UNL1        0.2383
      7 C          17.1262   71.0819   -8.1517 C.3     1  UNL1        0.1895
      8 O          15.9089   70.6219   -8.7419 O.3     1  UNL1       -0.3779
      9 C          18.3036   70.9632   -9.1502 C.3     1  UNL1        0.1713
     10 C          19.4759   70.4524   -8.2910 C.3     1  UNL1        0.1764
     11 O          19.0027   70.3507   -6.9386 O.3     1  UNL1       -0.3308
     12 O          17.9914   70.0238  -10.1803 O.3     1  UNL1       -0.3794
     13 H          15.5868   71.1782   -9.4640 H       1  UNL1        0.2106
     14 H          17.2238   70.2664  -10.7154 H       1  UNL1        0.2105
     15 N          16.9377   70.5237   -5.7436 N.ar    1  UNL1       -0.2551
     16 C          16.4922   69.5705   -4.9058 C.ar    1  UNL1        0.3323
     17 N          15.9021   69.8937   -3.7399 N.ar    1  UNL1       -0.2743
     18 C          15.7497   71.1876   -3.3919 C.ar    1  UNL1        0.2626
     19 C          16.2149   72.2013   -4.2639 C.ar    1  UNL1        0.0795
     20 C          16.8066   71.8484   -5.4245 C.ar    1  UNL1        0.0869
     21 O          16.6231   68.3997   -5.2065 O.2     1  UNL1       -0.2464
     22 O          15.2161   71.4814   -2.3367 O.2     1  UNL1       -0.2670
     23 H          15.5855   69.1939   -3.1480 H       1  UNL1        0.1734
     24 O          22.9302   72.5569   -5.3165 O.3     1  UNL1       -0.2703
     25 P          23.3718   73.3955   -4.0147 P.3     1  UNL1        0.2208
     26 O          24.9790   73.4267   -3.9167 O.3     1  UNL1       -0.4371
     27 O          22.8577   74.7785   -4.1207 O.2     1  UNL1       -0.5170
     28 O          22.7667   72.6972   -2.6959 O.3     1  UNL1       -0.2865
     29 C          22.3840   73.4320   -1.5319 C.3     1  UNL1        0.2611
     30 C          22.2424   72.4743   -0.3464 C.3     1  UNL1        0.1582
     31 C          21.1294   71.4654   -0.6464 C.3     1  UNL1        0.1625
     32 C          19.8319   72.2245   -0.9376 C.3     1  UNL1        0.1686
     33 C          20.0666   73.1920   -2.1007 C.3     1  UNL1        0.1760
     34 O          20.9403   70.6130    0.4854 O.3     1  UNL1       -0.3801
     35 O          19.4372   72.9586    0.2228 O.3     1  UNL1       -0.3794
     36 O          21.1340   74.0826   -1.7694 O.3     1  UNL1       -0.3263
     37 H          20.2491   69.9474    0.3648 H       1  UNL1        0.2105
     38 H          18.6209   73.4653    0.1096 H       1  UNL1        0.2105
     39 C          23.9545   71.5356    1.1114 C.2     1  UNL1        0.2231
     40 C          25.2531   70.8034    1.3256 C.3     1  UNL1        0.0946
     41 N          23.5058   71.7622   -0.1390 N.am    1  UNL1       -0.2994
     42 O          23.3113   71.9220    2.0650 O.2     1  UNL1       -0.2751
     43 H          24.0202   71.4543   -0.9017 H       1  UNL1        0.1496
     44 C          18.7917   73.9973   -2.3591 C.3     1  UNL1        0.1693
     45 O          18.8210   75.1983   -1.5851 O.3     1  UNL1       -0.3794
     46 H          18.0419   75.7595   -1.6994 H       1  UNL1        0.2105
@<TRIPOS>BOND
     1    29    30    1
     2    30    41    1
     3    30    31    1
     4    31    34    1
     5    31    32    1
     6    32    35    1
     7    32    33    1
     8    33    36    1
     9    33    44    1
    10    39    40    1
    11    39    42    2
    12    39    41   am
    13    41    43    1
    14    29    28    1
    15    34    37    1
    16    35    38    1
    17    29    36    1
    18    44    45    1
    19    45    46    1
    20    15     6    1
    21    15    16   ar
    22    16    21    2
    23    16    17   ar
    24    17    23    1
    25    17    18   ar
    26    18    19   ar
    27    19    20   ar
    28    15    20   ar
    29    18    22    2
    30     6     7    1
    31     6    11    1
    32     7     9    1
    33     7     8    1
    34     8    13    1
    35     9    10    1
    36     9    12    1
    37    10     5    1
    38    10    11    1
    39    12    14    1
    40     5     4    1
    41     4     1    1
    42     1     2    1
    43     1    24    1
    44     1     3    2
    45    24    25    1
    46    28    25    1
    47    25    26    1
    48    25    27    2
@<TRIPOS>MOLECULE
UD2
 46 48 0 0 0
SMALL
GASTEIGER

@<TRIPOS>ATOM
      1 P          20.7168   70.7499   -3.2023 P.3     1  UNL1        0.2189
      2 O          20.8127   70.4340   -1.6267 O.3     1  UNL1       -0.4371
      3 O          20.4010   69.5054   -3.9373 O.2     1  UNL1       -0.5170
      4 O          19.5563   71.8359   -3.4621 O.3     1  UNL1       -0.3112
      5 C          18.3350   71.8606   -2.7209 C.3     1  UNL1        0.1811
      6 C          16.8785   70.7992   -5.8336 C.3     1  UNL1        0.2383
      7 C          17.0512   69.4923   -5.0184 C.3     1  UNL1        0.1895
      8 O          16.0370   68.5436   -5.3547 O.3     1  UNL1       -0.3779
      9 C          16.8797   69.9918   -3.5629 C.3     1  UNL1        0.1713
     10 C          17.1697   71.5025   -3.6466 C.3     1  UNL1        0.1764
     11 O          17.5194   71.7963   -5.0085 O.3     1  UNL1       -0.3308
     12 O          15.5440   69.7627   -3.1110 O.3     1  UNL1       -0.3794
     13 H          16.1028   67.7091   -4.8712 H       1  UNL1        0.2106
     14 H          15.2877   68.8307   -3.0951 H       1  UNL1        0.2105
     15 N          17.5516   70.6913   -7.1298 N.ar    1  UNL1       -0.2551
     16 C          16.8204   70.6111   -8.2558 C.ar    1  UNL1        0.3323
     17 N          17.4124   70.5110   -9.4606 N.ar    1  UNL1       -0.2743
     18 C          18.7574   70.4915   -9.5565 C.ar    1  UNL1        0.2626
     19 C          19.5395   70.5763   -8.3795 C.ar    1  UNL1        0.0795
     20 C          18.9194   70.6801   -7.1852 C.ar    1  UNL1        0.0869
     21 O          15.6067   70.6277   -8.1844 O.2     1  UNL1       -0.2464
     22 O          19.2945   70.4014  -10.6464 O.2     1  UNL1       -0.2670
     23 H          16.8703   70.4528  -10.2624 H       1  UNL1        0.1734
     24 O          22.1248   71.3362   -3.7191 O.3     1  UNL1       -0.2703
     25 P          22.9514   72.6854   -3.4198 P.3     1  UNL1        0.2208
     26 O          24.3575   72.6378   -4.2037 O.3     1  UNL1       -0.4371
     27 O          22.1705   73.8548   -3.8794 O.2     1  UNL1       -0.5170
     28 O          23.2225   72.8088   -1.8375 O.3     1  UNL1       -0.2865
     29 C          22.4378   73.6348   -0.9753 C.3     1  UNL1        0.2611
     30 C          23.2828   74.8151   -0.4899 C.3     1  UNL1        0.1582
     31 C          24.4659   74.2838    0.3252 C.3     1  UNL1        0.1625
     32 C          23.9340   73.4354    1.4835 C.3     1  UNL1        0.1686
     33 C          23.0638   72.3079    0.9218 C.3     1  UNL1        0.1760
     34 O          25.2193   75.3821    0.8442 O.3     1  UNL1       -0.3801
     35 O          23.1522   74.2538    2.3554 O.3     1  UNL1       -0.3794
     36 O          22.0006   72.8689    0.1492 O.3     1  UNL1       -0.3263
     37 H          25.9860   75.1183    1.3714 H       1  UNL1        0.2105
     38 H          22.7818   73.7803    3.1134 H       1  UNL1        0.2105
     39 C          23.7727   76.9146   -1.6254 C.2     1  UNL1        0.2231
     40 C          24.2855   77.6886   -2.8114 C.3     1  UNL1        0.0946
     41 N          23.7816   75.5672   -1.6440 N.am    1  UNL1       -0.2994
     42 O          23.3510   77.5043   -0.6524 O.2     1  UNL1       -0.2751
     43 H          24.1177   75.0954   -2.4221 H       1  UNL1        0.1496
     44 C          22.4800   71.4912    2.0762 C.3     1  UNL1        0.1693
     45 O          23.5205   71.1538    2.9959 O.3     1  UNL1       -0.3794
     46 H          23.2220   70.6344    3.7550 H       1  UNL1        0.2105
@<TRIPOS>BOND
     1    29    30    1
     2    30    41    1
     3    30    31    1
     4    31    34    1
     5    31    32    1
     6    32    35    1
     7    32    33    1
     8    33    36    1
     9    33    44    1
    10    39    40    1
    11    39    42    2
    12    39    41   am
    13    41    43    1
    14    29    28    1
    15    34    37    1
    16    35    38    1
    17    29    36    1
    18    44    45    1
    19    45    46    1
    20    15     6    1
    21    15    16   ar
    22    16    21    2
    23    16    17   ar
    24    17    23    1
    25    17    18   ar
    26    18    19   ar
    27    19    20   ar
    28    15    20   ar
    29    18    22    2
    30     6     7    1
    31     6    11    1
    32     7     9    1
    33     7     8    1
    34     8    13    1
    35     9    10    1
    36     9    12    1
    37    10     5    1
    38    10    11    1
    39    12    14    1
    40     5     4    1
    41     4     1    1
    42     1     2    1
    43     1    24    1
    44     1     3    2
    45    24    25    1
    46    28    25    1
    47    25    26    1
    48    25    27    2
@<TRIPOS>MOLECULE
UD2
 46 48 0 0 0
SMALL
GASTEIGER

@<TRIPOS>ATOM
      1 P          21.8366   72.3628   -5.6785 P.3     1  UNL1        0.2189
      2 O          23.1735   72.8577   -6.4262 O.3     1  UNL1       -0.4371
      3 O          20.8600   73.4730   -5.6263 O.2     1  UNL1       -0.5170
      4 O          21.1981   71.1237   -6.4851 O.3     1  UNL1       -0.3112
      5 C          20.5412   71.2725   -7.7452 C.3     1  UNL1        0.1811
      6 C          17.2271   70.3392   -6.7047 C.3     1  UNL1        0.2383
      7 C          17.0058   71.2541   -7.9359 C.3     1  UNL1        0.1895
      8 O          15.8237   70.8779   -8.6450 O.3     1  UNL1       -0.3779
      9 C          18.2712   70.9719   -8.7825 C.3     1  UNL1        0.1713
     10 C          19.2824   70.4018   -7.7696 C.3     1  UNL1        0.1764
     11 O          18.6514   70.4187   -6.4793 O.3     1  UNL1       -0.3308
     12 O          17.9863   70.0109   -9.8004 O.3     1  UNL1       -0.3794
     13 H          15.6420   71.4216   -9.4235 H       1  UNL1        0.2106
     14 H          17.3119   70.2943  -10.4323 H       1  UNL1        0.2105
     15 N          16.4917   70.8483   -5.5449 N.ar    1  UNL1       -0.2551
     16 C          16.2526   70.0373   -4.4990 C.ar    1  UNL1        0.3323
     17 N          15.5791   70.4784   -3.4201 N.ar    1  UNL1       -0.2743
     18 C          15.1327   71.7500   -3.3717 C.ar    1  UNL1        0.2626
     19 C          15.3782   72.6149   -4.4653 C.ar    1  UNL1        0.0795
     20 C          16.0597   72.1472   -5.5322 C.ar    1  UNL1        0.0869
     21 O          16.6494   68.8883   -4.5287 O.2     1  UNL1       -0.2464
     22 O          14.5233   72.1506   -2.3957 O.2     1  UNL1       -0.2670
     23 H          15.4143   69.8801   -2.6751 H       1  UNL1        0.1734
     24 O          22.2004   71.8968   -4.1806 O.3     1  UNL1       -0.2703
     25 P          23.5100   72.0349   -3.2539 P.3     1  UNL1        0.2208
     26 O          24.3297   70.6487   -3.2740 O.3     1  UNL1       -0.4371
     27 O          24.3687   73.1225   -3.7718 O.2     1  UNL1       -0.5170
     28 O          23.0656   72.3742   -1.7439 O.3     1  UNL1       -0.2865
     29 C          22.4969   71.4036   -0.8631 C.3     1  UNL1        0.2611
     30 C          21.3714   72.0481   -0.0503 C.3     1  UNL1        0.1582
     31 C          21.9547   73.1726    0.8109 C.3     1  UNL1        0.1625
     32 C          23.0588   72.5979    1.7025 C.3     1  UNL1        0.1686
     33 C          24.1195   71.9320    0.8219 C.3     1  UNL1        0.1760
     34 O          20.9236   73.7317    1.6280 O.3     1  UNL1       -0.3801
     35 O          22.4991   71.6297    2.5917 O.3     1  UNL1       -0.3794
     36 O          23.5058   70.9174    0.0245 O.3     1  UNL1       -0.3263
     37 H          21.2227   74.4517    2.2002 H       1  UNL1        0.2105
     38 H          23.1438   71.2226    3.1873 H       1  UNL1        0.2105
     39 C          19.5552   71.7739   -1.6516 C.2     1  UNL1        0.2231
     40 C          18.5200   72.3408   -2.5873 C.3     1  UNL1        0.0946
     41 N          20.3649   72.6004   -0.9606 N.am    1  UNL1       -0.2994
     42 O          19.6607   70.5724   -1.5195 O.2     1  UNL1       -0.2751
     43 H          20.2816   73.5610   -1.0666 H       1  UNL1        0.1496
     44 C          25.1962   71.3030    1.7082 C.3     1  UNL1        0.1693
     45 O          24.8027   69.9774    2.0690 O.3     1  UNL1       -0.3794
     46 H          25.4397   69.5170    2.6323 H       1  UNL1        0.2105
@<TRIPOS>BOND
     1    29    30    1
     2    30    41    1
     3    30    31    1
     4    31    34    1
     5    31    32    1
     6    32    35    1
     7    32    33    1
     8    33    36    1
     9    33    44    1
    10    39    40    1
    11    39    42    2
    12    39    41   am
    13    41    43    1
    14    29    28    1
    15    34    37    1
    16    35    38    1
    17    29    36    1
    18    44    45    1
    19    45    46    1
    20    15     6    1
    21    15    16   ar
    22    16    21    2
    23    16    17   ar
    24    17    23    1
    25    17    18   ar
    26    18    19   ar
    27    19    20   ar
    28    15    20   ar
    29    18    22    2
    30     6     7    1
    31     6    11    1
    32     7     9    1
    33     7     8    1
    34     8    13    1
    35     9    10    1
    36     9    12    1
    37    10     5    1
    38    10    11    1
    39    12    14    1
    40     5     4    1
    41     4     1    1
    42     1     2    1
    43     1    24    1
    44     1     3    2
    45    24    25    1
    46    28    25    1
    47    25    26    1
    48    25    27    2
@<TRIPOS>MOLECULE
UD2
 46 48 0 0 0
SMALL
GASTEIGER

@<TRIPOS>ATOM
      1 P          22.3790   72.5371   -3.8615 P.3     1  UNL1        0.2189
      2 O          22.1670   73.2072   -5.3097 O.3     1  UNL1       -0.4371
      3 O          23.7069   71.8870   -3.8076 O.2     1  UNL1       -0.5170
      4 O          22.2923   73.6756   -2.7257 O.3     1  UNL1       -0.3112
      5 C          21.9229   73.3981   -1.3737 C.3     1  UNL1        0.1811
      6 C          23.7527   72.6839    1.6394 C.3     1  UNL1        0.2383
      7 C          23.1939   71.3106    1.1880 C.3     1  UNL1        0.1895
      8 O          24.0700   70.2508    1.5766 O.3     1  UNL1       -0.3779
      9 C          23.1609   71.4632   -0.3524 C.3     1  UNL1        0.1713
     10 C          23.1655   72.9869   -0.5800 C.3     1  UNL1        0.1764
     11 O          23.1488   73.6127    0.7129 O.3     1  UNL1       -0.3308
     12 O          24.3192   70.8661   -0.9378 O.3     1  UNL1       -0.3794
     13 H          23.7633   69.3714    1.3171 H       1  UNL1        0.2106
     14 H          24.3980   69.9165   -0.7751 H       1  UNL1        0.2105
     15 N          23.3400   72.9826    3.0125 N.ar    1  UNL1       -0.2551
     16 C          22.1571   72.5310    3.4661 C.ar    1  UNL1        0.3323
     17 N          21.7524   72.7906    4.7235 N.ar    1  UNL1       -0.2743
     18 C          22.5342   73.5113    5.5530 C.ar    1  UNL1        0.2626
     19 C          23.7823   73.9920    5.0891 C.ar    1  UNL1        0.0795
     20 C          24.1647   73.7131    3.8251 C.ar    1  UNL1        0.0869
     21 O          21.4420   71.8798    2.7292 O.2     1  UNL1       -0.2464
     22 O          22.1692   73.7466    6.6914 O.2     1  UNL1       -0.2670
     23 H          20.8960   72.4585    5.0340 H       1  UNL1        0.1734
     24 O          21.2315   71.4366   -3.6058 O.3     1  UNL1       -0.2703
     25 P          19.6373   71.5127   -3.3921 P.3     1  UNL1        0.2208
     26 O          19.2280   70.6474   -2.0970 O.3     1  UNL1       -0.4371
     27 O          19.2329   72.9215   -3.1913 O.2     1  UNL1       -0.5170
     28 O          18.8929   70.9202   -4.6912 O.3     1  UNL1       -0.2865
     29 C          18.0947   71.7215   -5.5642 C.3     1  UNL1        0.2611
     30 C          16.7153   71.0791   -5.7292 C.3     1  UNL1        0.1582
     31 C          16.8775   69.7020   -6.3802 C.3     1  UNL1        0.1625
     32 C          17.6061   69.8638   -7.7171 C.3     1  UNL1        0.1686
     33 C          18.9516   70.5532   -7.4753 C.3     1  UNL1        0.1760
     34 O          15.5888   69.1259   -6.6053 O.3     1  UNL1       -0.3801
     35 O          16.8131   70.6594   -8.6000 O.3     1  UNL1       -0.3794
     36 O          18.7316   71.8142   -6.8402 O.3     1  UNL1       -0.3263
     37 H          15.6160   68.2506   -7.0155 H       1  UNL1        0.2105
     38 H          17.2149   70.8039   -9.4682 H       1  UNL1        0.2105
     39 C          16.2040   69.7682   -3.7398 C.2     1  UNL1        0.2231
     40 C          15.5569   69.6125   -2.3886 C.3     1  UNL1        0.0946
     41 N          16.0853   70.9284   -4.4151 N.am    1  UNL1       -0.2994
     42 O          16.8327   68.8488   -4.2210 O.2     1  UNL1       -0.2751
     43 H          15.5820   71.6634   -4.0311 H       1  UNL1        0.1496
     44 C          19.6598   70.7724   -8.8136 C.3     1  UNL1        0.1693
     45 O          20.6061   71.8355   -8.6840 O.3     1  UNL1       -0.3794
     46 H          21.0934   72.0301   -9.4962 H       1  UNL1        0.2105
@<TRIPOS>BOND
     1    29    30    1
     2    30    41    1
     3    30    31    1
     4    31    34    1
     5    31    32    1
     6    32    35    1
     7    32    33    1
     8    33    36    1
     9    33    44    1
    10    39    40    1
    11    39    42    2
    12    39    41   am
    13    41    43    1
    14    29    28    1
    15    34    37    1
    16    35    38    1
    17    29    36    1
    18    44    45    1
    19    45    46    1
    20    15     6    1
    21    15    16   ar
    22    16    21    2
    23    16    17   ar
    24    17    23    1
    25    17    18   ar
    26    18    19   ar
    27    19    20   ar
    28    15    20   ar
    29    18    22    2
    30     6     7    1
    31     6    11    1
    32     7     9    1
    33     7     8    1
    34     8    13    1
    35     9    10    1
    36     9    12    1
    37    10     5    1
    38    10    11    1
    39    12    14    1
    40     5     4    1
    41     4     1    1
    42     1     2    1
    43     1    24    1
    44     1     3    2
    45    24    25    1
    46    28    25    1
    47    25    26    1
    48    25    27    2
@<TRIPOS>MOLECULE
UD2
 46 48 0 0 0
SMALL
GASTEIGER

@<TRIPOS>ATOM
      1 P          21.6302   73.3249   -6.5324 P.3     1  UNL1        0.2189
      2 O          23.0554   72.9866   -7.2000 O.3     1  UNL1       -0.4371
      3 O          21.1214   74.6036   -7.0755 O.2     1  UNL1       -0.5170
      4 O          20.5865   72.1456   -6.8692 O.3     1  UNL1       -0.3112
      5 C          20.5674   71.4590   -8.1221 C.3     1  UNL1        0.1811
      6 C          17.4599   70.0968   -6.9286 C.3     1  UNL1        0.2383
      7 C          17.0441   71.1301   -8.0064 C.3     1  UNL1        0.1895
      8 O          15.8334   70.7332   -8.6533 O.3     1  UNL1       -0.3779
      9 C          18.2394   71.0740   -8.9890 C.3     1  UNL1        0.1713
     10 C          19.3887   70.4828   -8.1505 C.3     1  UNL1        0.1764
     11 O          18.8879   70.2825   -6.8191 O.3     1  UNL1       -0.3308
     12 O          17.9367   70.2217  -10.0948 O.3     1  UNL1       -0.3794
     13 H          15.5319   71.3481   -9.3357 H       1  UNL1        0.2106
     14 H          17.1826   70.5151  -10.6236 H       1  UNL1        0.2105
     15 N          16.8020   70.3889   -5.6531 N.ar    1  UNL1       -0.2551
     16 C          16.4419   69.3781   -4.8422 C.ar    1  UNL1        0.3323
     17 N          15.8356   69.6172   -3.6644 N.ar    1  UNL1       -0.2743
     18 C          15.5804   70.8835   -3.2771 C.ar    1  UNL1        0.2626
     19 C          15.9550   71.9572   -4.1203 C.ar    1  UNL1        0.0795
     20 C          16.5652   71.6884   -5.2937 C.ar    1  UNL1        0.0869
     21 O          16.6659   68.2313   -5.1785 O.2     1  UNL1       -0.2464
     22 O          15.0321   71.1013   -2.2110 O.2     1  UNL1       -0.2670
     23 H          15.5815   68.8768   -3.0923 H       1  UNL1        0.1734
     24 O          21.8011   73.4497   -4.9360 O.3     1  UNL1       -0.2703
     25 P          23.0508   73.7485   -3.9655 P.3     1  UNL1        0.2208
     26 O          24.2991   72.8285   -4.4000 O.3     1  UNL1       -0.4371
     27 O          23.4289   75.1747   -4.0727 O.2     1  UNL1       -0.5170
     28 O          22.6410   73.4144   -2.4446 O.3     1  UNL1       -0.2865
     29 C          23.4703   72.6541   -1.5640 C.3     1  UNL1        0.2611
     30 C          22.6973   71.4324   -1.0614 C.3     1  UNL1        0.1582
     31 C          21.4788   71.9036   -0.2615 C.3     1  UNL1        0.1625
     32 C          21.9504   72.8037    0.8838 C.3     1  UNL1        0.1686
     33 C          22.7524   73.9729    0.3059 C.3     1  UNL1        0.1760
     34 O          20.7919   70.7701    0.2737 O.3     1  UNL1       -0.3801
     35 O          22.7764   72.0509    1.7739 O.3     1  UNL1       -0.3794
     36 O          23.8527   73.4654   -0.4515 O.3     1  UNL1       -0.3263
     37 H          20.0073   70.9950    0.7924 H       1  UNL1        0.2105
     38 H          23.1123   72.5598    2.5250 H       1  UNL1        0.2105
     39 C          21.0214   70.8160   -2.7194 C.2     1  UNL1        0.2231
     40 C          20.5636   69.9922   -3.8943 C.3     1  UNL1        0.0946
     41 N          22.2527   70.6305   -2.2041 N.am    1  UNL1       -0.2994
     42 O          20.2814   71.6474   -2.2362 O.2     1  UNL1       -0.2751
     43 H          22.8442   69.9653   -2.5895 H       1  UNL1        0.1496
     44 C          23.2778   74.8445    1.4481 C.3     1  UNL1        0.1693
     45 O          24.4617   74.2565    1.9913 O.3     1  UNL1       -0.3794
     46 H          24.8506   74.7569    2.7216 H       1  UNL1        0.2105
@<TRIPOS>BOND
     1    29    30    1
     2    30    41    1
     3    30    31    1
     4    31    34    1
     5    31    32    1
     6    32    35    1
     7    32    33    1
     8    33    36    1
     9    33    44    1
    10    39    40    1
    11    39    42    2
    12    39    41   am
    13    41    43    1
    14    29    28    1
    15    34    37    1
    16    35    38    1
    17    29    36    1
    18    44    45    1
    19    45    46    1
    20    15     6    1
    21    15    16   ar
    22    16    21    2
    23    16    17   ar
    24    17    23    1
    25    17    18   ar
    26    18    19   ar
    27    19    20   ar
    28    15    20   ar
    29    18    22    2
    30     6     7    1
    31     6    11    1
    32     7     9    1
    33     7     8    1
    34     8    13    1
    35     9    10    1
    36     9    12    1
    37    10     5    1
    38    10    11    1
    39    12    14    1
    40     5     4    1
    41     4     1    1
    42     1     2    1
    43     1    24    1
    44     1     3    2
    45    24    25    1
    46    28    25    1
    47    25    26    1
    48    25    27    2
@<TRIPOS>MOLECULE
UD2
 46 48 0 0 0
SMALL
GASTEIGER

@<TRIPOS>ATOM
      1 P          22.6710   72.6251   -3.8671 P.3     1  UNL1        0.2189
      2 O          22.4023   74.1834   -3.5658 O.3     1  UNL1       -0.4371
      3 O          23.7655   72.4944   -4.8539 O.2     1  UNL1       -0.5170
      4 O          23.0872   71.8787   -2.5020 O.3     1  UNL1       -0.3112
      5 C          22.8364   72.4293   -1.2076 C.3     1  UNL1        0.1811
      6 C          24.6224   71.3117    1.7075 C.3     1  UNL1        0.2383
      7 C          23.2811   71.8592    2.2583 C.3     1  UNL1        0.1895
      8 O          22.8902   71.1569    3.4397 O.3     1  UNL1       -0.3779
      9 C          22.3060   71.5642    1.0923 C.3     1  UNL1        0.1713
     10 C          23.2235   71.4078   -0.1354 C.3     1  UNL1        0.1764
     11 O          24.5702   71.6467    0.3037 O.3     1  UNL1       -0.3308
     12 O          21.5869   70.3543    1.3372 O.3     1  UNL1       -0.3794
     13 H          22.0571   71.4636    3.8225 H       1  UNL1        0.2106
     14 H          21.0378   70.3764    2.1325 H       1  UNL1        0.2105
     15 N          25.7555   71.9762    2.3551 N.ar    1  UNL1       -0.2551
     16 C          25.6295   73.2460    2.7798 C.ar    1  UNL1        0.3323
     17 N          26.6544   73.8815    3.3781 N.ar    1  UNL1       -0.2743
     18 C          27.8306   73.2482    3.5629 C.ar    1  UNL1        0.2626
     19 C          27.9769   71.9110    3.1216 C.ar    1  UNL1        0.0795
     20 C          26.9314   71.2971    2.5288 C.ar    1  UNL1        0.0869
     21 O          24.5747   73.8294    2.6200 O.2     1  UNL1       -0.2464
     22 O          28.7589   73.8220    4.1046 O.2     1  UNL1       -0.2670
     23 H          26.5469   74.7975    3.6772 H       1  UNL1        0.1734
     24 O          21.3319   71.9537   -4.4582 O.3     1  UNL1       -0.2703
     25 P          19.8839   71.6163   -3.8399 P.3     1  UNL1        0.2208
     26 O          20.0465   70.5485   -2.6453 O.3     1  UNL1       -0.4371
     27 O          19.2712   72.8554   -3.3131 O.2     1  UNL1       -0.5170
     28 O          18.9409   70.9972   -4.9889 O.3     1  UNL1       -0.2865
     29 C          18.0834   71.7959   -5.8064 C.3     1  UNL1        0.2611
     30 C          16.7041   71.1385   -5.8952 C.3     1  UNL1        0.1582
     31 C          16.8431   69.7687   -6.5665 C.3     1  UNL1        0.1625
     32 C          17.4895   69.9497   -7.9426 C.3     1  UNL1        0.1686
     33 C          18.8390   70.6530   -7.7748 C.3     1  UNL1        0.1760
     34 O          15.5500   69.1791   -6.7201 O.3     1  UNL1       -0.3801
     35 O          16.6367   70.7428   -8.7703 O.3     1  UNL1       -0.3794
     36 O          18.6426   71.9063   -7.1169 O.3     1  UNL1       -0.3263
     37 H          15.5629   68.3074   -7.1387 H       1  UNL1        0.2105
     38 H          16.9848   70.8990   -9.6594 H       1  UNL1        0.2105
     39 C          16.3257   69.8057   -3.8907 C.2     1  UNL1        0.2231
     40 C          15.7615   69.6316   -2.5051 C.3     1  UNL1        0.0946
     41 N          16.1547   70.9699   -4.5476 N.am    1  UNL1       -0.2994
     42 O          16.9347   68.8974   -4.4164 O.2     1  UNL1       -0.2751
     43 H          15.6670   71.6960   -4.1280 H       1  UNL1        0.1496
     44 C          19.4643   70.8913   -9.1505 C.3     1  UNL1        0.1693
     45 O          18.4319   71.1367  -10.1078 O.3     1  UNL1       -0.3794
     46 H          18.7562   71.2964  -11.0046 H       1  UNL1        0.2105
@<TRIPOS>BOND
     1    29    30    1
     2    30    41    1
     3    30    31    1
     4    31    34    1
     5    31    32    1
     6    32    35    1
     7    32    33    1
     8    33    36    1
     9    33    44    1
    10    39    40    1
    11    39    42    2
    12    39    41   am
    13    41    43    1
    14    29    28    1
    15    34    37    1
    16    35    38    1
    17    29    36    1
    18    44    45    1
    19    45    46    1
    20    15     6    1
    21    15    16   ar
    22    16    21    2
    23    16    17   ar
    24    17    23    1
    25    17    18   ar
    26    18    19   ar
    27    19    20   ar
    28    15    20   ar
    29    18    22    2
    30     6     7    1
    31     6    11    1
    32     7     9    1
    33     7     8    1
    34     8    13    1
    35     9    10    1
    36     9    12    1
    37    10     5    1
    38    10    11    1
    39    12    14    1
    40     5     4    1
    41     4     1    1
    42     1     2    1
    43     1    24    1
    44     1     3    2
    45    24    25    1
    46    28    25    1
    47    25    26    1
    48    25    27    2
@<TRIPOS>MOLECULE
UD2
 46 48 0 0 0
SMALL
GASTEIGER

@<TRIPOS>ATOM
      1 P          22.4674   72.3892   -1.7859 P.3     1  UNL1        0.2189
      2 O          22.7718   70.8887   -2.2832 O.3     1  UNL1       -0.4371
      3 O          23.6545   73.2392   -2.0249 O.2     1  UNL1       -0.5170
      4 O          21.2110   72.9803   -2.6017 O.3     1  UNL1       -0.3112
      5 C          21.3296   73.5473   -3.9078 C.3     1  UNL1        0.1811
      6 C          20.3381   71.3699   -6.5934 C.3     1  UNL1        0.2383
      7 C          20.9976   72.5826   -7.2981 C.3     1  UNL1        0.1895
      8 O          21.6213   72.1848   -8.5206 O.3     1  UNL1       -0.3779
      9 C          22.0547   73.0279   -6.2581 C.3     1  UNL1        0.1713
     10 C          21.5516   72.4301   -4.9303 C.3     1  UNL1        0.1764
     11 O          20.3085   71.7645   -5.2045 O.3     1  UNL1       -0.3308
     12 O          23.3379   72.4963   -6.5920 O.3     1  UNL1       -0.3794
     13 H          22.0475   72.9089   -8.9988 H       1  UNL1        0.2106
     14 H          23.6772   72.7935   -7.4471 H       1  UNL1        0.2105
     15 N          18.9801   71.1557   -7.0983 N.ar    1  UNL1       -0.2551
     16 C          18.7786   70.3256   -8.1371 C.ar    1  UNL1        0.3323
     17 N          17.5413   70.1102   -8.6219 N.ar    1  UNL1       -0.2743
     18 C          16.4781   70.7271   -8.0673 C.ar    1  UNL1        0.2626
     19 C          16.6756   71.6029   -6.9727 C.ar    1  UNL1        0.0795
     20 C          17.9264   71.7970   -6.5044 C.ar    1  UNL1        0.0869
     21 O          19.7279   69.7623   -8.6468 O.2     1  UNL1       -0.2464
     22 O          15.3577   70.5327   -8.5049 O.2     1  UNL1       -0.2670
     23 H          17.4138   69.5094   -9.3722 H       1  UNL1        0.1734
     24 O          22.1256   72.3743   -0.2123 O.3     1  UNL1       -0.2703
     25 P          22.5542   71.4251    1.0158 P.3     1  UNL1        0.2208
     26 O          21.5787   70.1447    1.0696 O.3     1  UNL1       -0.4371
     27 O          23.9501   70.9734    0.8268 O.2     1  UNL1       -0.5170
     28 O          22.4379   72.2472    2.3954 O.3     1  UNL1       -0.2865
     29 C          22.5656   73.6684    2.4678 C.3     1  UNL1        0.2611
     30 C          23.4732   74.0409    3.6427 C.3     1  UNL1        0.1582
     31 C          22.8264   73.5649    4.9472 C.3     1  UNL1        0.1625
     32 C          21.4329   74.1872    5.0702 C.3     1  UNL1        0.1686
     33 C          20.6037   73.8089    3.8400 C.3     1  UNL1        0.1760
     34 O          23.6314   73.9733    6.0556 O.3     1  UNL1       -0.3801
     35 O          21.5499   75.6090    5.1492 O.3     1  UNL1       -0.3794
     36 O          21.2758   74.2530    2.6597 O.3     1  UNL1       -0.3263
     37 H          23.2810   73.7042    6.9158 H       1  UNL1        0.2105
     38 H          20.7032   76.0702    5.2282 H       1  UNL1        0.2105
     39 C          25.9057   74.0633    3.7846 C.2     1  UNL1        0.2231
     40 C          27.2466   73.3985    3.6159 C.3     1  UNL1        0.0946
     41 N          24.7772   73.3936    3.4780 N.am    1  UNL1       -0.2994
     42 O          25.8409   75.2027    4.1968 O.2     1  UNL1       -0.2751
     43 H          24.8286   72.4830    3.1475 H       1  UNL1        0.1496
     44 C          19.2297   74.4760    3.9265 C.3     1  UNL1        0.1693
     45 O          18.6706   74.5885    2.6162 O.3     1  UNL1       -0.3794
     46 H          17.7975   75.0035    2.5948 H       1  UNL1        0.2105
@<TRIPOS>BOND
     1    29    30    1
     2    30    41    1
     3    30    31    1
     4    31    34    1
     5    31    32    1
     6    32    35    1
     7    32    33    1
     8    33    36    1
     9    33    44    1
    10    39    40    1
    11    39    42    2
    12    39    41   am
    13    41    43    1
    14    29    28    1
    15    34    37    1
    16    35    38    1
    17    29    36    1
    18    44    45    1
    19    45    46    1
    20    15     6    1
    21    15    16   ar
    22    16    21    2
    23    16    17   ar
    24    17    23    1
    25    17    18   ar
    26    18    19   ar
    27    19    20   ar
    28    15    20   ar
    29    18    22    2
    30     6     7    1
    31     6    11    1
    32     7     9    1
    33     7     8    1
    34     8    13    1
    35     9    10    1
    36     9    12    1
    37    10     5    1
    38    10    11    1
    39    12    14    1
    40     5     4    1
    41     4     1    1
    42     1     2    1
    43     1    24    1
    44     1     3    2
    45    24    25    1
    46    28    25    1
    47    25    26    1
    48    25    27    2
@<TRIPOS>MOLECULE
UD2
 46 48 0 0 0
SMALL
GASTEIGER

@<TRIPOS>ATOM
      1 P          22.1914   72.8129   -6.1639 P.3     1  UNL1        0.2189
      2 O          23.0225   73.5812   -7.3087 O.3     1  UNL1       -0.4371
      3 O          21.1900   73.7319   -5.5796 O.2     1  UNL1       -0.5170
      4 O          21.4417   71.5411   -6.8074 O.3     1  UNL1       -0.3112
      5 C          20.8168   71.5752   -8.0919 C.3     1  UNL1        0.1811
      6 C          17.7662   70.0887   -6.9002 C.3     1  UNL1        0.2383
      7 C          17.3076   71.1252   -7.9572 C.3     1  UNL1        0.1895
      8 O          16.1061   70.6985   -8.6023 O.3     1  UNL1       -0.3779
      9 C          18.4967   71.1262   -8.9490 C.3     1  UNL1        0.1713
     10 C          19.6716   70.5603   -8.1287 C.3     1  UNL1        0.1764
     11 O          19.1879   70.3208   -6.7975 O.3     1  UNL1       -0.3308
     12 O          18.2145   70.2829  -10.0670 O.3     1  UNL1       -0.3794
     13 H          15.7789   71.3142   -9.2720 H       1  UNL1        0.2106
     14 H          17.4469   70.5594  -10.5854 H       1  UNL1        0.2105
     15 N          17.1085   70.3368   -5.6153 N.ar    1  UNL1       -0.2551
     16 C          16.4380   69.3422   -5.0069 C.ar    1  UNL1        0.3323
     17 N          15.8239   69.5419   -3.8256 N.ar    1  UNL1       -0.2743
     18 C          15.8744   70.7509   -3.2303 C.ar    1  UNL1        0.2626
     19 C          16.5775   71.8065   -3.8591 C.ar    1  UNL1        0.0795
     20 C          17.1874   71.5769   -5.0410 C.ar    1  UNL1        0.0869
     21 O          16.3844   68.2469   -5.5320 O.2     1  UNL1       -0.2464
     22 O          15.3194   70.9329   -2.1610 O.2     1  UNL1       -0.2670
     23 H          15.3438   68.8143   -3.4012 H       1  UNL1        0.1734
     24 O          23.1996   72.3141   -5.0116 O.3     1  UNL1       -0.2703
     25 P          22.9992   71.7743   -3.5078 P.3     1  UNL1        0.2208
     26 O          21.5965   70.9901   -3.4021 O.3     1  UNL1       -0.4371
     27 O          24.1051   70.8546   -3.1621 O.2     1  UNL1       -0.5170
     28 O          22.9968   73.0192   -2.4866 O.3     1  UNL1       -0.2865
     29 C          21.9492   73.2500   -1.5429 C.3     1  UNL1        0.2611
     30 C          22.1991   74.5731   -0.8151 C.3     1  UNL1        0.1582
     31 C          23.5142   74.4767   -0.0357 C.3     1  UNL1        0.1625
     32 C          23.4381   73.2894    0.9281 C.3     1  UNL1        0.1686
     33 C          23.1405   72.0155    0.1329 C.3     1  UNL1        0.1760
     34 O          23.7188   75.6815    0.7058 O.3     1  UNL1       -0.3801
     35 O          22.3965   73.5131    1.8802 O.3     1  UNL1       -0.3794
     36 O          21.9209   72.1829   -0.5928 O.3     1  UNL1       -0.3263
     37 H          24.5355   75.6902    1.2237 H       1  UNL1        0.2105
     38 H          22.2907   72.7983    2.5236 H       1  UNL1        0.2105
     39 C          23.4863   76.0200   -2.2940 C.2     1  UNL1        0.2231
     40 C          23.5786   77.1374   -3.2997 C.3     1  UNL1        0.0946
     41 N          22.2880   75.6603   -1.7932 N.am    1  UNL1       -0.2994
     42 O          24.4912   75.4430   -1.9341 O.2     1  UNL1       -0.2751
     43 H          21.4845   76.1220   -2.0799 H       1  UNL1        0.1496
     44 C          23.0037   70.8341    1.0952 C.3     1  UNL1        0.1693
     45 O          21.6863   70.2890    0.9973 O.3     1  UNL1       -0.3794
     46 H          21.5277   69.5347    1.5811 H       1  UNL1        0.2105
@<TRIPOS>BOND
     1    29    30    1
     2    30    41    1
     3    30    31    1
     4    31    34    1
     5    31    32    1
     6    32    35    1
     7    32    33    1
     8    33    36    1
     9    33    44    1
    10    39    40    1
    11    39    42    2
    12    39    41   am
    13    41    43    1
    14    29    28    1
    15    34    37    1
    16    35    38    1
    17    29    36    1
    18    44    45    1
    19    45    46    1
    20    15     6    1
    21    15    16   ar
    22    16    21    2
    23    16    17   ar
    24    17    23    1
    25    17    18   ar
    26    18    19   ar
    27    19    20   ar
    28    15    20   ar
    29    18    22    2
    30     6     7    1
    31     6    11    1
    32     7     9    1
    33     7     8    1
    34     8    13    1
    35     9    10    1
    36     9    12    1
    37    10     5    1
    38    10    11    1
    39    12    14    1
    40     5     4    1
    41     4     1    1
    42     1     2    1
    43     1    24    1
    44     1     3    2
    45    24    25    1
    46    28    25    1
    47    25    26    1
    48    25    27    2
@<TRIPOS>MOLECULE
UD2
 46 48 0 0 0
SMALL
GASTEIGER

@<TRIPOS>ATOM
      1 P          21.4266   71.4719   -0.8570 P.3     1  UNL1        0.2189
      2 O          21.0782   70.6444    0.4791 O.3     1  UNL1       -0.4371
      3 O          22.5564   70.8239   -1.5588 O.2     1  UNL1       -0.5170
      4 O          20.1384   71.4978   -1.8232 O.3     1  UNL1       -0.3112
      5 C          19.6749   70.3468   -2.5315 C.3     1  UNL1        0.1811
      6 C          17.5723   70.6518   -5.4337 C.3     1  UNL1        0.2383
      7 C          17.2652   69.2384   -4.8768 C.3     1  UNL1        0.1895
      8 O          15.9147   68.8631   -5.1544 O.3     1  UNL1       -0.3779
      9 C          17.4828   69.4335   -3.3562 C.3     1  UNL1        0.1713
     10 C          18.3731   70.6873   -3.2611 C.3     1  UNL1        0.1764
     11 O          18.6614   71.1102   -4.6034 O.3     1  UNL1       -0.3308
     12 O          16.2345   69.6549   -2.6980 O.3     1  UNL1       -0.3794
     13 H          15.6746   67.9861   -4.8262 H       1  UNL1        0.2106
     14 H          15.6118   68.9197   -2.7764 H       1  UNL1        0.2105
     15 N          17.9890   70.5745   -6.8356 N.ar    1  UNL1       -0.2551
     16 C          17.0611   70.5981   -7.8089 C.ar    1  UNL1        0.3323
     17 N          17.4154   70.5284   -9.1057 N.ar    1  UNL1       -0.2743
     18 C          18.7160   70.4351   -9.4499 C.ar    1  UNL1        0.2626
     19 C          19.7034   70.4103   -8.4357 C.ar    1  UNL1        0.0795
     20 C          19.3198   70.4859   -7.1439 C.ar    1  UNL1        0.0869
     21 O          15.8847   70.6821   -7.5132 O.2     1  UNL1       -0.2464
     22 O          19.0380   70.3723  -10.6233 O.2     1  UNL1       -0.2670
     23 H          16.7335   70.5454   -9.7948 H       1  UNL1        0.1734
     24 O          21.8323   72.9800   -0.4641 O.3     1  UNL1       -0.2703
     25 P          23.0533   73.6305    0.3599 P.3     1  UNL1        0.2208
     26 O          24.2835   72.5921    0.4047 O.3     1  UNL1       -0.4371
     27 O          23.4868   74.8795   -0.3038 O.2     1  UNL1       -0.5170
     28 O          22.5727   73.9589    1.8612 O.3     1  UNL1       -0.2865
     29 C          22.3031   72.9455    2.8315 C.3     1  UNL1        0.2611
     30 C          20.8773   73.1124    3.3624 C.3     1  UNL1        0.1582
     31 C          20.7579   74.4698    4.0621 C.3     1  UNL1        0.1625
     32 C          21.8053   74.5518    5.1759 C.3     1  UNL1        0.1686
     33 C          23.1957   74.3294    4.5749 C.3     1  UNL1        0.1760
     34 O          19.4507   74.6032    4.6250 O.3     1  UNL1       -0.3801
     35 O          21.5411   73.5455    6.1551 O.3     1  UNL1       -0.3794
     36 O          23.2298   73.0635    3.9130 O.3     1  UNL1       -0.3263
     37 H          19.3042   75.4417    5.0840 H       1  UNL1        0.2105
     38 H          22.1679   73.5385    6.8919 H       1  UNL1        0.2105
     39 C          19.5215   74.1869    1.6463 C.2     1  UNL1        0.2231
     40 C          18.5474   74.1252    0.4991 C.3     1  UNL1        0.0946
     41 N          19.9295   73.0516    2.2468 N.am    1  UNL1       -0.2994
     42 O          19.9394   75.2593    2.0303 O.2     1  UNL1       -0.2751
     43 H          19.5949   72.1940    1.9407 H       1  UNL1        0.1496
     44 C          24.2425   74.3505    5.6904 C.3     1  UNL1        0.1693
     45 O          25.2628   75.2982    5.3693 O.3     1  UNL1       -0.3794
     46 H          25.9618   75.3648    6.0341 H       1  UNL1        0.2105
@<TRIPOS>BOND
     1    29    30    1
     2    30    41    1
     3    30    31    1
     4    31    34    1
     5    31    32    1
     6    32    35    1
     7    32    33    1
     8    33    36    1
     9    33    44    1
    10    39    40    1
    11    39    42    2
    12    39    41   am
    13    41    43    1
    14    29    28    1
    15    34    37    1
    16    35    38    1
    17    29    36    1
    18    44    45    1
    19    45    46    1
    20    15     6    1
    21    15    16   ar
    22    16    21    2
    23    16    17   ar
    24    17    23    1
    25    17    18   ar
    26    18    19   ar
    27    19    20   ar
    28    15    20   ar
    29    18    22    2
    30     6     7    1
    31     6    11    1
    32     7     9    1
    33     7     8    1
    34     8    13    1
    35     9    10    1
    36     9    12    1
    37    10     5    1
    38    10    11    1
    39    12    14    1
    40     5     4    1
    41     4     1    1
    42     1     2    1
    43     1    24    1
    44     1     3    2
    45    24    25    1
    46    28    25    1
    47    25    26    1
    48    25    27    2
@<TRIPOS>MOLECULE
UD2
 46 48 0 0 0
SMALL
GASTEIGER

@<TRIPOS>ATOM
      1 P          23.0060   71.6549   -2.6464 P.3     1  UNL1        0.2189
      2 O          23.4121   73.2124   -2.6695 O.3     1  UNL1       -0.4371
      3 O          24.1416   70.8411   -3.1334 O.2     1  UNL1       -0.5170
      4 O          22.6398   71.2182   -1.1401 O.3     1  UNL1       -0.3112
      5 C          21.3118   70.8905   -0.7271 C.3     1  UNL1        0.1811
      6 C          21.9695   73.1675    1.9783 C.3     1  UNL1        0.2383
      7 C          21.6180   74.0811    0.7766 C.3     1  UNL1        0.1895
      8 O          20.9921   75.2872    1.2188 O.3     1  UNL1       -0.3779
      9 C          20.6228   73.2023   -0.0200 C.3     1  UNL1        0.1713
     10 C          20.9166   71.7689    0.4624 C.3     1  UNL1        0.1764
     11 O          22.0056   71.8465    1.3959 O.3     1  UNL1       -0.3308
     12 O          19.2767   73.5682    0.2883 O.3     1  UNL1       -0.3794
     13 H          20.7537   75.8921    0.5033 H       1  UNL1        0.2106
     14 H          19.0542   74.4807    0.0596 H       1  UNL1        0.2105
     15 N          23.2778   73.5238    2.5317 N.ar    1  UNL1       -0.2551
     16 C          24.3587   73.5370    1.7315 C.ar    1  UNL1        0.3323
     17 N          25.5734   73.8604    2.2132 N.ar    1  UNL1       -0.2743
     18 C          25.7245   74.1798    3.5147 C.ar    1  UNL1        0.2626
     19 C          24.5950   74.1709    4.3682 C.ar    1  UNL1        0.0795
     20 C          23.3885   73.8469    3.8574 C.ar    1  UNL1        0.0869
     21 O          24.2373   73.2514    0.5559 O.2     1  UNL1       -0.2464
     22 O          26.8233   74.4731    3.9518 O.2     1  UNL1       -0.2670
     23 H          26.3425   73.8638    1.6227 H       1  UNL1        0.1734
     24 O          21.7288   71.4188   -3.5984 O.3     1  UNL1       -0.2703
     25 P          20.9410   72.3379   -4.6603 P.3     1  UNL1        0.2208
     26 O          20.7332   73.8112   -4.0440 O.3     1  UNL1       -0.4371
     27 O          21.7271   72.4329   -5.9098 O.2     1  UNL1       -0.5170
     28 O          19.5055   71.6810   -4.9775 O.3     1  UNL1       -0.2865
     29 C          19.3309   70.2918   -5.2619 C.3     1  UNL1        0.2611
     30 C          18.2461   70.1206   -6.3281 C.3     1  UNL1        0.1582
     31 C          16.9178   70.6543   -5.7829 C.3     1  UNL1        0.1625
     32 C          16.5777   69.9165   -4.4851 C.3     1  UNL1        0.1686
     33 C          17.7270   70.0957   -3.4897 C.3     1  UNL1        0.1760
     34 O          15.8835   70.4316   -6.7441 O.3     1  UNL1       -0.3801
     35 O          16.3952   68.5264   -4.7597 O.3     1  UNL1       -0.3794
     36 O          18.9382   69.6077   -4.0702 O.3     1  UNL1       -0.3263
     37 H          15.0129   70.7465   -6.4645 H       1  UNL1        0.2105
     38 H          16.1774   67.9961   -3.9803 H       1  UNL1        0.2105
     39 C          18.9194   70.2144   -8.6681 C.2     1  UNL1        0.2231
     40 C          19.3024   70.9848   -9.9043 C.3     1  UNL1        0.0946
     41 N          18.6188   70.8708   -7.5301 N.am    1  UNL1       -0.2994
     42 O          18.8813   69.0019   -8.6961 O.2     1  UNL1       -0.2751
     43 H          18.6501   71.8400   -7.5069 H       1  UNL1        0.1496
     44 C          17.4216   69.3119   -2.2119 C.3     1  UNL1        0.1693
     45 O          16.0180   69.0546   -2.1340 O.3     1  UNL1       -0.3794
     46 H          15.7512   68.5601   -1.3471 H       1  UNL1        0.2105
@<TRIPOS>BOND
     1    29    30    1
     2    30    41    1
     3    30    31    1
     4    31    34    1
     5    31    32    1
     6    32    35    1
     7    32    33    1
     8    33    36    1
     9    33    44    1
    10    39    40    1
    11    39    42    2
    12    39    41   am
    13    41    43    1
    14    29    28    1
    15    34    37    1
    16    35    38    1
    17    29    36    1
    18    44    45    1
    19    45    46    1
    20    15     6    1
    21    15    16   ar
    22    16    21    2
    23    16    17   ar
    24    17    23    1
    25    17    18   ar
    26    18    19   ar
    27    19    20   ar
    28    15    20   ar
    29    18    22    2
    30     6     7    1
    31     6    11    1
    32     7     9    1
    33     7     8    1
    34     8    13    1
    35     9    10    1
    36     9    12    1
    37    10     5    1
    38    10    11    1
    39    12    14    1
    40     5     4    1
    41     4     1    1
    42     1     2    1
    43     1    24    1
    44     1     3    2
    45    24    25    1
    46    28    25    1
    47    25    26    1
    48    25    27    2
@<TRIPOS>MOLECULE
UD2
 46 48 0 0 0
SMALL
GASTEIGER

@<TRIPOS>ATOM
      1 P          21.3049   71.2366   -0.0855 P.3     1  UNL1        0.2189
      2 O          21.5855   70.1752    1.0919 O.3     1  UNL1       -0.4371
      3 O          22.5311   71.4123   -0.8946 O.2     1  UNL1       -0.5170
      4 O          20.1151   70.6934   -1.0251 O.3     1  UNL1       -0.3112
      5 C          20.2097   70.6468   -2.4500 C.3     1  UNL1        0.1811
      6 C          17.8309   70.5889   -5.1471 C.3     1  UNL1        0.2383
      7 C          17.7822   69.1579   -4.5538 C.3     1  UNL1        0.1895
      8 O          16.4803   68.5881   -4.7023 O.3     1  UNL1       -0.3779
      9 C          18.1064   69.4133   -3.0614 C.3     1  UNL1        0.1713
     10 C          18.8118   70.7830   -3.0584 C.3     1  UNL1        0.1764
     11 O          18.9133   71.2149   -4.4246 O.3     1  UNL1       -0.3308
     12 O          16.9040   69.4678   -2.2920 O.3     1  UNL1       -0.3794
     13 H          16.3997   67.6927   -4.3468 H       1  UNL1        0.2106
     14 H          16.3891   68.6498   -2.3070 H       1  UNL1        0.2105
     15 N          18.1255   70.5430   -6.5810 N.ar    1  UNL1       -0.2551
     16 C          17.1184   70.4283   -7.4649 C.ar    1  UNL1        0.3323
     17 N          17.3601   70.3835   -8.7885 N.ar    1  UNL1       -0.2743
     18 C          18.6250   70.4556   -9.2503 C.ar    1  UNL1        0.2626
     19 C          19.6947   70.5776   -8.3311 C.ar    1  UNL1        0.0795
     20 C          19.4230   70.6243   -7.0099 C.ar    1  UNL1        0.0869
     21 O          15.9729   70.3625   -7.0628 O.2     1  UNL1       -0.2464
     22 O          18.8451   70.4156  -10.4480 O.2     1  UNL1       -0.2670
     23 H          16.6224   70.2994   -9.4121 H       1  UNL1        0.1734
     24 O          20.8779   72.6503    0.5566 O.3     1  UNL1       -0.2703
     25 P          20.8406   73.2304    2.0582 P.3     1  UNL1        0.2208
     26 O          19.8242   74.4778    2.1261 O.3     1  UNL1       -0.4371
     27 O          20.3838   72.1718    2.9851 O.2     1  UNL1       -0.5170
     28 O          22.3159   73.7160    2.4827 O.3     1  UNL1       -0.2865
     29 C          23.0875   73.0678    3.4955 C.3     1  UNL1        0.2611
     30 C          24.1319   74.0426    4.0448 C.3     1  UNL1        0.1582
     31 C          25.0877   74.4425    2.9166 C.3     1  UNL1        0.1625
     32 C          25.7243   73.1797    2.3296 C.3     1  UNL1        0.1686
     33 C          24.6182   72.2380    1.8462 C.3     1  UNL1        0.1760
     34 O          26.1102   75.2951    3.4371 O.3     1  UNL1       -0.3801
     35 O          26.5033   72.5267    3.3336 O.3     1  UNL1       -0.3794
     36 O          23.7470   71.9300    2.9363 O.3     1  UNL1       -0.3263
     37 H          26.7518   75.5882    2.7756 H       1  UNL1        0.2105
     38 H          26.9365   71.7162    3.0310 H       1  UNL1        0.2105
     39 C          23.3230   75.4074    5.8943 C.2     1  UNL1        0.2231
     40 C          22.6336   76.6350    6.4295 C.3     1  UNL1        0.0946
     41 N          23.4611   75.2368    4.5646 N.am    1  UNL1       -0.2994
     42 O          23.7544   74.5712    6.6603 O.2     1  UNL1       -0.2751
     43 H          23.1154   75.9046    3.9518 H       1  UNL1        0.1496
     44 C          25.2440   70.9480    1.3128 C.3     1  UNL1        0.1693
     45 O          24.4563   69.8294    1.7257 O.3     1  UNL1       -0.3794
     46 H          24.7949   68.9759    1.4225 H       1  UNL1        0.2105
@<TRIPOS>BOND
     1    29    30    1
     2    30    41    1
     3    30    31    1
     4    31    34    1
     5    31    32    1
     6    32    35    1
     7    32    33    1
     8    33    36    1
     9    33    44    1
    10    39    40    1
    11    39    42    2
    12    39    41   am
    13    41    43    1
    14    29    28    1
    15    34    37    1
    16    35    38    1
    17    29    36    1
    18    44    45    1
    19    45    46    1
    20    15     6    1
    21    15    16   ar
    22    16    21    2
    23    16    17   ar
    24    17    23    1
    25    17    18   ar
    26    18    19   ar
    27    19    20   ar
    28    15    20   ar
    29    18    22    2
    30     6     7    1
    31     6    11    1
    32     7     9    1
    33     7     8    1
    34     8    13    1
    35     9    10    1
    36     9    12    1
    37    10     5    1
    38    10    11    1
    39    12    14    1
    40     5     4    1
    41     4     1    1
    42     1     2    1
    43     1    24    1
    44     1     3    2
    45    24    25    1
    46    28    25    1
    47    25    26    1
    48    25    27    2
@<TRIPOS>MOLECULE
UD2
 46 48 0 0 0
SMALL
GASTEIGER

@<TRIPOS>ATOM
      1 P          21.6013   71.2030   -0.1963 P.3     1  UNL1        0.2189
      2 O          21.6013   70.0867    0.9635 O.3     1  UNL1       -0.4371
      3 O          20.2591   71.2725   -0.8149 O.2     1  UNL1       -0.5170
      4 O          21.9749   72.6355    0.4377 O.3     1  UNL1       -0.3112
      5 C          23.0541   72.8214    1.3555 C.3     1  UNL1        0.1811
      6 C          22.8933   73.2756    4.9198 C.3     1  UNL1        0.2383
      7 C          21.6812   74.0702    4.3707 C.3     1  UNL1        0.1895
      8 O          20.6063   74.0759    5.3121 O.3     1  UNL1       -0.3779
      9 C          21.3049   73.2576    3.1075 C.3     1  UNL1        0.1713
     10 C          22.5861   72.4713    2.7702 C.3     1  UNL1        0.1764
     11 O          23.5878   72.8553    3.7254 O.3     1  UNL1       -0.3308
     12 O          20.2286   72.3626    3.3924 O.3     1  UNL1       -0.3794
     13 H          19.8250   74.5613    5.0143 H       1  UNL1        0.2106
     14 H          19.4129   72.8022    3.6679 H       1  UNL1        0.2105
     15 N          23.7484   74.1390    5.7375 N.ar    1  UNL1       -0.2551
     16 C          23.4513   74.3355    7.0343 C.ar    1  UNL1        0.3323
     17 N          24.2194   75.1240    7.8093 N.ar    1  UNL1       -0.2743
     18 C          25.3070   75.7311    7.2925 C.ar    1  UNL1        0.2626
     19 C          25.6321   75.5322    5.9291 C.ar    1  UNL1        0.0795
     20 C          24.8468   74.7332    5.1766 C.ar    1  UNL1        0.0869
     21 O          22.4737   73.7943    7.5137 O.2     1  UNL1       -0.2464
     22 O          26.0032   76.4447    7.9929 O.2     1  UNL1       -0.2670
     23 H          23.9901   75.2560    8.7421 H       1  UNL1        0.1734
     24 O          22.6897   70.8126   -1.3172 O.3     1  UNL1       -0.2703
     25 P          23.1618   71.4888   -2.7002 P.3     1  UNL1        0.2208
     26 O          23.4294   73.0595   -2.4652 O.3     1  UNL1       -0.4371
     27 O          24.4075   70.8412   -3.1663 O.2     1  UNL1       -0.5170
     28 O          22.0107   71.3003   -3.8102 O.3     1  UNL1       -0.2865
     29 C          20.9930   72.2742   -4.0494 C.3     1  UNL1        0.2611
     30 C          19.7320   71.5790   -4.5682 C.3     1  UNL1        0.1582
     31 C          20.0474   70.8982   -5.9036 C.3     1  UNL1        0.1625
     32 C          20.5783   71.9460   -6.8858 C.3     1  UNL1        0.1686
     33 C          21.8071   72.6272   -6.2775 C.3     1  UNL1        0.1760
     34 O          18.8571   70.3085   -6.4316 O.3     1  UNL1       -0.3801
     35 O          19.5655   72.9221   -7.1364 O.3     1  UNL1       -0.3794
     36 O          21.4528   73.2135   -5.0234 O.3     1  UNL1       -0.3263
     37 H          18.9837   69.8582   -7.2780 H       1  UNL1        0.2105
     38 H          19.8337   73.6192   -7.7513 H       1  UNL1        0.2105
     39 C          17.9796   70.4057   -3.3474 C.2     1  UNL1        0.2231
     40 C          17.5277   69.3718   -2.3497 C.3     1  UNL1        0.0946
     41 N          19.2932   70.5732   -3.5974 N.am    1  UNL1       -0.2994
     42 O          17.1608   71.0886   -3.9266 O.2     1  UNL1       -0.2751
     43 H          19.9482   70.0281   -3.1338 H       1  UNL1        0.1496
     44 C          22.3080   73.7171   -7.2270 C.3     1  UNL1        0.1693
     45 O          23.1860   73.1395   -8.1954 O.3     1  UNL1       -0.3794
     46 H          23.5427   73.7741   -8.8319 H       1  UNL1        0.2105
@<TRIPOS>BOND
     1    29    30    1
     2    30    41    1
     3    30    31    1
     4    31    34    1
     5    31    32    1
     6    32    35    1
     7    32    33    1
     8    33    36    1
     9    33    44    1
    10    39    40    1
    11    39    42    2
    12    39    41   am
    13    41    43    1
    14    29    28    1
    15    34    37    1
    16    35    38    1
    17    29    36    1
    18    44    45    1
    19    45    46    1
    20    15     6    1
    21    15    16   ar
    22    16    21    2
    23    16    17   ar
    24    17    23    1
    25    17    18   ar
    26    18    19   ar
    27    19    20   ar
    28    15    20   ar
    29    18    22    2
    30     6     7    1
    31     6    11    1
    32     7     9    1
    33     7     8    1
    34     8    13    1
    35     9    10    1
    36     9    12    1
    37    10     5    1
    38    10    11    1
    39    12    14    1
    40     5     4    1
    41     4     1    1
    42     1     2    1
    43     1    24    1
    44     1     3    2
    45    24    25    1
    46    28    25    1
    47    25    26    1
    48    25    27    2
