@<TRIPOS>MOLECULE
GDU
 43 45 0 0 0
SMALL
GASTEIGER

@<TRIPOS>ATOM
      1 P          22.1481   70.8896   -2.6862 P.3     1  UNL1        0.2189
      2 O          21.5343   69.5583   -2.4855 O.2     1  UNL1       -0.5170
      3 O          23.6025   70.7147   -3.3549 O.3     1  UNL1       -0.4371
      4 O          21.2146   71.7709   -3.6551 O.3     1  UNL1       -0.3112
      5 C          20.2345   72.3986   -2.8268 C.3     1  UNL1        0.1811
      6 C          17.9549   71.4120   -5.4263 C.3     1  UNL1        0.2383
      7 C          18.0537   70.1704   -4.5035 C.3     1  UNL1        0.1895
      8 O          16.8298   69.4320   -4.5096 O.3     1  UNL1       -0.3779
      9 C          18.3032   70.8161   -3.1157 C.3     1  UNL1        0.1713
     10 C          18.8481   72.2177   -3.4475 C.3     1  UNL1        0.1764
     11 O          18.9373   72.3172   -4.8794 O.3     1  UNL1       -0.3308
     12 O          17.0813   70.9082   -2.3805 O.3     1  UNL1       -0.3794
     13 H          16.9572   68.6762   -3.9192 H       1  UNL1        0.2106
     14 H          16.7606   70.0047   -2.2559 H       1  UNL1        0.2105
     15 N          18.2905   71.0594   -6.8068 N.ar    1  UNL1       -0.2551
     16 C          17.3112   70.7327   -7.6685 C.ar    1  UNL1        0.3323
     17 N          17.5925   70.4079   -8.9442 N.ar    1  UNL1       -0.2743
     18 C          18.8678   70.3955   -9.3773 C.ar    1  UNL1        0.2626
     19 C          19.9102   70.7318   -8.4792 C.ar    1  UNL1        0.0795
     20 C          19.5999   71.0578   -7.2065 C.ar    1  UNL1        0.0869
     21 O          16.1560   70.7399   -7.2924 O.2     1  UNL1       -0.2464
     22 O          19.1238   70.0970  -10.5305 O.2     1  UNL1       -0.2670
     23 H          16.8728   70.1790   -9.5536 H       1  UNL1        0.1734
     24 O          22.2983   71.6301   -1.2644 O.3     1  UNL1       -0.2703
     25 P          21.7364   70.6159   -0.1484 P.3     1  UNL1        0.2208
     26 O          20.5937   69.8568   -0.7026 O.2     1  UNL1       -0.5170
     27 O          22.9026   69.5915    0.2814 O.3     1  UNL1       -0.4371
     28 O          21.2536   71.4490    1.1412 O.3     1  UNL1       -0.2858
     29 C          22.2683   72.4164    1.4139 C.3     1  UNL1        0.2704
     30 C          22.7534   72.2529    2.8552 C.3     1  UNL1        0.1967
     31 C          21.5650   72.4331    3.8048 C.3     1  UNL1        0.1715
     32 C          20.8870   73.7720    3.4927 C.3     1  UNL1        0.1694
     33 C          20.5414   73.8194    2.0022 C.3     1  UNL1        0.1761
     34 O          23.3120   70.9492    3.0272 O.3     1  UNL1       -0.3775
     35 O          22.0264   72.4296    5.1574 O.3     1  UNL1       -0.3794
     36 O          21.7739   74.8436    3.8167 O.3     1  UNL1       -0.3794
     37 O          21.7362   73.7259    1.2279 O.3     1  UNL1       -0.3258
     38 H          24.0499   70.8777    2.4066 H       1  UNL1        0.2106
     39 H          22.4547   71.5769    5.3048 H       1  UNL1        0.2105
     40 H          21.9680   74.7707    4.7603 H       1  UNL1        0.2105
     41 C          19.8328   75.1385    1.6865 C.3     1  UNL1        0.1693
     42 O          19.0982   75.5700    2.8333 O.3     1  UNL1       -0.3794
     43 H          18.6683   76.4025    2.5933 H       1  UNL1        0.2105
@<TRIPOS>BOND
     1    15    16   ar
     2    15    20   ar
     3    15     6    1
     4    16    17   ar
     5    16    21    2
     6    17    18   ar
     7    17    23    1
     8    18    19   ar
     9    18    22    2
    10    19    20   ar
    11     6     7    1
    12     6    11    1
    13     7     8    1
    14     7     9    1
    15     8    13    1
    16     9    10    1
    17     9    12    1
    18    10    11    1
    19    10     5    1
    20    12    14    1
    21     5     4    1
    22     4     1    1
    23     1     2    2
    24     1     3    1
    25     1    24    1
    26    24    25    1
    27    25    26    2
    28    25    27    1
    29    25    28    1
    30    28    29    1
    31    29    30    1
    32    29    37    1
    33    30    31    1
    34    30    34    1
    35    31    32    1
    36    31    35    1
    37    32    33    1
    38    32    36    1
    39    33    41    1
    40    33    37    1
    41    41    42    1
    42    34    38    1
    43    35    39    1
    44    36    40    1
    45    42    43    1
@<TRIPOS>MOLECULE
GDU
 43 45 0 0 0
SMALL
GASTEIGER

@<TRIPOS>ATOM
      1 P          22.1541   70.8726   -2.5059 P.3     1  UNL1        0.2189
      2 O          21.5221   69.6476   -1.9678 O.2     1  UNL1       -0.5170
      3 O          23.5273   70.4846   -3.2519 O.3     1  UNL1       -0.4371
      4 O          21.1557   71.5770   -3.5517 O.3     1  UNL1       -0.3112
      5 C          20.1746   72.2740   -2.7821 C.3     1  UNL1        0.1811
      6 C          17.9324   71.3135   -5.4235 C.3     1  UNL1        0.2383
      7 C          18.0437   70.0520   -4.5296 C.3     1  UNL1        0.1895
      8 O          16.8320   69.2944   -4.5635 O.3     1  UNL1       -0.3779
      9 C          18.2715   70.6683   -3.1248 C.3     1  UNL1        0.1713
     10 C          18.7964   72.0859   -3.4187 C.3     1  UNL1        0.1764
     11 O          18.8956   72.2209   -4.8470 O.3     1  UNL1       -0.3308
     12 O          17.0424   70.7233   -2.3981 O.3     1  UNL1       -0.3794
     13 H          16.9668   68.5270   -3.9902 H       1  UNL1        0.2106
     14 H          16.7354   69.8121   -2.2976 H       1  UNL1        0.2105
     15 N          18.2848   70.9992   -6.8091 N.ar    1  UNL1       -0.2551
     16 C          17.3182   70.6746   -7.6858 C.ar    1  UNL1        0.3323
     17 N          17.6150   70.3848   -8.9664 N.ar    1  UNL1       -0.2743
     18 C          18.8936   70.4060   -9.3896 C.ar    1  UNL1        0.2626
     19 C          19.9228   70.7406   -8.4758 C.ar    1  UNL1        0.0795
     20 C          19.5969   71.0311   -7.1983 C.ar    1  UNL1        0.0869
     21 O          16.1603   70.6518   -7.3188 O.2     1  UNL1       -0.2464
     22 O          19.1637   70.1392  -10.5473 O.2     1  UNL1       -0.2670
     23 H          16.9043   70.1569   -9.5866 H       1  UNL1        0.1734
     24 O          22.4701   71.8877   -1.2966 O.3     1  UNL1       -0.2703
     25 P          22.3818   71.0338    0.0646 P.3     1  UNL1        0.2208
     26 O          21.0575   70.3796    0.1512 O.2     1  UNL1       -0.5170
     27 O          23.5360   69.9104    0.0690 O.3     1  UNL1       -0.4371
     28 O          22.5818   72.0118    1.3269 O.3     1  UNL1       -0.2858
     29 C          21.2806   72.2947    1.8430 C.3     1  UNL1        0.2704
     30 C          20.8422   73.6863    1.3840 C.3     1  UNL1        0.1967
     31 C          21.8580   74.7187    1.8826 C.3     1  UNL1        0.1715
     32 C          22.0216   74.5531    3.3977 C.3     1  UNL1        0.1694
     33 C          22.3728   73.0951    3.7039 C.3     1  UNL1        0.1761
     34 O          20.7817   73.7226   -0.0429 O.3     1  UNL1       -0.3775
     35 O          21.3872   76.0359    1.5893 O.3     1  UNL1       -0.3794
     36 O          20.8008   74.9030    4.0512 O.3     1  UNL1       -0.3794
     37 O          21.3147   72.2432    3.2674 O.3     1  UNL1       -0.3258
     38 H          20.1374   73.0537   -0.3120 H       1  UNL1        0.2106
     39 H          21.2878   76.0905    0.6304 H       1  UNL1        0.2105
     40 H          20.6169   75.8243    3.8261 H       1  UNL1        0.2105
     41 C          22.5722   72.9262    5.2118 C.3     1  UNL1        0.1693
     42 O          22.8041   74.2041    5.8069 O.3     1  UNL1       -0.3794
     43 H          22.9236   74.0540    6.7547 H       1  UNL1        0.2105
@<TRIPOS>BOND
     1    15    16   ar
     2    15    20   ar
     3    15     6    1
     4    16    17   ar
     5    16    21    2
     6    17    18   ar
     7    17    23    1
     8    18    19   ar
     9    18    22    2
    10    19    20   ar
    11     6     7    1
    12     6    11    1
    13     7     8    1
    14     7     9    1
    15     8    13    1
    16     9    10    1
    17     9    12    1
    18    10    11    1
    19    10     5    1
    20    12    14    1
    21     5     4    1
    22     4     1    1
    23     1     2    2
    24     1     3    1
    25     1    24    1
    26    24    25    1
    27    25    26    2
    28    25    27    1
    29    25    28    1
    30    28    29    1
    31    29    30    1
    32    29    37    1
    33    30    31    1
    34    30    34    1
    35    31    32    1
    36    31    35    1
    37    32    33    1
    38    32    36    1
    39    33    41    1
    40    33    37    1
    41    41    42    1
    42    34    38    1
    43    35    39    1
    44    36    40    1
    45    42    43    1
@<TRIPOS>MOLECULE
GDU
 43 45 0 0 0
SMALL
GASTEIGER

@<TRIPOS>ATOM
      1 P          21.7442   70.3586   -0.3461 P.3     1  UNL1        0.2189
      2 O          21.8701   69.2975    0.6775 O.2     1  UNL1       -0.5170
      3 O          23.1757   70.6070   -1.0404 O.3     1  UNL1       -0.4371
      4 O          20.6782   69.9048   -1.4617 O.3     1  UNL1       -0.3112
      5 C          20.8622   70.7678   -2.5850 C.3     1  UNL1        0.1811
      6 C          18.3683   71.1011   -5.1535 C.3     1  UNL1        0.2383
      7 C          18.0257   69.7630   -4.4498 C.3     1  UNL1        0.1895
      8 O          16.6197   69.5093   -4.4935 O.3     1  UNL1       -0.3779
      9 C          18.4944   70.0313   -2.9959 C.3     1  UNL1        0.1713
     10 C          19.4985   71.1907   -3.1343 C.3     1  UNL1        0.1764
     11 O          19.6101   71.4989   -4.5345 O.3     1  UNL1       -0.3308
     12 O          17.3878   70.4140   -2.1768 O.3     1  UNL1       -0.3794
     13 H          16.4743   68.6665   -4.0413 H       1  UNL1        0.2106
     14 H          16.7688   69.6714   -2.1776 H       1  UNL1        0.2105
     15 N          18.5506   70.8981   -6.5916 N.ar    1  UNL1       -0.2551
     16 C          17.4760   70.8332   -7.3975 C.ar    1  UNL1        0.3323
     17 N          17.6162   70.6508   -8.7237 N.ar    1  UNL1       -0.2743
     18 C          18.8421   70.5197   -9.2662 C.ar    1  UNL1        0.2626
     19 C          19.9829   70.5802   -8.4288 C.ar    1  UNL1        0.0795
     20 C          19.8140   70.7683   -7.1027 C.ar    1  UNL1        0.0869
     21 O          16.3639   70.9503   -6.9226 O.2     1  UNL1       -0.2464
     22 O          18.9698   70.3498  -10.4659 O.2     1  UNL1       -0.2670
     23 H          16.8298   70.6108   -9.2909 H       1  UNL1        0.1734
     24 O          21.2448   71.7204    0.3528 O.3     1  UNL1       -0.2703
     25 P          22.0618   71.8641    1.7318 P.3     1  UNL1        0.2208
     26 O          21.1122   71.9029    2.8658 O.2     1  UNL1       -0.5170
     27 O          23.0504   70.6042    1.9033 O.3     1  UNL1       -0.4371
     28 O          22.9248   73.2223    1.7065 O.3     1  UNL1       -0.2858
     29 C          22.2647   74.1495    2.5692 C.3     1  UNL1        0.2704
     30 C          21.8186   75.3686    1.7604 C.3     1  UNL1        0.1967
     31 C          23.0475   76.0136    1.1120 C.3     1  UNL1        0.1715
     32 C          24.0846   76.2992    2.2040 C.3     1  UNL1        0.1694
     33 C          24.3604   75.0080    2.9784 C.3     1  UNL1        0.1761
     34 O          20.8995   74.9598    0.7459 O.3     1  UNL1       -0.3775
     35 O          22.6685   77.2356    0.4751 O.3     1  UNL1       -0.3794
     36 O          23.5801   77.2967    3.0931 O.3     1  UNL1       -0.3794
     37 O          23.1598   74.5550    3.6022 O.3     1  UNL1       -0.3258
     38 H          20.1473   74.5540    1.1981 H       1  UNL1        0.2106
     39 H          22.0090   77.0101   -0.1931 H       1  UNL1        0.2105
     40 H          23.4159   78.0872    2.5626 H       1  UNL1        0.2105
     41 C          25.4206   75.2743    4.0495 C.3     1  UNL1        0.1693
     42 O          24.8637   75.0268    5.3416 O.3     1  UNL1       -0.3794
     43 H          25.5622   75.2050    5.9863 H       1  UNL1        0.2105
@<TRIPOS>BOND
     1    15    16   ar
     2    15    20   ar
     3    15     6    1
     4    16    17   ar
     5    16    21    2
     6    17    18   ar
     7    17    23    1
     8    18    19   ar
     9    18    22    2
    10    19    20   ar
    11     6     7    1
    12     6    11    1
    13     7     8    1
    14     7     9    1
    15     8    13    1
    16     9    10    1
    17     9    12    1
    18    10    11    1
    19    10     5    1
    20    12    14    1
    21     5     4    1
    22     4     1    1
    23     1     2    2
    24     1     3    1
    25     1    24    1
    26    24    25    1
    27    25    26    2
    28    25    27    1
    29    25    28    1
    30    28    29    1
    31    29    30    1
    32    29    37    1
    33    30    31    1
    34    30    34    1
    35    31    32    1
    36    31    35    1
    37    32    33    1
    38    32    36    1
    39    33    41    1
    40    33    37    1
    41    41    42    1
    42    34    38    1
    43    35    39    1
    44    36    40    1
    45    42    43    1
@<TRIPOS>MOLECULE
GDU
 43 45 0 0 0
SMALL
GASTEIGER

@<TRIPOS>ATOM
      1 P          22.9738   71.8283   -3.1465 P.3     1  UNL1        0.2189
      2 O          23.6286   70.5103   -3.2995 O.2     1  UNL1       -0.5170
      3 O          23.8753   72.9605   -3.8525 O.3     1  UNL1       -0.4371
      4 O          21.5220   71.7903   -3.8376 O.3     1  UNL1       -0.3112
      5 C          20.5647   71.6780   -2.7833 C.3     1  UNL1        0.1811
      6 C          18.1265   71.1661   -5.3757 C.3     1  UNL1        0.2383
      7 C          18.1079   69.8490   -4.5585 C.3     1  UNL1        0.1895
      8 O          16.8092   69.2523   -4.5825 O.3     1  UNL1       -0.3779
      9 C          18.4618   70.3463   -3.1327 C.3     1  UNL1        0.1713
     10 C          19.1521   71.7023   -3.3700 C.3     1  UNL1        0.1764
     11 O          19.2171   71.9096   -4.7916 O.3     1  UNL1       -0.3308
     12 O          17.2761   70.5107   -2.3523 O.3     1  UNL1       -0.3794
     13 H          16.8653   68.4409   -4.0587 H       1  UNL1        0.2106
     14 H          16.8593   69.6407   -2.2894 H       1  UNL1        0.2105
     15 N          18.3869   70.8942   -6.7903 N.ar    1  UNL1       -0.2551
     16 C          17.3572   70.6883   -7.6304 C.ar    1  UNL1        0.3323
     17 N          17.5692   70.4399   -8.9362 N.ar    1  UNL1       -0.2743
     18 C          18.8239   70.3836   -9.4228 C.ar    1  UNL1        0.2626
     19 C          19.9185   70.5928   -8.5485 C.ar    1  UNL1        0.0795
     20 C          19.6775   70.8443   -7.2442 C.ar    1  UNL1        0.0869
     21 O          16.2198   70.7365   -7.2061 O.2     1  UNL1       -0.2464
     22 O          19.0169   70.1541  -10.6037 O.2     1  UNL1       -0.2670
     23 H          16.8140   70.2979   -9.5290 H       1  UNL1        0.1734
     24 O          22.8156   72.1693   -1.5809 O.3     1  UNL1       -0.2703
     25 P          22.9362   73.7677   -1.4369 P.3     1  UNL1        0.2208
     26 O          24.3161   74.1895   -1.7643 O.2     1  UNL1       -0.5170
     27 O          21.9042   74.4769   -2.4499 O.3     1  UNL1       -0.4371
     28 O          22.5861   74.1995    0.0734 O.3     1  UNL1       -0.2858
     29 C          21.2861   73.6831    0.3619 C.3     1  UNL1        0.2704
     30 C          20.7179   74.3925    1.5920 C.3     1  UNL1        0.1967
     31 C          21.6632   74.1704    2.7766 C.3     1  UNL1        0.1715
     32 C          21.8965   72.6645    2.9419 C.3     1  UNL1        0.1694
     33 C          22.3776   72.0861    1.6088 C.3     1  UNL1        0.1761
     34 O          20.6013   75.7914    1.3264 O.3     1  UNL1       -0.3775
     35 O          21.0751   74.7010    3.9662 O.3     1  UNL1       -0.3794
     36 O          20.6763   72.0317    3.3301 O.3     1  UNL1       -0.3794
     37 O          21.3776   72.2821    0.6101 O.3     1  UNL1       -0.3258
     38 H          20.0046   75.8832    0.5712 H       1  UNL1        0.2106
     39 H          20.9358   75.6440    3.8129 H       1  UNL1        0.2105
     40 H          20.4089   72.4301    4.1686 H       1  UNL1        0.2105
     41 C          22.6465   70.5884    1.7720 C.3     1  UNL1        0.1693
     42 O          21.7965   69.8538    0.8893 O.3     1  UNL1       -0.3794
     43 H          21.9974   68.9172    1.0224 H       1  UNL1        0.2105
@<TRIPOS>BOND
     1    15    16   ar
     2    15    20   ar
     3    15     6    1
     4    16    17   ar
     5    16    21    2
     6    17    18   ar
     7    17    23    1
     8    18    19   ar
     9    18    22    2
    10    19    20   ar
    11     6     7    1
    12     6    11    1
    13     7     8    1
    14     7     9    1
    15     8    13    1
    16     9    10    1
    17     9    12    1
    18    10    11    1
    19    10     5    1
    20    12    14    1
    21     5     4    1
    22     4     1    1
    23     1     2    2
    24     1     3    1
    25     1    24    1
    26    24    25    1
    27    25    26    2
    28    25    27    1
    29    25    28    1
    30    28    29    1
    31    29    30    1
    32    29    37    1
    33    30    31    1
    34    30    34    1
    35    31    32    1
    36    31    35    1
    37    32    33    1
    38    32    36    1
    39    33    41    1
    40    33    37    1
    41    41    42    1
    42    34    38    1
    43    35    39    1
    44    36    40    1
    45    42    43    1
@<TRIPOS>MOLECULE
GDU
 43 45 0 0 0
SMALL
GASTEIGER

@<TRIPOS>ATOM
      1 P          22.3326   71.8833   -3.3879 P.3     1  UNL1        0.2189
      2 O          23.4097   70.8839   -3.2128 O.2     1  UNL1       -0.5170
      3 O          22.2793   72.3503   -4.9281 O.3     1  UNL1       -0.4371
      4 O          20.9217   71.2302   -2.9760 O.3     1  UNL1       -0.3112
      5 C          20.0738   72.3031   -2.5635 C.3     1  UNL1        0.1811
      6 C          17.8804   71.4312   -5.2757 C.3     1  UNL1        0.2383
      7 C          17.9162   70.1652   -4.3819 C.3     1  UNL1        0.1895
      8 O          16.6785   69.4539   -4.4553 O.3     1  UNL1       -0.3779
      9 C          18.1232   70.7707   -2.9691 C.3     1  UNL1        0.1713
     10 C          18.7100   72.1679   -3.2431 C.3     1  UNL1        0.1764
     11 O          18.8586   72.3010   -4.6673 O.3     1  UNL1       -0.3308
     12 O          16.8750   70.8711   -2.2809 O.3     1  UNL1       -0.3794
     13 H          16.7664   68.6812   -3.8800 H       1  UNL1        0.2106
     14 H          16.5309   69.9719   -2.1923 H       1  UNL1        0.2105
     15 N          18.2637   71.1057   -6.6504 N.ar    1  UNL1       -0.2551
     16 C          17.3149   70.7972   -7.5520 C.ar    1  UNL1        0.3323
     17 N          17.6404   70.4975   -8.8233 N.ar    1  UNL1       -0.2743
     18 C          18.9300   70.4924   -9.2120 C.ar    1  UNL1        0.2626
     19 C          19.9406   70.8097   -8.2716 C.ar    1  UNL1        0.0795
     20 C          19.5862   71.1106   -7.0042 C.ar    1  UNL1        0.0869
     21 O          16.1473   70.7982   -7.2163 O.2     1  UNL1       -0.2464
     22 O          19.2259   70.2166  -10.3613 O.2     1  UNL1       -0.2670
     23 H          16.9423   70.2815   -9.4619 H       1  UNL1        0.1734
     24 O          22.6285   73.1594   -2.4516 O.3     1  UNL1       -0.2703
     25 P          23.7126   74.0637   -3.2242 P.3     1  UNL1        0.2208
     26 O          24.3507   73.2634   -4.2926 O.2     1  UNL1       -0.5170
     27 O          22.9790   75.3406   -3.8764 O.3     1  UNL1       -0.4371
     28 O          24.8345   74.5639   -2.1844 O.3     1  UNL1       -0.2858
     29 C          25.2597   75.8552   -2.6222 C.3     1  UNL1        0.2704
     30 C          26.7132   75.7803   -3.0924 C.3     1  UNL1        0.1967
     31 C          27.5868   75.2869   -1.9349 C.3     1  UNL1        0.1715
     32 C          27.3405   76.1851   -0.7175 C.3     1  UNL1        0.1694
     33 C          25.8384   76.2276   -0.4261 C.3     1  UNL1        0.1761
     34 O          26.8147   74.8729   -4.1912 O.3     1  UNL1       -0.3775
     35 O          28.9640   75.3514   -2.3114 O.3     1  UNL1       -0.3794
     36 O          27.8163   77.5035   -0.9923 O.3     1  UNL1       -0.3794
     37 O          25.1466   76.7815   -1.5444 O.3     1  UNL1       -0.3258
     38 H          26.2448   75.2183   -4.8918 H       1  UNL1        0.2106
     39 H          29.0696   74.7832   -3.0849 H       1  UNL1        0.2105
     40 H          28.7619   77.4273   -1.1751 H       1  UNL1        0.2105
     41 C          25.5846   77.0948    0.8091 C.3     1  UNL1        0.1693
     42 O          25.3498   78.4441    0.4027 O.3     1  UNL1       -0.3794
     43 H          25.1939   78.9559    1.2083 H       1  UNL1        0.2105
@<TRIPOS>BOND
     1    15    16   ar
     2    15    20   ar
     3    15     6    1
     4    16    17   ar
     5    16    21    2
     6    17    18   ar
     7    17    23    1
     8    18    19   ar
     9    18    22    2
    10    19    20   ar
    11     6     7    1
    12     6    11    1
    13     7     8    1
    14     7     9    1
    15     8    13    1
    16     9    10    1
    17     9    12    1
    18    10    11    1
    19    10     5    1
    20    12    14    1
    21     5     4    1
    22     4     1    1
    23     1     2    2
    24     1     3    1
    25     1    24    1
    26    24    25    1
    27    25    26    2
    28    25    27    1
    29    25    28    1
    30    28    29    1
    31    29    30    1
    32    29    37    1
    33    30    31    1
    34    30    34    1
    35    31    32    1
    36    31    35    1
    37    32    33    1
    38    32    36    1
    39    33    41    1
    40    33    37    1
    41    41    42    1
    42    34    38    1
    43    35    39    1
    44    36    40    1
    45    42    43    1
@<TRIPOS>MOLECULE
GDU
 43 45 0 0 0
SMALL
GASTEIGER

@<TRIPOS>ATOM
      1 P          22.3101   70.9719   -1.8709 P.3     1  UNL1        0.2189
      2 O          22.6891   70.3129   -3.1404 O.2     1  UNL1       -0.5170
      3 O          22.3682   72.5702   -2.0578 O.3     1  UNL1       -0.4371
      4 O          20.8175   70.5333   -1.4629 O.3     1  UNL1       -0.3112
      5 C          20.1771   70.0834   -2.6579 C.3     1  UNL1        0.1811
      6 C          18.5646   71.8580   -5.3371 C.3     1  UNL1        0.2383
      7 C          17.4654   70.9214   -4.7737 C.3     1  UNL1        0.1895
      8 O          16.1700   71.5063   -4.9258 O.3     1  UNL1       -0.3779
      9 C          17.8566   70.8255   -3.2760 C.3     1  UNL1        0.1713
     10 C          19.3447   71.2212   -3.2518 C.3     1  UNL1        0.1764
     11 O          19.7480   71.4636   -4.6108 O.3     1  UNL1       -0.3308
     12 O          17.0774   71.7354   -2.4969 O.3     1  UNL1       -0.3794
     13 H          15.5347   70.8765   -4.5576 H       1  UNL1        0.2106
     14 H          16.1530   71.4717   -2.5998 H       1  UNL1        0.2105
     15 N          18.7445   71.6401   -6.7734 N.ar    1  UNL1       -0.2551
     16 C          19.4884   72.5007   -7.4905 C.ar    1  UNL1        0.3323
     17 N          19.6723   72.3213   -8.8118 N.ar    1  UNL1       -0.2743
     18 C          19.1026   71.2760   -9.4419 C.ar    1  UNL1        0.2626
     19 C          18.3116   70.3645   -8.7004 C.ar    1  UNL1        0.0795
     20 C          18.1469   70.5657   -7.3757 C.ar    1  UNL1        0.0869
     21 O          20.0090   73.4480   -6.9358 O.2     1  UNL1       -0.2464
     22 O          19.2646   71.1154  -10.6387 O.2     1  UNL1       -0.2670
     23 H          20.2159   72.9499   -9.3129 H       1  UNL1        0.1734
     24 O          23.3364   70.5309   -0.7113 O.3     1  UNL1       -0.2703
     25 P          22.4997   70.4941    0.6630 P.3     1  UNL1        0.2208
     26 O          21.4972   69.4077    0.6010 O.2     1  UNL1       -0.5170
     27 O          23.5029   70.2282    1.8947 O.3     1  UNL1       -0.4371
     28 O          21.7526   71.9036    0.8757 O.3     1  UNL1       -0.2858
     29 C          22.5033   72.6281    1.8510 C.3     1  UNL1        0.2704
     30 C          21.5706   73.0888    2.9723 C.3     1  UNL1        0.1967
     31 C          20.4689   73.9691    2.3742 C.3     1  UNL1        0.1715
     32 C          21.1253   75.0954    1.5678 C.3     1  UNL1        0.1694
     33 C          22.0911   74.4818    0.5510 C.3     1  UNL1        0.1761
     34 O          20.9844   71.9500    3.6054 O.3     1  UNL1       -0.3775
     35 O          19.6765   74.5266    3.4248 O.3     1  UNL1       -0.3794
     36 O          21.8400   75.9613    2.4506 O.3     1  UNL1       -0.3794
     37 O          23.1141   73.7590    1.2342 O.3     1  UNL1       -0.3258
     38 H          21.7128   71.4223    3.9601 H       1  UNL1        0.2106
     39 H          19.2944   73.7849    3.9109 H       1  UNL1        0.2105
     40 H          21.1951   76.3190    3.0747 H       1  UNL1        0.2105
     41 C          22.7266   75.5964   -0.2832 C.3     1  UNL1        0.1693
     42 O          22.2210   75.5386   -1.6181 O.3     1  UNL1       -0.3794
     43 H          22.6446   76.2559   -2.1092 H       1  UNL1        0.2105
@<TRIPOS>BOND
     1    15    16   ar
     2    15    20   ar
     3    15     6    1
     4    16    17   ar
     5    16    21    2
     6    17    18   ar
     7    17    23    1
     8    18    19   ar
     9    18    22    2
    10    19    20   ar
    11     6     7    1
    12     6    11    1
    13     7     8    1
    14     7     9    1
    15     8    13    1
    16     9    10    1
    17     9    12    1
    18    10    11    1
    19    10     5    1
    20    12    14    1
    21     5     4    1
    22     4     1    1
    23     1     2    2
    24     1     3    1
    25     1    24    1
    26    24    25    1
    27    25    26    2
    28    25    27    1
    29    25    28    1
    30    28    29    1
    31    29    30    1
    32    29    37    1
    33    30    31    1
    34    30    34    1
    35    31    32    1
    36    31    35    1
    37    32    33    1
    38    32    36    1
    39    33    41    1
    40    33    37    1
    41    41    42    1
    42    34    38    1
    43    35    39    1
    44    36    40    1
    45    42    43    1
@<TRIPOS>MOLECULE
GDU
 43 45 0 0 0
SMALL
GASTEIGER

@<TRIPOS>ATOM
      1 P          22.1296   70.4093   -0.2794 P.3     1  UNL1        0.2189
      2 O          23.0383   69.3703    0.2539 O.2     1  UNL1       -0.5170
      3 O          22.9977   71.5929   -0.9414 O.3     1  UNL1       -0.4371
      4 O          21.1681   69.7611   -1.3939 O.3     1  UNL1       -0.3112
      5 C          21.1950   70.6358   -2.5229 C.3     1  UNL1        0.1811
      6 C          18.5400   70.8744   -4.9357 C.3     1  UNL1        0.2383
      7 C          18.3907   69.4544   -4.3320 C.3     1  UNL1        0.1895
      8 O          17.0221   69.0418   -4.3316 O.3     1  UNL1       -0.3779
      9 C          18.9065   69.6612   -2.8840 C.3     1  UNL1        0.1713
     10 C          19.7637   70.9376   -2.9708 C.3     1  UNL1        0.1764
     11 O          19.7614   71.3654   -4.3438 O.3     1  UNL1       -0.3308
     12 O          17.8111   69.8462   -1.9852 O.3     1  UNL1       -0.3794
     13 H          16.9984   68.1550   -3.9457 H       1  UNL1        0.2106
     14 H          17.2809   69.0385   -2.0197 H       1  UNL1        0.2105
     15 N          18.6635   70.8073   -6.3928 N.ar    1  UNL1       -0.2551
     16 C          17.5562   70.7688   -7.1548 C.ar    1  UNL1        0.3323
     17 N          17.6421   70.7106   -8.4969 N.ar    1  UNL1       -0.2743
     18 C          18.8458   70.6797   -9.1005 C.ar    1  UNL1        0.2626
     19 C          20.0208   70.7138   -8.3102 C.ar    1  UNL1        0.0795
     20 C          19.9060   70.7765   -6.9666 C.ar    1  UNL1        0.0869
     21 O          16.4635   70.7965   -6.6246 O.2     1  UNL1       -0.2464
     22 O          18.9245   70.6222  -10.3150 O.2     1  UNL1       -0.2670
     23 H          16.8326   70.6878   -9.0315 H       1  UNL1        0.1734
     24 O          21.2366   71.0068    0.9198 O.3     1  UNL1       -0.2703
     25 P          21.7227   72.5231    1.1528 P.3     1  UNL1        0.2208
     26 O          23.0224   72.7335    0.4778 O.2     1  UNL1       -0.5170
     27 O          20.6306   73.5365    0.5408 O.3     1  UNL1       -0.4371
     28 O          21.8850   72.7996    2.7299 O.3     1  UNL1       -0.2858
     29 C          21.7540   74.2090    2.9198 C.3     1  UNL1        0.2704
     30 C          23.0521   74.7666    3.5057 C.3     1  UNL1        0.1967
     31 C          23.3396   74.0659    4.8372 C.3     1  UNL1        0.1715
     32 C          22.1067   74.2004    5.7380 C.3     1  UNL1        0.1694
     33 C          20.8797   73.6835    4.9828 C.3     1  UNL1        0.1761
     34 O          24.1283   74.5298    2.5963 O.3     1  UNL1       -0.3775
     35 O          24.4670   74.6773    5.4678 O.3     1  UNL1       -0.3794
     36 O          21.9165   75.5726    6.0858 O.3     1  UNL1       -0.3794
     37 O          20.6706   74.4682    3.8096 O.3     1  UNL1       -0.3258
     38 H          23.9017   74.9819    1.7722 H       1  UNL1        0.2106
     39 H          25.2131   74.5797    4.8628 H       1  UNL1        0.2105
     40 H          22.7134   75.8560    6.5527 H       1  UNL1        0.2105
     41 C          19.6483   73.7815    5.8861 C.3     1  UNL1        0.1693
     42 O          18.5045   73.2890    5.1859 O.3     1  UNL1       -0.3794
     43 H          17.7523   73.3674    5.7886 H       1  UNL1        0.2105
@<TRIPOS>BOND
     1    15    16   ar
     2    15    20   ar
     3    15     6    1
     4    16    17   ar
     5    16    21    2
     6    17    18   ar
     7    17    23    1
     8    18    19   ar
     9    18    22    2
    10    19    20   ar
    11     6     7    1
    12     6    11    1
    13     7     8    1
    14     7     9    1
    15     8    13    1
    16     9    10    1
    17     9    12    1
    18    10    11    1
    19    10     5    1
    20    12    14    1
    21     5     4    1
    22     4     1    1
    23     1     2    2
    24     1     3    1
    25     1    24    1
    26    24    25    1
    27    25    26    2
    28    25    27    1
    29    25    28    1
    30    28    29    1
    31    29    30    1
    32    29    37    1
    33    30    31    1
    34    30    34    1
    35    31    32    1
    36    31    35    1
    37    32    33    1
    38    32    36    1
    39    33    41    1
    40    33    37    1
    41    41    42    1
    42    34    38    1
    43    35    39    1
    44    36    40    1
    45    42    43    1
@<TRIPOS>MOLECULE
GDU
 43 45 0 0 0
SMALL
GASTEIGER

@<TRIPOS>ATOM
      1 P          22.0865   70.3945   -0.2034 P.3     1  UNL1        0.2189
      2 O          23.1893   71.2190   -0.7451 O.2     1  UNL1       -0.5170
      3 O          22.6988   69.1348    0.5912 O.3     1  UNL1       -0.4371
      4 O          21.1963   71.2812    0.8007 O.3     1  UNL1       -0.3112
      5 C          21.9531   71.4301    2.0030 C.3     1  UNL1        0.1811
      6 C          22.5603   74.6057    3.5759 C.3     1  UNL1        0.2383
      7 C          22.2692   74.9548    2.0939 C.3     1  UNL1        0.1895
      8 O          21.6528   76.2399    1.9843 O.3     1  UNL1       -0.3779
      9 C          21.2823   73.8312    1.6832 C.3     1  UNL1        0.1713
     10 C          21.5332   72.7168    2.7160 C.3     1  UNL1        0.1764
     11 O          22.5910   73.1627    3.5823 O.3     1  UNL1       -0.3308
     12 O          19.9339   74.2982    1.7588 O.3     1  UNL1       -0.3794
     13 H          21.4992   76.3960    1.0420 H       1  UNL1        0.2106
     14 H          19.8561   75.0316    1.1337 H       1  UNL1        0.2105
     15 N          23.8534   75.1510    3.9921 N.ar    1  UNL1       -0.2551
     16 C          24.0473   75.5014    5.2758 C.ar    1  UNL1        0.3323
     17 N          25.2279   76.0019    5.6853 N.ar    1  UNL1       -0.2743
     18 C          26.2362   76.1697    4.8082 C.ar    1  UNL1        0.2626
     19 C          26.0444   75.8104    3.4516 C.ar    1  UNL1        0.0795
     20 C          24.8519   75.3068    3.0686 C.ar    1  UNL1        0.0869
     21 O          23.1472   75.3554    6.0787 O.2     1  UNL1       -0.2464
     22 O          27.3036   76.6271    5.1769 O.2     1  UNL1       -0.2670
     23 H          25.3517   76.2455    6.6165 H       1  UNL1        0.1734
     24 O          21.1667   69.8673   -1.4151 O.3     1  UNL1       -0.2703
     25 P          21.4163   70.8603   -2.6567 P.3     1  UNL1        0.2208
     26 O          21.3536   72.2620   -2.1873 O.2     1  UNL1       -0.5170
     27 O          22.8684   70.5717   -3.2909 O.3     1  UNL1       -0.4371
     28 O          20.2854   70.6170   -3.7756 O.3     1  UNL1       -0.2858
     29 C          19.0765   71.1895   -3.2752 C.3     1  UNL1        0.2704
     30 C          17.9760   70.1274   -3.2657 C.3     1  UNL1        0.1967
     31 C          17.7766   69.6033   -4.6912 C.3     1  UNL1        0.1715
     32 C          17.5245   70.7956   -5.6209 C.3     1  UNL1        0.1694
     33 C          18.6612   71.8068   -5.4530 C.3     1  UNL1        0.1761
     34 O          18.3571   69.0508   -2.4073 O.3     1  UNL1       -0.3775
     35 O          16.6542   68.7192   -4.7251 O.3     1  UNL1       -0.3794
     36 O          16.2793   71.4090   -5.2844 O.3     1  UNL1       -0.3794
     37 O          18.6893   72.2804   -4.1073 O.3     1  UNL1       -0.3258
     38 H          18.4784   69.4272   -1.5249 H       1  UNL1        0.2106
     39 H          16.8511   67.9936   -4.1192 H       1  UNL1        0.2105
     40 H          15.5958   70.7359   -5.3988 H       1  UNL1        0.2105
     41 C          18.4370   72.9860   -6.4024 C.3     1  UNL1        0.1693
     42 O          19.5024   73.9260   -6.2530 O.3     1  UNL1       -0.3794
     43 H          19.3240   74.6512   -6.8674 H       1  UNL1        0.2105
@<TRIPOS>BOND
     1    15    16   ar
     2    15    20   ar
     3    15     6    1
     4    16    17   ar
     5    16    21    2
     6    17    18   ar
     7    17    23    1
     8    18    19   ar
     9    18    22    2
    10    19    20   ar
    11     6     7    1
    12     6    11    1
    13     7     8    1
    14     7     9    1
    15     8    13    1
    16     9    10    1
    17     9    12    1
    18    10    11    1
    19    10     5    1
    20    12    14    1
    21     5     4    1
    22     4     1    1
    23     1     2    2
    24     1     3    1
    25     1    24    1
    26    24    25    1
    27    25    26    2
    28    25    27    1
    29    25    28    1
    30    28    29    1
    31    29    30    1
    32    29    37    1
    33    30    31    1
    34    30    34    1
    35    31    32    1
    36    31    35    1
    37    32    33    1
    38    32    36    1
    39    33    41    1
    40    33    37    1
    41    41    42    1
    42    34    38    1
    43    35    39    1
    44    36    40    1
    45    42    43    1
@<TRIPOS>MOLECULE
GDU
 43 45 0 0 0
SMALL
GASTEIGER

@<TRIPOS>ATOM
      1 P          22.0355   70.8039   -0.2661 P.3     1  UNL1        0.2189
      2 O          21.3812   69.5505    0.1704 O.2     1  UNL1       -0.5170
      3 O          23.2643   70.4546   -1.2464 O.3     1  UNL1       -0.4371
      4 O          20.9704   71.7221   -1.0468 O.3     1  UNL1       -0.3112
      5 C          20.9580   71.2780   -2.4044 C.3     1  UNL1        0.1811
      6 C          18.4057   70.7592   -4.8832 C.3     1  UNL1        0.2383
      7 C          18.6821   69.3466   -4.3076 C.3     1  UNL1        0.1895
      8 O          17.5035   68.5389   -4.3509 O.3     1  UNL1       -0.3779
      9 C          19.0810   69.6649   -2.8431 C.3     1  UNL1        0.1713
     10 C          19.5121   71.1427   -2.8854 C.3     1  UNL1        0.1764
     11 O          19.4082   71.5828   -4.2505 O.3     1  UNL1       -0.3308
     12 O          17.9630   69.4876   -1.9710 O.3     1  UNL1       -0.3794
     13 H          17.7421   67.6775   -3.9808 H       1  UNL1        0.2106
     14 H          17.7037   68.5583   -2.0333 H       1  UNL1        0.2105
     15 N          18.5736   70.7680   -6.3373 N.ar    1  UNL1       -0.2551
     16 C          17.5131   70.5412   -7.1324 C.ar    1  UNL1        0.3323
     17 N          17.6396   70.5472   -8.4725 N.ar    1  UNL1       -0.2743
     18 C          18.8397   70.7721   -9.0412 C.ar    1  UNL1        0.2626
     19 C          19.9668   71.0068   -8.2160 C.ar    1  UNL1        0.0795
     20 C          19.8111   70.9994   -6.8751 C.ar    1  UNL1        0.0869
     21 O          16.4240   70.3373   -6.6339 O.2     1  UNL1       -0.2464
     22 O          18.9562   70.7730  -10.2540 O.2     1  UNL1       -0.2670
     23 H          16.8627   70.3859   -9.0311 H       1  UNL1        0.1734
     24 O          22.5872   71.5969    1.0221 O.3     1  UNL1       -0.2703
     25 P          22.1986   73.1453    0.8186 P.3     1  UNL1        0.2208
     26 O          22.9945   73.7113   -0.2929 O.2     1  UNL1       -0.5170
     27 O          20.6307   73.2635    0.4698 O.3     1  UNL1       -0.4371
     28 O          22.5091   73.9599    2.1714 O.3     1  UNL1       -0.2858
     29 C          22.9232   73.0022    3.1467 C.3     1  UNL1        0.2704
     30 C          21.7182   72.5788    3.9882 C.3     1  UNL1        0.1967
     31 C          21.1228   73.8173    4.6650 C.3     1  UNL1        0.1715
     32 C          22.2355   74.5374    5.4351 C.3     1  UNL1        0.1694
     33 C          23.4013   74.8142    4.4825 C.3     1  UNL1        0.1761
     34 O          20.7357   71.9728    3.1463 O.3     1  UNL1       -0.3775
     35 O          20.0894   73.4204    5.5689 O.3     1  UNL1       -0.3794
     36 O          22.6794   73.7143    6.5146 O.3     1  UNL1       -0.3794
     37 O          23.9199   73.5814    3.9855 O.3     1  UNL1       -0.3258
     38 H          21.1553   71.2040    2.7366 H       1  UNL1        0.2106
     39 H          19.4198   72.9629    5.0449 H       1  UNL1        0.2105
     40 H          21.9136   73.5618    7.0835 H       1  UNL1        0.2105
     41 C          24.5042   75.5638    5.2333 C.3     1  UNL1        0.1693
     42 O          25.7469   74.8811    5.0587 O.3     1  UNL1       -0.3794
     43 H          26.4138   75.3848    5.5454 H       1  UNL1        0.2105
@<TRIPOS>BOND
     1    15    16   ar
     2    15    20   ar
     3    15     6    1
     4    16    17   ar
     5    16    21    2
     6    17    18   ar
     7    17    23    1
     8    18    19   ar
     9    18    22    2
    10    19    20   ar
    11     6     7    1
    12     6    11    1
    13     7     8    1
    14     7     9    1
    15     8    13    1
    16     9    10    1
    17     9    12    1
    18    10    11    1
    19    10     5    1
    20    12    14    1
    21     5     4    1
    22     4     1    1
    23     1     2    2
    24     1     3    1
    25     1    24    1
    26    24    25    1
    27    25    26    2
    28    25    27    1
    29    25    28    1
    30    28    29    1
    31    29    30    1
    32    29    37    1
    33    30    31    1
    34    30    34    1
    35    31    32    1
    36    31    35    1
    37    32    33    1
    38    32    36    1
    39    33    41    1
    40    33    37    1
    41    41    42    1
    42    34    38    1
    43    35    39    1
    44    36    40    1
    45    42    43    1
@<TRIPOS>MOLECULE
GDU
 43 45 0 0 0
SMALL
GASTEIGER

@<TRIPOS>ATOM
      1 P          21.7761   70.3063   -0.4400 P.3     1  UNL1        0.2189
      2 O          21.8629   69.4423    0.7581 O.2     1  UNL1       -0.5170
      3 O          23.2580   70.7394   -0.8976 O.3     1  UNL1       -0.4371
      4 O          21.0604   69.4995   -1.6332 O.3     1  UNL1       -0.3112
      5 C          21.1806   70.3043   -2.8072 C.3     1  UNL1        0.1811
      6 C          18.5501   70.8298   -5.2013 C.3     1  UNL1        0.2383
      7 C          18.2297   69.4520   -4.5673 C.3     1  UNL1        0.1895
      8 O          16.8201   69.2156   -4.5467 O.3     1  UNL1       -0.3779
      9 C          18.7836   69.6197   -3.1284 C.3     1  UNL1        0.1713
     10 C          19.7939   70.7757   -3.2487 C.3     1  UNL1        0.1764
     11 O          19.8303   71.1739   -4.6302 O.3     1  UNL1       -0.3308
     12 O          17.7305   69.9589   -2.2241 O.3     1  UNL1       -0.3794
     13 H          16.6891   68.3465   -4.1425 H       1  UNL1        0.2106
     14 H          17.1023   69.2242   -2.2375 H       1  UNL1        0.2105
     15 N          18.6479   70.7197   -6.6577 N.ar    1  UNL1       -0.2551
     16 C          17.5281   70.7048   -7.4020 C.ar    1  UNL1        0.3323
     17 N          17.5904   70.6080   -8.7432 N.ar    1  UNL1       -0.2743
     18 C          18.7823   70.5139   -9.3635 C.ar    1  UNL1        0.2626
     19 C          19.9701   70.5225   -8.5918 C.ar    1  UNL1        0.0795
     20 C          19.8791   70.6249   -7.2488 C.ar    1  UNL1        0.0869
     21 O          16.4457   70.7894   -6.8567 O.2     1  UNL1       -0.2464
     22 O          18.8396   70.4214  -10.5770 O.2     1  UNL1       -0.2670
     23 H          16.7723   70.6031   -9.2650 H       1  UNL1        0.1734
     24 O          20.9178   71.6228   -0.0901 O.3     1  UNL1       -0.2703
     25 P          21.9048   72.6314    0.6835 P.3     1  UNL1        0.2208
     26 O          21.1304   73.7839    1.1945 O.2     1  UNL1       -0.5170
     27 O          22.5984   71.8623    1.9170 O.3     1  UNL1       -0.4371
     28 O          23.0414   73.1538   -0.3290 O.3     1  UNL1       -0.2858
     29 C          22.6708   74.4757   -0.7226 C.3     1  UNL1        0.2704
     30 C          22.6809   74.5741   -2.2489 C.3     1  UNL1        0.1967
     31 C          24.0829   74.2302   -2.7614 C.3     1  UNL1        0.1715
     32 C          25.1001   75.1243   -2.0433 C.3     1  UNL1        0.1694
     33 C          24.9076   74.9824   -0.5314 C.3     1  UNL1        0.1761
     34 O          21.7318   73.6559   -2.7941 O.3     1  UNL1       -0.3775
     35 O          24.1487   74.4598   -4.1705 O.3     1  UNL1       -0.3794
     36 O          24.8979   76.4842   -2.4301 O.3     1  UNL1       -0.3794
     37 O          23.5951   75.4106   -0.1711 O.3     1  UNL1       -0.3258
     38 H          20.8673   73.9051   -2.4399 H       1  UNL1        0.2106
     39 H          23.4864   73.8878   -4.5785 H       1  UNL1        0.2105
     40 H          25.0231   76.5246   -3.3871 H       1  UNL1        0.2105
     41 C          25.9414   75.8451    0.1958 C.3     1  UNL1        0.1693
     42 O          27.1148   75.9623   -0.6107 O.3     1  UNL1       -0.3794
     43 H          27.7392   76.5125   -0.1180 H       1  UNL1        0.2105
@<TRIPOS>BOND
     1    15    16   ar
     2    15    20   ar
     3    15     6    1
     4    16    17   ar
     5    16    21    2
     6    17    18   ar
     7    17    23    1
     8    18    19   ar
     9    18    22    2
    10    19    20   ar
    11     6     7    1
    12     6    11    1
    13     7     8    1
    14     7     9    1
    15     8    13    1
    16     9    10    1
    17     9    12    1
    18    10    11    1
    19    10     5    1
    20    12    14    1
    21     5     4    1
    22     4     1    1
    23     1     2    2
    24     1     3    1
    25     1    24    1
    26    24    25    1
    27    25    26    2
    28    25    27    1
    29    25    28    1
    30    28    29    1
    31    29    30    1
    32    29    37    1
    33    30    31    1
    34    30    34    1
    35    31    32    1
    36    31    35    1
    37    32    33    1
    38    32    36    1
    39    33    41    1
    40    33    37    1
    41    41    42    1
    42    34    38    1
    43    35    39    1
    44    36    40    1
    45    42    43    1
@<TRIPOS>MOLECULE
GDU
 43 45 0 0 0
SMALL
GASTEIGER

@<TRIPOS>ATOM
      1 P          20.6544   69.9814   -2.7319 P.3     1  UNL1        0.2189
      2 O          20.3769   68.5351   -2.8756 O.2     1  UNL1       -0.5170
      3 O          22.2395   70.2381   -2.8515 O.3     1  UNL1       -0.4371
      4 O          19.8904   70.7927   -3.8916 O.3     1  UNL1       -0.3112
      5 C          19.2936   71.9341   -3.2739 C.3     1  UNL1        0.1811
      6 C          18.1002   72.6217   -6.5951 C.3     1  UNL1        0.2383
      7 C          16.9236   71.8870   -5.9032 C.3     1  UNL1        0.1895
      8 O          15.6686   72.3299   -6.4246 O.3     1  UNL1       -0.3779
      9 C          17.0930   72.3229   -4.4244 C.3     1  UNL1        0.1713
     10 C          18.5650   72.7657   -4.3311 C.3     1  UNL1        0.1764
     11 O          19.1628   72.5483   -5.6209 O.3     1  UNL1       -0.3308
     12 O          16.2164   73.4096   -4.1204 O.3     1  UNL1       -0.3794
     13 H          14.9817   71.8366   -5.9549 H       1  UNL1        0.2106
     14 H          15.3145   73.0878   -4.2539 H       1  UNL1        0.2105
     15 N          18.4844   71.9361   -7.8301 N.ar    1  UNL1       -0.2551
     16 C          18.0384   70.6900   -8.0675 C.ar    1  UNL1        0.3323
     17 N          18.3740   70.0388   -9.1967 N.ar    1  UNL1       -0.2743
     18 C          19.1747   70.6251  -10.1074 C.ar    1  UNL1        0.2626
     19 C          19.6568   71.9352   -9.8680 C.ar    1  UNL1        0.0795
     20 C          19.3014   72.5672   -8.7292 C.ar    1  UNL1        0.0869
     21 O          17.3149   70.1483   -7.2555 O.2     1  UNL1       -0.2464
     22 O          19.4829   70.0346  -11.1276 O.2     1  UNL1       -0.2670
     23 H          18.0394   69.1415   -9.3537 H       1  UNL1        0.1734
     24 O          20.1376   70.4856   -1.2927 O.3     1  UNL1       -0.2703
     25 P          21.4457   70.7464   -0.3923 P.3     1  UNL1        0.2208
     26 O          21.6643   69.5911    0.5059 O.2     1  UNL1       -0.5170
     27 O          22.7277   70.9314   -1.3496 O.3     1  UNL1       -0.4371
     28 O          21.2369   72.0785    0.4863 O.3     1  UNL1       -0.2858
     29 C          22.4815   72.3485    1.1327 C.3     1  UNL1        0.2704
     30 C          22.2350   72.6260    2.6165 C.3     1  UNL1        0.1967
     31 C          21.2861   73.8211    2.7493 C.3     1  UNL1        0.1715
     32 C          21.8640   74.9966    1.9531 C.3     1  UNL1        0.1694
     33 C          22.1370   74.5394    0.5180 C.3     1  UNL1        0.1761
     34 O          21.6471   71.4760    3.2272 O.3     1  UNL1       -0.3775
     35 O          21.1621   74.1852    4.1257 O.3     1  UNL1       -0.3794
     36 O          23.0810   75.4327    2.5604 O.3     1  UNL1       -0.3794
     37 O          23.0952   73.4821    0.5237 O.3     1  UNL1       -0.3258
     38 H          22.2740   70.7486    3.1137 H       1  UNL1        0.2106
     39 H          20.8078   73.4151    4.5880 H       1  UNL1        0.2105
     40 H          22.8624   75.7047    3.4613 H       1  UNL1        0.2105
     41 C          22.6826   75.7155   -0.2951 C.3     1  UNL1        0.1693
     42 O          22.4740   75.4689   -1.6867 O.3     1  UNL1       -0.3794
     43 H          22.8301   76.2318   -2.1626 H       1  UNL1        0.2105
@<TRIPOS>BOND
     1    15    16   ar
     2    15    20   ar
     3    15     6    1
     4    16    17   ar
     5    16    21    2
     6    17    18   ar
     7    17    23    1
     8    18    19   ar
     9    18    22    2
    10    19    20   ar
    11     6     7    1
    12     6    11    1
    13     7     8    1
    14     7     9    1
    15     8    13    1
    16     9    10    1
    17     9    12    1
    18    10    11    1
    19    10     5    1
    20    12    14    1
    21     5     4    1
    22     4     1    1
    23     1     2    2
    24     1     3    1
    25     1    24    1
    26    24    25    1
    27    25    26    2
    28    25    27    1
    29    25    28    1
    30    28    29    1
    31    29    30    1
    32    29    37    1
    33    30    31    1
    34    30    34    1
    35    31    32    1
    36    31    35    1
    37    32    33    1
    38    32    36    1
    39    33    41    1
    40    33    37    1
    41    41    42    1
    42    34    38    1
    43    35    39    1
    44    36    40    1
    45    42    43    1
@<TRIPOS>MOLECULE
GDU
 43 45 0 0 0
SMALL
GASTEIGER

@<TRIPOS>ATOM
      1 P          21.6599   70.4796   -0.6325 P.3     1  UNL1        0.2189
      2 O          23.0875   70.6013   -1.0023 O.2     1  UNL1       -0.5170
      3 O          21.5109   69.4576    0.6029 O.3     1  UNL1       -0.4371
      4 O          21.0904   71.9224   -0.2072 O.3     1  UNL1       -0.3112
      5 C          21.3729   72.0851    1.1836 C.3     1  UNL1        0.1811
      6 C          23.5694   74.7337    0.1407 C.3     1  UNL1        0.2383
      7 C          22.1437   75.2987   -0.0857 C.3     1  UNL1        0.1895
      8 O          22.1240   76.7175    0.0873 O.3     1  UNL1       -0.3779
      9 C          21.3334   74.5938    1.0332 C.3     1  UNL1        0.1713
     10 C          22.1862   73.3635    1.3944 C.3     1  UNL1        0.1764
     11 O          23.3314   73.3628    0.5245 O.3     1  UNL1       -0.3308
     12 O          21.1852   75.4571    2.1622 O.3     1  UNL1       -0.3794
     13 H          21.2131   77.0046   -0.0669 H       1  UNL1        0.2106
     14 H          20.6958   76.2337    1.8587 H       1  UNL1        0.2105
     15 N          24.3530   74.7951   -1.0942 N.ar    1  UNL1       -0.2551
     16 C          25.5905   75.3209   -1.0733 C.ar    1  UNL1        0.3323
     17 N          26.3332   75.3859   -2.1940 N.ar    1  UNL1       -0.2743
     18 C          25.8416   74.9317   -3.3628 C.ar    1  UNL1        0.2626
     19 C          24.5374   74.3805   -3.4011 C.ar    1  UNL1        0.0795
     20 C          23.8157   74.3235   -2.2616 C.ar    1  UNL1        0.0869
     21 O          26.0475   75.7343   -0.0262 O.2     1  UNL1       -0.2464
     22 O          26.5114   74.9945   -4.3787 O.2     1  UNL1       -0.2670
     23 H          27.2260   75.7647   -2.1597 H       1  UNL1        0.1734
     24 O          20.8260   69.9220   -1.8919 O.3     1  UNL1       -0.2703
     25 P          20.9800   71.0067   -3.0708 P.3     1  UNL1        0.2208
     26 O          20.6673   72.3539   -2.5451 O.2     1  UNL1       -0.5170
     27 O          22.4920   70.9852   -3.6252 O.3     1  UNL1       -0.4371
     28 O          19.9657   70.6478   -4.2676 O.3     1  UNL1       -0.2858
     29 C          18.7239   71.2846   -3.9641 C.3     1  UNL1        0.2704
     30 C          17.6179   70.2312   -3.8835 C.3     1  UNL1        0.1967
     31 C          17.5340   69.4929   -5.2230 C.3     1  UNL1        0.1715
     32 C          17.3698   70.5266   -6.3429 C.3     1  UNL1        0.1694
     33 C          18.4967   71.5572   -6.2380 C.3     1  UNL1        0.1761
     34 O          17.9175   69.3015   -2.8408 O.3     1  UNL1       -0.3775
     35 O          16.4113   68.6085   -5.2142 O.3     1  UNL1       -0.3794
     36 O          16.1059   71.1783   -6.2101 O.3     1  UNL1       -0.3794
     37 O          18.4162   72.2325   -4.9836 O.3     1  UNL1       -0.3258
     38 H          17.9678   69.8098   -2.0198 H       1  UNL1        0.2106
     39 H          16.5511   67.9859   -4.4896 H       1  UNL1        0.2105
     40 H          15.4289   70.4922   -6.2763 H       1  UNL1        0.2105
     41 C          18.3619   72.5750   -7.3729 C.3     1  UNL1        0.1693
     42 O          19.6425   73.1393   -7.6601 O.3     1  UNL1       -0.3794
     43 H          19.5142   73.7732   -8.3791 H       1  UNL1        0.2105
@<TRIPOS>BOND
     1    15    16   ar
     2    15    20   ar
     3    15     6    1
     4    16    17   ar
     5    16    21    2
     6    17    18   ar
     7    17    23    1
     8    18    19   ar
     9    18    22    2
    10    19    20   ar
    11     6     7    1
    12     6    11    1
    13     7     8    1
    14     7     9    1
    15     8    13    1
    16     9    10    1
    17     9    12    1
    18    10    11    1
    19    10     5    1
    20    12    14    1
    21     5     4    1
    22     4     1    1
    23     1     2    2
    24     1     3    1
    25     1    24    1
    26    24    25    1
    27    25    26    2
    28    25    27    1
    29    25    28    1
    30    28    29    1
    31    29    30    1
    32    29    37    1
    33    30    31    1
    34    30    34    1
    35    31    32    1
    36    31    35    1
    37    32    33    1
    38    32    36    1
    39    33    41    1
    40    33    37    1
    41    41    42    1
    42    34    38    1
    43    35    39    1
    44    36    40    1
    45    42    43    1
@<TRIPOS>MOLECULE
GDU
 43 45 0 0 0
SMALL
GASTEIGER

@<TRIPOS>ATOM
      1 P          20.6833   70.6593   -2.2117 P.3     1  UNL1        0.2189
      2 O          21.4661   69.4506   -2.5518 O.2     1  UNL1       -0.5170
      3 O          21.3966   71.9564   -2.8456 O.3     1  UNL1       -0.4371
      4 O          19.1954   70.5206   -2.8065 O.3     1  UNL1       -0.3112
      5 C          18.6081   71.8219   -2.7597 C.3     1  UNL1        0.1811
      6 C          19.0014   72.7146   -6.2203 C.3     1  UNL1        0.2383
      7 C          18.8337   71.1736   -6.2326 C.3     1  UNL1        0.1895
      8 O          18.1999   70.7392   -7.4379 O.3     1  UNL1       -0.3779
      9 C          17.9128   70.9372   -5.0072 C.3     1  UNL1        0.1713
     10 C          18.0977   72.2034   -4.1504 C.3     1  UNL1        0.1764
     11 O          19.0647   73.0354   -4.8144 O.3     1  UNL1       -0.3308
     12 O          16.5526   70.8008   -5.4234 O.3     1  UNL1       -0.3794
     13 H          18.1261   69.7762   -7.3827 H       1  UNL1        0.2106
     14 H          16.5131   70.0276   -6.0025 H       1  UNL1        0.2105
     15 N          20.2400   73.1062   -6.8950 N.ar    1  UNL1       -0.2551
     16 C          20.7858   72.2898   -7.8137 C.ar    1  UNL1        0.3323
     17 N          21.9222   72.6278   -8.4511 N.ar    1  UNL1       -0.2743
     18 C          22.5393   73.7915   -8.1697 C.ar    1  UNL1        0.2626
     19 C          21.9790   74.6587   -7.2001 C.ar    1  UNL1        0.0795
     20 C          20.8362   74.2973   -6.5789 C.ar    1  UNL1        0.0869
     21 O          20.2403   71.2370   -8.0783 O.2     1  UNL1       -0.2464
     22 O          23.5706   74.0961   -8.7427 O.2     1  UNL1       -0.2670
     23 H          22.2998   72.0284   -9.1144 H       1  UNL1        0.1734
     24 O          20.6102   70.8173   -0.6110 O.3     1  UNL1       -0.2703
     25 P          22.0914   70.5393   -0.0465 P.3     1  UNL1        0.2208
     26 O          22.1320   69.2072    0.5962 O.2     1  UNL1       -0.5170
     27 O          23.1456   70.5797   -1.2635 O.3     1  UNL1       -0.4371
     28 O          22.4763   71.6691    1.0331 O.3     1  UNL1       -0.2858
     29 C          21.5154   72.7170    0.8976 C.3     1  UNL1        0.2704
     30 C          22.1996   73.9661    0.3400 C.3     1  UNL1        0.1967
     31 C          23.3255   74.3843    1.2907 C.3     1  UNL1        0.1715
     32 C          22.7455   74.5332    2.7017 C.3     1  UNL1        0.1694
     33 C          22.0211   73.2393    3.0812 C.3     1  UNL1        0.1761
     34 O          22.7424   73.6791   -0.9501 O.3     1  UNL1       -0.3775
     35 O          23.8778   75.6308    0.8620 O.3     1  UNL1       -0.3794
     36 O          21.8265   75.6262    2.7277 O.3     1  UNL1       -0.3794
     37 O          20.9461   73.0052    2.1725 O.3     1  UNL1       -0.3258
     38 H          22.0014   73.4140   -1.5118 H       1  UNL1        0.2106
     39 H          24.2185   75.4936   -0.0309 H       1  UNL1        0.2105
     40 H          22.3236   76.4159    2.4775 H       1  UNL1        0.2105
     41 C          21.4672   73.3647    4.5023 C.3     1  UNL1        0.1693
     42 O          20.0571   73.1364    4.4849 O.3     1  UNL1       -0.3794
     43 H          19.7482   73.2236    5.3972 H       1  UNL1        0.2105
@<TRIPOS>BOND
     1    15    16   ar
     2    15    20   ar
     3    15     6    1
     4    16    17   ar
     5    16    21    2
     6    17    18   ar
     7    17    23    1
     8    18    19   ar
     9    18    22    2
    10    19    20   ar
    11     6     7    1
    12     6    11    1
    13     7     8    1
    14     7     9    1
    15     8    13    1
    16     9    10    1
    17     9    12    1
    18    10    11    1
    19    10     5    1
    20    12    14    1
    21     5     4    1
    22     4     1    1
    23     1     2    2
    24     1     3    1
    25     1    24    1
    26    24    25    1
    27    25    26    2
    28    25    27    1
    29    25    28    1
    30    28    29    1
    31    29    30    1
    32    29    37    1
    33    30    31    1
    34    30    34    1
    35    31    32    1
    36    31    35    1
    37    32    33    1
    38    32    36    1
    39    33    41    1
    40    33    37    1
    41    41    42    1
    42    34    38    1
    43    35    39    1
    44    36    40    1
    45    42    43    1
@<TRIPOS>MOLECULE
GDU
 43 45 0 0 0
SMALL
GASTEIGER

@<TRIPOS>ATOM
      1 P          22.0092   70.3302   -0.3362 P.3     1  UNL1        0.2189
      2 O          22.6321   69.5419    0.7501 O.2     1  UNL1       -0.5170
      3 O          23.1417   71.1892   -1.0930 O.3     1  UNL1       -0.4371
      4 O          21.3007   69.3359   -1.3831 O.3     1  UNL1       -0.3112
      5 C          21.2799   70.0082   -2.6433 C.3     1  UNL1        0.1811
      6 C          18.5709   70.7308   -4.8942 C.3     1  UNL1        0.2383
      7 C          18.4113   69.2246   -4.5640 C.3     1  UNL1        0.1895
      8 O          17.0360   68.8369   -4.6034 O.3     1  UNL1       -0.3779
      9 C          18.9662   69.1485   -3.1178 C.3     1  UNL1        0.1713
     10 C          19.8437   70.4072   -2.9869 C.3     1  UNL1        0.1764
     11 O          19.8152   71.0859   -4.2545 O.3     1  UNL1       -0.3308
     12 O          17.8968   69.1752   -2.1703 O.3     1  UNL1       -0.3794
     13 H          17.0060   67.8938   -4.3905 H       1  UNL1        0.2106
     14 H          17.3516   68.3953   -2.3413 H       1  UNL1        0.2105
     15 N          18.6573   70.9376   -6.3408 N.ar    1  UNL1       -0.2551
     16 C          17.5310   71.0328   -7.0692 C.ar    1  UNL1        0.3323
     17 N          17.5826   71.2265   -8.4003 N.ar    1  UNL1       -0.2743
     18 C          18.7705   71.3186   -9.0284 C.ar    1  UNL1        0.2626
     19 C          19.9653   71.2143   -8.2748 C.ar    1  UNL1        0.0795
     20 C          19.8848   71.0245   -6.9406 C.ar    1  UNL1        0.0869
     21 O          16.4521   70.9522   -6.5165 O.2     1  UNL1       -0.2464
     22 O          18.8183   71.4891  -10.2339 O.2     1  UNL1       -0.2670
     23 H          16.7597   71.2972   -8.9097 H       1  UNL1        0.1734
     24 O          20.9094   71.3268    0.2881 O.3     1  UNL1       -0.2703
     25 P          21.4431   72.8248    0.0404 P.3     1  UNL1        0.2208
     26 O          20.3964   73.7928    0.4360 O.2     1  UNL1       -0.5170
     27 O          22.7666   73.0756    0.9233 O.3     1  UNL1       -0.4371
     28 O          21.7943   73.0197   -1.5180 O.3     1  UNL1       -0.2858
     29 C          21.6094   74.4044   -1.8151 C.3     1  UNL1        0.2704
     30 C          20.8780   74.5453   -3.1509 C.3     1  UNL1        0.1967
     31 C          21.7036   73.8629   -4.2459 C.3     1  UNL1        0.1715
     32 C          23.1250   74.4360   -4.2168 C.3     1  UNL1        0.1694
     33 C          23.6871   74.3014   -2.7995 C.3     1  UNL1        0.1761
     34 O          19.5939   73.9255   -3.0612 O.3     1  UNL1       -0.3775
     35 O          21.1089   74.1120   -5.5213 O.3     1  UNL1       -0.3794
     36 O          23.0927   75.8131   -4.5944 O.3     1  UNL1       -0.3794
     37 O          22.8801   75.0466   -1.8888 O.3     1  UNL1       -0.3258
     38 H          19.1128   74.3809   -2.3568 H       1  UNL1        0.2106
     39 H          20.2157   73.7466   -5.4897 H       1  UNL1        0.2105
     40 H          22.7277   75.8498   -5.4881 H       1  UNL1        0.2105
     41 C          25.1193   74.8397   -2.7674 C.3     1  UNL1        0.1693
     42 O          25.7686   74.5375   -4.0036 O.3     1  UNL1       -0.3794
     43 H          26.6658   74.8934   -3.9427 H       1  UNL1        0.2105
@<TRIPOS>BOND
     1    15    16   ar
     2    15    20   ar
     3    15     6    1
     4    16    17   ar
     5    16    21    2
     6    17    18   ar
     7    17    23    1
     8    18    19   ar
     9    18    22    2
    10    19    20   ar
    11     6     7    1
    12     6    11    1
    13     7     8    1
    14     7     9    1
    15     8    13    1
    16     9    10    1
    17     9    12    1
    18    10    11    1
    19    10     5    1
    20    12    14    1
    21     5     4    1
    22     4     1    1
    23     1     2    2
    24     1     3    1
    25     1    24    1
    26    24    25    1
    27    25    26    2
    28    25    27    1
    29    25    28    1
    30    28    29    1
    31    29    30    1
    32    29    37    1
    33    30    31    1
    34    30    34    1
    35    31    32    1
    36    31    35    1
    37    32    33    1
    38    32    36    1
    39    33    41    1
    40    33    37    1
    41    41    42    1
    42    34    38    1
    43    35    39    1
    44    36    40    1
    45    42    43    1
@<TRIPOS>MOLECULE
GDU
 43 45 0 0 0
SMALL
GASTEIGER

@<TRIPOS>ATOM
      1 P          21.7986   70.5533   -1.1325 P.3     1  UNL1        0.2189
      2 O          21.1952   69.6994   -0.0855 O.2     1  UNL1       -0.5170
      3 O          23.4036   70.4844   -1.0221 O.3     1  UNL1       -0.4371
      4 O          21.3376   70.0319   -2.5825 O.3     1  UNL1       -0.3112
      5 C          19.9394   69.7527   -2.4966 C.3     1  UNL1        0.1811
      6 C          18.4576   71.7798   -5.0699 C.3     1  UNL1        0.2383
      7 C          17.3254   70.8145   -4.6348 C.3     1  UNL1        0.1895
      8 O          16.0443   71.4304   -4.7853 O.3     1  UNL1       -0.3779
      9 C          17.6547   70.5818   -3.1372 C.3     1  UNL1        0.1713
     10 C          19.1452   70.9508   -3.0200 C.3     1  UNL1        0.1764
     11 O          19.6059   71.3051   -4.3354 O.3     1  UNL1       -0.3308
     12 O          16.8555   71.4317   -2.3120 O.3     1  UNL1       -0.3794
     13 H          15.3872   70.7806   -4.4994 H       1  UNL1        0.2106
     14 H          15.9329   71.1923   -2.4739 H       1  UNL1        0.2105
     15 N          18.6926   71.6859   -6.5117 N.ar    1  UNL1       -0.2551
     16 C          18.0703   72.5376   -7.3457 C.ar    1  UNL1        0.3323
     17 N          18.2717   72.4748   -8.6751 N.ar    1  UNL1       -0.2743
     18 C          19.0973   71.5460   -9.1947 C.ar    1  UNL1        0.2626
     19 C          19.7552   70.6385   -8.3287 C.ar    1  UNL1        0.0795
     20 C          19.5386   70.7262   -6.9991 C.ar    1  UNL1        0.0869
     21 O          17.3231   73.3812   -6.8917 O.2     1  UNL1       -0.2464
     22 O          19.2766   71.4853  -10.3983 O.2     1  UNL1       -0.2670
     23 H          17.8176   73.1003   -9.2619 H       1  UNL1        0.1734
     24 O          21.3129   72.0748   -0.9286 O.3     1  UNL1       -0.2703
     25 P          22.1443   72.6673    0.3155 P.3     1  UNL1        0.2208
     26 O          22.6758   71.5518    1.1293 O.2     1  UNL1       -0.5170
     27 O          23.3669   73.5607   -0.2331 O.3     1  UNL1       -0.4371
     28 O          21.1779   73.5810    1.2218 O.3     1  UNL1       -0.2858
     29 C          21.8754   73.8404    2.4408 C.3     1  UNL1        0.2704
     30 C          21.0809   73.2650    3.6143 C.3     1  UNL1        0.1967
     31 C          19.6911   73.9087    3.6388 C.3     1  UNL1        0.1715
     32 C          19.8569   75.4325    3.6480 C.3     1  UNL1        0.1694
     33 C          20.7433   75.8439    2.4699 C.3     1  UNL1        0.1761
     34 O          20.9522   71.8508    3.4576 O.3     1  UNL1       -0.3775
     35 O          18.9898   73.4925    4.8125 O.3     1  UNL1       -0.3794
     36 O          20.4649   75.8396    4.8746 O.3     1  UNL1       -0.3794
     37 O          22.0325   75.2477    2.6062 O.3     1  UNL1       -0.3258
     38 H          21.8489   71.4893    3.4402 H       1  UNL1        0.2106
     39 H          18.9196   72.5305    4.7701 H       1  UNL1        0.2105
     40 H          19.8767   75.5555    5.5864 H       1  UNL1        0.2105
     41 C          20.8873   77.3673    2.4497 C.3     1  UNL1        0.1693
     42 O          22.2712   77.7151    2.5202 O.3     1  UNL1       -0.3794
     43 H          22.3182   78.6809    2.5042 H       1  UNL1        0.2105
@<TRIPOS>BOND
     1    15    16   ar
     2    15    20   ar
     3    15     6    1
     4    16    17   ar
     5    16    21    2
     6    17    18   ar
     7    17    23    1
     8    18    19   ar
     9    18    22    2
    10    19    20   ar
    11     6     7    1
    12     6    11    1
    13     7     8    1
    14     7     9    1
    15     8    13    1
    16     9    10    1
    17     9    12    1
    18    10    11    1
    19    10     5    1
    20    12    14    1
    21     5     4    1
    22     4     1    1
    23     1     2    2
    24     1     3    1
    25     1    24    1
    26    24    25    1
    27    25    26    2
    28    25    27    1
    29    25    28    1
    30    28    29    1
    31    29    30    1
    32    29    37    1
    33    30    31    1
    34    30    34    1
    35    31    32    1
    36    31    35    1
    37    32    33    1
    38    32    36    1
    39    33    41    1
    40    33    37    1
    41    41    42    1
    42    34    38    1
    43    35    39    1
    44    36    40    1
    45    42    43    1
@<TRIPOS>MOLECULE
GDU
 43 45 0 0 0
SMALL
GASTEIGER

@<TRIPOS>ATOM
      1 P          19.3942   70.5583   -2.9053 P.3     1  UNL1        0.2189
      2 O          19.8630   69.3416   -2.2058 O.2     1  UNL1       -0.5170
      3 O          17.9279   70.9537   -2.3698 O.3     1  UNL1       -0.4371
      4 O          20.4142   71.7686   -2.6197 O.3     1  UNL1       -0.3112
      5 C          20.3552   72.0374   -1.2180 C.3     1  UNL1        0.1811
      6 C          22.7578   72.2333    1.4497 C.3     1  UNL1        0.2383
      7 C          22.4367   70.7218    1.3254 C.3     1  UNL1        0.1895
      8 O          23.5688   69.9285    1.6888 O.3     1  UNL1       -0.3779
      9 C          22.1241   70.5795   -0.1870 C.3     1  UNL1        0.1713
     10 C          21.7679   72.0101   -0.6318 C.3     1  UNL1        0.1764
     11 O          21.8298   72.8513    0.5330 O.3     1  UNL1       -0.3308
     12 O          23.2714   70.1003   -0.8913 O.3     1  UNL1       -0.3794
     13 H          23.3041   69.0032    1.5906 H       1  UNL1        0.2106
     14 H          23.4794   69.2289   -0.5280 H       1  UNL1        0.2105
     15 N          22.5222   72.7021    2.8163 N.ar    1  UNL1       -0.2551
     16 C          21.3278   72.4915    3.3970 C.ar    1  UNL1        0.3323
     17 N          21.0865   72.9093    4.6536 N.ar    1  UNL1       -0.2743
     18 C          22.0403   73.5575    5.3496 C.ar    1  UNL1        0.2626
     19 C          23.3014   73.7915    4.7486 C.ar    1  UNL1        0.0795
     20 C          23.5181   73.3581    3.4886 C.ar    1  UNL1        0.0869
     21 O          20.4578   71.9078    2.7818 O.2     1  UNL1       -0.2464
     22 O          21.8213   73.9402    6.4854 O.2     1  UNL1       -0.2670
     23 H          20.2201   72.7450    5.0586 H       1  UNL1        0.1734
     24 O          19.3270   70.2736   -4.4886 O.3     1  UNL1       -0.2703
     25 P          17.8901   70.7916   -4.9953 P.3     1  UNL1        0.2208
     26 O          16.8675   69.7592   -4.7167 O.2     1  UNL1       -0.5170
     27 O          17.5056   72.1500   -4.2200 O.3     1  UNL1       -0.4371
     28 O          17.9488   71.0768   -6.5781 O.3     1  UNL1       -0.2858
     29 C          17.8784   72.4932   -6.7474 C.3     1  UNL1        0.2704
     30 C          17.4909   72.8147   -8.1916 C.3     1  UNL1        0.1967
     31 C          18.5347   72.2085   -9.1347 C.3     1  UNL1        0.1715
     32 C          19.9234   72.6972   -8.7077 C.3     1  UNL1        0.1694
     33 C          20.1273   72.3825   -7.2237 C.3     1  UNL1        0.1761
     34 O          16.2058   72.2596   -8.4773 O.3     1  UNL1       -0.3775
     35 O          18.2684   72.6236  -10.4761 O.3     1  UNL1       -0.3794
     36 O          20.0202   74.1063   -8.9200 O.3     1  UNL1       -0.3794
     37 O          19.1473   73.0696   -6.4469 O.3     1  UNL1       -0.3258
     38 H          15.5834   72.6632   -7.8570 H       1  UNL1        0.2106
     39 H          17.3837   72.3060  -10.6969 H       1  UNL1        0.2105
     40 H          19.8800   74.2574   -9.8638 H       1  UNL1        0.2105
     41 C          21.5248   72.8357   -6.7953 C.3     1  UNL1        0.1693
     42 O          21.6444   72.7305   -5.3756 O.3     1  UNL1       -0.3794
     43 H          22.5372   73.0240   -5.1474 H       1  UNL1        0.2105
@<TRIPOS>BOND
     1    15    16   ar
     2    15    20   ar
     3    15     6    1
     4    16    17   ar
     5    16    21    2
     6    17    18   ar
     7    17    23    1
     8    18    19   ar
     9    18    22    2
    10    19    20   ar
    11     6     7    1
    12     6    11    1
    13     7     8    1
    14     7     9    1
    15     8    13    1
    16     9    10    1
    17     9    12    1
    18    10    11    1
    19    10     5    1
    20    12    14    1
    21     5     4    1
    22     4     1    1
    23     1     2    2
    24     1     3    1
    25     1    24    1
    26    24    25    1
    27    25    26    2
    28    25    27    1
    29    25    28    1
    30    28    29    1
    31    29    30    1
    32    29    37    1
    33    30    31    1
    34    30    34    1
    35    31    32    1
    36    31    35    1
    37    32    33    1
    38    32    36    1
    39    33    41    1
    40    33    37    1
    41    41    42    1
    42    34    38    1
    43    35    39    1
    44    36    40    1
    45    42    43    1
@<TRIPOS>MOLECULE
GDU
 43 45 0 0 0
SMALL
GASTEIGER

@<TRIPOS>ATOM
      1 P          22.3746   71.0387   -1.9604 P.3     1  UNL1        0.2189
      2 O          21.6361   69.7614   -1.8487 O.2     1  UNL1       -0.5170
      3 O          23.4848   70.9170   -3.1204 O.3     1  UNL1       -0.4371
      4 O          21.3480   72.2228   -2.3222 O.3     1  UNL1       -0.3112
      5 C          20.0792   71.6117   -2.5612 C.3     1  UNL1        0.1811
      6 C          19.5885   73.3040   -5.6953 C.3     1  UNL1        0.2383
      7 C          18.9816   71.8946   -5.9150 C.3     1  UNL1        0.1895
      8 O          17.8977   71.9455   -6.8454 O.3     1  UNL1       -0.3779
      9 C          18.4745   71.5343   -4.4943 C.3     1  UNL1        0.1713
     10 C          19.2864   72.4534   -3.5628 C.3     1  UNL1        0.1764
     11 O          20.1893   73.2118   -4.3861 O.3     1  UNL1       -0.3308
     12 O          17.0760   71.8041   -4.3797 O.3     1  UNL1       -0.3794
     13 H          17.5664   71.0413   -6.9374 H       1  UNL1        0.2106
     14 H          16.6284   71.2426   -5.0271 H       1  UNL1        0.2105
     15 N          20.6035   73.5946   -6.7093 N.ar    1  UNL1       -0.2551
     16 C          21.8123   73.0108   -6.6293 C.ar    1  UNL1        0.3323
     17 N          22.7620   73.2582   -7.5506 N.ar    1  UNL1       -0.2743
     18 C          22.5182   74.1071   -8.5675 C.ar    1  UNL1        0.2626
     19 C          21.2514   74.7338   -8.6613 C.ar    1  UNL1        0.0795
     20 C          20.3156   74.4647   -7.7263 C.ar    1  UNL1        0.0869
     21 O          22.0467   72.2424   -5.7179 O.2     1  UNL1       -0.2464
     22 O          23.3789   74.3353   -9.3992 O.2     1  UNL1       -0.2670
     23 H          23.6274   72.8248   -7.4797 H       1  UNL1        0.1734
     24 O          23.0981   71.3635   -0.5591 O.3     1  UNL1       -0.2703
     25 P          22.2269   70.6519    0.5918 P.3     1  UNL1        0.2208
     26 O          21.3897   69.5902   -0.0089 O.2     1  UNL1       -0.5170
     27 O          23.2132   70.0018    1.6866 O.3     1  UNL1       -0.4371
     28 O          21.2822   71.7434    1.3034 O.3     1  UNL1       -0.2858
     29 C          22.1449   72.7058    1.9111 C.3     1  UNL1        0.2704
     30 C          21.8302   72.8001    3.4049 C.3     1  UNL1        0.1967
     31 C          20.3626   73.2020    3.5809 C.3     1  UNL1        0.1715
     32 C          20.1054   74.4822    2.7780 C.3     1  UNL1        0.1694
     33 C          20.5494   74.2593    1.3301 C.3     1  UNL1        0.1761
     34 O          22.0583   71.5325    4.0231 O.3     1  UNL1       -0.3775
     35 O          20.0919   73.4375    4.9643 O.3     1  UNL1       -0.3794
     36 O          20.8463   75.5615    3.3492 O.3     1  UNL1       -0.3794
     37 O          21.9473   73.9755    1.2936 O.3     1  UNL1       -0.3258
     38 H          22.9902   71.3168    3.8817 H       1  UNL1        0.2106
     39 H          20.2780   72.6126    5.4302 H       1  UNL1        0.2105
     40 H          20.5384   75.6613    4.2595 H       1  UNL1        0.2105
     41 C          20.2652   75.5206    0.5114 C.3     1  UNL1        0.1693
     42 O          19.7053   76.5231    1.3614 O.3     1  UNL1       -0.3794
     43 H          19.5420   77.2996    0.8085 H       1  UNL1        0.2105
@<TRIPOS>BOND
     1    15    16   ar
     2    15    20   ar
     3    15     6    1
     4    16    17   ar
     5    16    21    2
     6    17    18   ar
     7    17    23    1
     8    18    19   ar
     9    18    22    2
    10    19    20   ar
    11     6     7    1
    12     6    11    1
    13     7     8    1
    14     7     9    1
    15     8    13    1
    16     9    10    1
    17     9    12    1
    18    10    11    1
    19    10     5    1
    20    12    14    1
    21     5     4    1
    22     4     1    1
    23     1     2    2
    24     1     3    1
    25     1    24    1
    26    24    25    1
    27    25    26    2
    28    25    27    1
    29    25    28    1
    30    28    29    1
    31    29    30    1
    32    29    37    1
    33    30    31    1
    34    30    34    1
    35    31    32    1
    36    31    35    1
    37    32    33    1
    38    32    36    1
    39    33    41    1
    40    33    37    1
    41    41    42    1
    42    34    38    1
    43    35    39    1
    44    36    40    1
    45    42    43    1
@<TRIPOS>MOLECULE
GDU
 43 45 0 0 0
SMALL
GASTEIGER

@<TRIPOS>ATOM
      1 P          21.5664   71.2250   -1.9770 P.3     1  UNL1        0.2189
      2 O          22.2687   71.1543   -3.2775 O.2     1  UNL1       -0.5170
      3 O          22.0346   69.9967   -1.0469 O.3     1  UNL1       -0.4371
      4 O          21.9218   72.6148   -1.2495 O.3     1  UNL1       -0.3112
      5 C          20.7430   73.4202   -1.2974 C.3     1  UNL1        0.1811
      6 C          21.0613   74.1591    2.2069 C.3     1  UNL1        0.2383
      7 C          20.7535   75.5276    1.5471 C.3     1  UNL1        0.1895
      8 O          20.0296   76.3742    2.4429 O.3     1  UNL1       -0.3779
      9 C          19.8705   75.1152    0.3406 C.3     1  UNL1        0.1713
     10 C          20.2080   73.6289    0.1205 C.3     1  UNL1        0.1764
     11 O          21.2163   73.2694    1.0809 O.3     1  UNL1       -0.3308
     12 O          18.4863   75.2795    0.6553 O.3     1  UNL1       -0.3794
     13 H          19.8708   77.2054    1.9740 H       1  UNL1        0.2106
     14 H          18.3507   76.2188    0.8401 H       1  UNL1        0.2105
     15 N          22.2992   74.2262    2.9854 N.ar    1  UNL1       -0.2551
     16 C          22.3148   73.7782    4.2532 C.ar    1  UNL1        0.3323
     17 N          23.4406   73.8253    4.9895 N.ar    1  UNL1       -0.2743
     18 C          24.5735   74.3340    4.4678 C.ar    1  UNL1        0.2626
     19 C          24.5704   74.8149    3.1355 C.ar    1  UNL1        0.0795
     20 C          23.4287   74.7519    2.4179 C.ar    1  UNL1        0.0869
     21 O          21.3007   73.3162    4.7373 O.2     1  UNL1       -0.2464
     22 O          25.5918   74.3814    5.1350 O.2     1  UNL1       -0.2670
     23 H          23.4349   73.4936    5.9014 H       1  UNL1        0.1734
     24 O          19.9773   71.1365   -2.2207 O.3     1  UNL1       -0.2703
     25 P          19.6956   69.7330   -2.9563 P.3     1  UNL1        0.2208
     26 O          20.8761   68.8533   -2.8088 O.2     1  UNL1       -0.5170
     27 O          18.4126   69.0251   -2.2878 O.3     1  UNL1       -0.4371
     28 O          19.4104   69.9925   -4.5187 O.3     1  UNL1       -0.2858
     29 C          18.7581   71.2593   -4.6167 C.3     1  UNL1        0.2704
     30 C          17.3342   71.0598   -5.1382 C.3     1  UNL1        0.1967
     31 C          17.3959   70.3759   -6.5075 C.3     1  UNL1        0.1715
     32 C          18.3170   71.1917   -7.4216 C.3     1  UNL1        0.1694
     33 C          19.6681   71.3796   -6.7271 C.3     1  UNL1        0.1761
     34 O          16.6004   70.2415   -4.2254 O.3     1  UNL1       -0.3775
     35 O          16.0850   70.3154   -7.0734 O.3     1  UNL1       -0.3794
     36 O          17.7263   72.4661   -7.6808 O.3     1  UNL1       -0.3794
     37 O          19.4870   72.0995   -5.5086 O.3     1  UNL1       -0.3258
     38 H          16.5934   70.7063   -3.3776 H       1  UNL1        0.2106
     39 H          15.5393   69.8053   -6.4615 H       1  UNL1        0.2105
     40 H          16.8780   72.2989   -8.1118 H       1  UNL1        0.2105
     41 C          20.6073   72.1640   -7.6462 C.3     1  UNL1        0.1693
     42 O          20.3987   71.7559   -8.9993 O.3     1  UNL1       -0.3794
     43 H          21.0075   72.2730   -9.5446 H       1  UNL1        0.2105
@<TRIPOS>BOND
     1    15    16   ar
     2    15    20   ar
     3    15     6    1
     4    16    17   ar
     5    16    21    2
     6    17    18   ar
     7    17    23    1
     8    18    19   ar
     9    18    22    2
    10    19    20   ar
    11     6     7    1
    12     6    11    1
    13     7     8    1
    14     7     9    1
    15     8    13    1
    16     9    10    1
    17     9    12    1
    18    10    11    1
    19    10     5    1
    20    12    14    1
    21     5     4    1
    22     4     1    1
    23     1     2    2
    24     1     3    1
    25     1    24    1
    26    24    25    1
    27    25    26    2
    28    25    27    1
    29    25    28    1
    30    28    29    1
    31    29    30    1
    32    29    37    1
    33    30    31    1
    34    30    34    1
    35    31    32    1
    36    31    35    1
    37    32    33    1
    38    32    36    1
    39    33    41    1
    40    33    37    1
    41    41    42    1
    42    34    38    1
    43    35    39    1
    44    36    40    1
    45    42    43    1
@<TRIPOS>MOLECULE
GDU
 43 45 0 0 0
SMALL
GASTEIGER

@<TRIPOS>ATOM
      1 P          21.7449   70.5590   -0.5339 P.3     1  UNL1        0.2189
      2 O          23.0965   70.4755   -1.1302 O.2     1  UNL1       -0.5170
      3 O          21.6533   69.5646    0.7293 O.3     1  UNL1       -0.4371
      4 O          21.4631   72.0671   -0.0512 O.3     1  UNL1       -0.3112
      5 C          22.7155   72.7534   -0.0856 C.3     1  UNL1        0.1811
      6 C          22.4818   75.1583    2.5769 C.3     1  UNL1        0.2383
      7 C          23.9815   75.1567    2.1845 C.3     1  UNL1        0.1895
      8 O          24.5668   76.4426    2.4018 O.3     1  UNL1       -0.3779
      9 C          23.9208   74.8253    0.6707 C.3     1  UNL1        0.1713
     10 C          22.5435   74.1611    0.4879 C.3     1  UNL1        0.1764
     11 O          21.9250   74.0883    1.7841 O.3     1  UNL1       -0.3308
     12 O          24.0143   76.0208   -0.1066 O.3     1  UNL1       -0.3794
     13 H          25.4955   76.3741    2.1397 H       1  UNL1        0.2106
     14 H          24.8713   76.4200    0.0957 H       1  UNL1        0.2105
     15 N          22.3198   74.8803    4.0050 N.ar    1  UNL1       -0.2551
     16 C          22.3674   73.6112    4.4469 C.ar    1  UNL1        0.3323
     17 N          22.2249   73.3287    5.7552 N.ar    1  UNL1       -0.2743
     18 C          22.0213   74.3181    6.6463 C.ar    1  UNL1        0.2626
     19 C          21.9632   75.6592    6.1944 C.ar    1  UNL1        0.0795
     20 C          22.1135   75.9149    4.8774 C.ar    1  UNL1        0.0869
     21 O          22.5508   72.7081    3.6551 O.2     1  UNL1       -0.2464
     22 O          21.8875   74.0630    7.8301 O.2     1  UNL1       -0.2670
     23 H          22.2662   72.4073    6.0571 H       1  UNL1        0.1734
     24 O          20.6476   70.1318   -1.6321 O.3     1  UNL1       -0.2703
     25 P          21.0871   70.8153   -3.0213 P.3     1  UNL1        0.2208
     26 O          21.0935   72.2867   -2.8665 O.2     1  UNL1       -0.5170
     27 O          22.5634   70.3121   -3.4232 O.3     1  UNL1       -0.4371
     28 O          20.0469   70.4008   -4.1772 O.3     1  UNL1       -0.2858
     29 C          18.8381   71.1180   -3.9244 C.3     1  UNL1        0.2704
     30 C          17.6726   70.1325   -3.8255 C.3     1  UNL1        0.1967
     31 C          17.5712   69.3469   -5.1366 C.3     1  UNL1        0.1715
     32 C          17.4868   70.3424   -6.2991 C.3     1  UNL1        0.1694
     33 C          18.6684   71.3115   -6.2114 C.3     1  UNL1        0.1761
     34 O          17.8995   69.2301   -2.7414 O.3     1  UNL1       -0.3775
     35 O          16.4000   68.5282   -5.1164 O.3     1  UNL1       -0.3794
     36 O          16.2598   71.0690   -6.2178 O.3     1  UNL1       -0.3794
     37 O          18.6036   72.0400   -4.9862 O.3     1  UNL1       -0.3258
     38 H          17.9637   69.7672   -1.9400 H       1  UNL1        0.2106
     39 H          16.4908   67.9282   -4.3653 H       1  UNL1        0.2105
     40 H          15.5462   70.4200   -6.2711 H       1  UNL1        0.2105
     41 C          18.6126   72.2889   -7.3876 C.3     1  UNL1        0.1693
     42 O          18.8364   71.5788   -8.6069 O.3     1  UNL1       -0.3794
     43 H          18.7926   72.2289   -9.3215 H       1  UNL1        0.2105
@<TRIPOS>BOND
     1    15    16   ar
     2    15    20   ar
     3    15     6    1
     4    16    17   ar
     5    16    21    2
     6    17    18   ar
     7    17    23    1
     8    18    19   ar
     9    18    22    2
    10    19    20   ar
    11     6     7    1
    12     6    11    1
    13     7     8    1
    14     7     9    1
    15     8    13    1
    16     9    10    1
    17     9    12    1
    18    10    11    1
    19    10     5    1
    20    12    14    1
    21     5     4    1
    22     4     1    1
    23     1     2    2
    24     1     3    1
    25     1    24    1
    26    24    25    1
    27    25    26    2
    28    25    27    1
    29    25    28    1
    30    28    29    1
    31    29    30    1
    32    29    37    1
    33    30    31    1
    34    30    34    1
    35    31    32    1
    36    31    35    1
    37    32    33    1
    38    32    36    1
    39    33    41    1
    40    33    37    1
    41    41    42    1
    42    34    38    1
    43    35    39    1
    44    36    40    1
    45    42    43    1
@<TRIPOS>MOLECULE
GDU
 43 45 0 0 0
SMALL
GASTEIGER

@<TRIPOS>ATOM
      1 P          22.0385   70.5246   -0.2808 P.3     1  UNL1        0.2189
      2 O          23.3737   70.5735   -0.9167 O.2     1  UNL1       -0.5170
      3 O          22.0357   69.4042    0.8758 O.3     1  UNL1       -0.4371
      4 O          21.6965   71.9592    0.3610 O.3     1  UNL1       -0.3112
      5 C          22.1043   71.9083    1.7290 C.3     1  UNL1        0.1811
      6 C          21.3742   75.0621    3.2935 C.3     1  UNL1        0.2383
      7 C          21.9496   74.1855    4.4351 C.3     1  UNL1        0.1895
      8 O          22.6377   74.9882    5.3971 O.3     1  UNL1       -0.3779
      9 C          22.9391   73.2668    3.6720 C.3     1  UNL1        0.1713
     10 C          22.4482   73.3180    2.2133 C.3     1  UNL1        0.1764
     11 O          21.2722   74.1453    2.1833 O.3     1  UNL1       -0.3308
     12 O          24.2717   73.7719    3.7766 O.3     1  UNL1       -0.3794
     13 H          22.9695   74.3854    6.0771 H       1  UNL1        0.2106
     14 H          24.4990   73.7701    4.7163 H       1  UNL1        0.2105
     15 N          20.0547   75.5829    3.6552 N.ar    1  UNL1       -0.2551
     16 C          19.0824   74.7332    4.0306 C.ar    1  UNL1        0.3323
     17 N          17.8617   75.1864    4.3715 N.ar    1  UNL1       -0.2743
     18 C          17.5905   76.5052    4.3321 C.ar    1  UNL1        0.2626
     19 C          18.6032   77.4114    3.9331 C.ar    1  UNL1        0.0795
     20 C          19.8200   76.9305    3.6005 C.ar    1  UNL1        0.0869
     21 O          19.3123   73.5409    4.0714 O.2     1  UNL1       -0.2464
     22 O          16.4844   76.9159    4.6359 O.2     1  UNL1       -0.2670
     23 H          17.1731   74.5593    4.6441 H       1  UNL1        0.1734
     24 O          20.9308   70.1530   -1.3887 O.3     1  UNL1       -0.2703
     25 P          21.3610   70.9003   -2.7476 P.3     1  UNL1        0.2208
     26 O          21.5076   72.3495   -2.4881 O.2     1  UNL1       -0.5170
     27 O          22.7642   70.3039   -3.2666 O.3     1  UNL1       -0.4371
     28 O          20.2318   70.6667   -3.8703 O.3     1  UNL1       -0.2858
     29 C          19.0279   71.2558   -3.3769 C.3     1  UNL1        0.2704
     30 C          17.9254   70.1968   -3.3290 C.3     1  UNL1        0.1967
     31 C          17.7139   69.6331   -4.7376 C.3     1  UNL1        0.1715
     32 C          17.4570   70.7993   -5.6986 C.3     1  UNL1        0.1694
     33 C          18.5971   71.8123   -5.5680 C.3     1  UNL1        0.1761
     34 O          18.3110   69.1441   -2.4435 O.3     1  UNL1       -0.3775
     35 O          16.5896   68.7509   -4.7379 O.3     1  UNL1       -0.3794
     36 O          16.2157   71.4247   -5.3700 O.3     1  UNL1       -0.3794
     37 O          18.6365   72.3237   -4.2365 O.3     1  UNL1       -0.3258
     38 H          18.4399   69.5449   -1.5730 H       1  UNL1        0.2106
     39 H          16.7897   68.0423   -4.1132 H       1  UNL1        0.2105
     40 H          15.5300   70.7502   -5.4601 H       1  UNL1        0.2105
     41 C          18.3678   72.9647   -6.5486 C.3     1  UNL1        0.1693
     42 O          17.6558   72.4835   -7.6898 O.3     1  UNL1       -0.3794
     43 H          17.5315   73.2386   -8.2810 H       1  UNL1        0.2105
@<TRIPOS>BOND
     1    15    16   ar
     2    15    20   ar
     3    15     6    1
     4    16    17   ar
     5    16    21    2
     6    17    18   ar
     7    17    23    1
     8    18    19   ar
     9    18    22    2
    10    19    20   ar
    11     6     7    1
    12     6    11    1
    13     7     8    1
    14     7     9    1
    15     8    13    1
    16     9    10    1
    17     9    12    1
    18    10    11    1
    19    10     5    1
    20    12    14    1
    21     5     4    1
    22     4     1    1
    23     1     2    2
    24     1     3    1
    25     1    24    1
    26    24    25    1
    27    25    26    2
    28    25    27    1
    29    25    28    1
    30    28    29    1
    31    29    30    1
    32    29    37    1
    33    30    31    1
    34    30    34    1
    35    31    32    1
    36    31    35    1
    37    32    33    1
    38    32    36    1
    39    33    41    1
    40    33    37    1
    41    41    42    1
    42    34    38    1
    43    35    39    1
    44    36    40    1
    45    42    43    1
