@<TRIPOS>MOLECULE
GDU
 43 45 0 0 0
SMALL
GASTEIGER

@<TRIPOS>ATOM
      1 P          22.1414   70.8184   -2.5673 P.3     1  UNL1        0.2189
      2 O          21.5227   69.5952   -2.0101 O.2     1  UNL1       -0.5170
      3 O          23.5444   70.4413   -3.2620 O.3     1  UNL1       -0.4371
      4 O          21.1577   71.4669   -3.6621 O.3     1  UNL1       -0.3112
      5 C          20.1558   72.1876   -2.9428 C.3     1  UNL1        0.1811
      6 C          18.0251   71.2772   -5.6921 C.3     1  UNL1        0.2383
      7 C          18.0711   70.0107   -4.7995 C.3     1  UNL1        0.1895
      8 O          16.8490   69.2754   -4.8944 O.3     1  UNL1       -0.3779
      9 C          18.2427   70.6178   -3.3828 C.3     1  UNL1        0.1713
     10 C          18.8064   72.0267   -3.6451 C.3     1  UNL1        0.1764
     11 O          18.9759   72.1650   -5.0665 O.3     1  UNL1       -0.3308
     12 O          16.9816   70.6925   -2.7151 O.3     1  UNL1       -0.3794
     13 H          16.9425   68.5036   -4.3187 H       1  UNL1        0.2106
     14 H          16.6538   69.7866   -2.6334 H       1  UNL1        0.2105
     15 N          18.4375   70.9616   -7.0608 N.ar    1  UNL1       -0.2551
     16 C          17.5076   70.6642   -7.9856 C.ar    1  UNL1        0.3323
     17 N          17.8599   70.3738   -9.2518 N.ar    1  UNL1       -0.2743
     18 C          19.1577   70.3669   -9.6121 C.ar    1  UNL1        0.2626
     19 C          20.1485   70.6726   -8.6471 C.ar    1  UNL1        0.0795
     20 C          19.7674   70.9644   -7.3853 C.ar    1  UNL1        0.0869
     21 O          16.3329   70.6669   -7.6756 O.2     1  UNL1       -0.2464
     22 O          19.4778   70.0995  -10.7568 O.2     1  UNL1       -0.2670
     23 H          17.1752   70.1657   -9.9074 H       1  UNL1        0.1734
     24 O          22.3987   71.8765   -1.3813 O.3     1  UNL1       -0.2703
     25 P          22.3683   71.0480   -0.0020 P.3     1  UNL1        0.2208
     26 O          21.0806   70.3286    0.1127 O.2     1  UNL1       -0.5170
     27 O          23.5790   69.9858    0.0125 O.3     1  UNL1       -0.4371
     28 O          22.5303   72.0614    1.2377 O.3     1  UNL1       -0.2858
     29 C          21.2141   72.4617    1.6212 C.3     1  UNL1        0.2704
     30 C          20.9728   73.9065    1.1810 C.3     1  UNL1        0.1967
     31 C          22.0243   74.8089    1.8339 C.3     1  UNL1        0.1715
     32 C          21.9979   74.5755    3.3486 C.3     1  UNL1        0.1694
     33 C          22.1636   73.0790    3.6246 C.3     1  UNL1        0.1761
     34 O          21.0782   73.9975   -0.2410 O.3     1  UNL1       -0.3775
     35 O          21.7248   76.1774    1.5513 O.3     1  UNL1       -0.3794
     36 O          20.7524   75.0293    3.8804 O.3     1  UNL1       -0.3794
     37 O          21.0814   72.3584    3.0369 O.3     1  UNL1       -0.3258
     38 H          20.4044   73.4096   -0.6088 H       1  UNL1        0.2106
     39 H          21.7406   76.2748    0.5908 H       1  UNL1        0.2105
     40 H          20.6888   75.9719    3.6787 H       1  UNL1        0.2105
     41 C          22.1730   72.8388    5.1360 C.3     1  UNL1        0.1693
     42 O          23.2350   73.5876    5.7298 O.3     1  UNL1       -0.3794
     43 H          23.2057   73.4096    6.6799 H       1  UNL1        0.2105
@<TRIPOS>BOND
     1    15    16   ar
     2    15    20   ar
     3    15     6    1
     4    16    17   ar
     5    16    21    2
     6    17    18   ar
     7    17    23    1
     8    18    19   ar
     9    18    22    2
    10    19    20   ar
    11     6     7    1
    12     6    11    1
    13     7     8    1
    14     7     9    1
    15     8    13    1
    16     9    10    1
    17     9    12    1
    18    10    11    1
    19    10     5    1
    20    12    14    1
    21     5     4    1
    22     4     1    1
    23     1     2    2
    24     1     3    1
    25     1    24    1
    26    24    25    1
    27    25    26    2
    28    25    27    1
    29    25    28    1
    30    28    29    1
    31    29    30    1
    32    29    37    1
    33    30    31    1
    34    30    34    1
    35    31    32    1
    36    31    35    1
    37    32    33    1
    38    32    36    1
    39    33    41    1
    40    33    37    1
    41    41    42    1
    42    34    38    1
    43    35    39    1
    44    36    40    1
    45    42    43    1
@<TRIPOS>MOLECULE
GDU
 43 45 0 0 0
SMALL
GASTEIGER

@<TRIPOS>ATOM
      1 P          22.1238   70.9643   -2.5764 P.3     1  UNL1        0.2189
      2 O          21.5465   69.6259   -2.3216 O.2     1  UNL1       -0.5170
      3 O          23.5717   70.8025   -3.2622 O.3     1  UNL1       -0.4371
      4 O          21.1538   71.7893   -3.5590 O.3     1  UNL1       -0.3112
      5 C          20.1532   72.3957   -2.7395 C.3     1  UNL1        0.1811
      6 C          17.9199   71.3837   -5.3692 C.3     1  UNL1        0.2383
      7 C          18.0445   70.1331   -4.4618 C.3     1  UNL1        0.1895
      8 O          16.8406   69.3629   -4.4869 O.3     1  UNL1       -0.3779
      9 C          18.2665   70.7669   -3.0638 C.3     1  UNL1        0.1713
     10 C          18.7768   72.1866   -3.3733 C.3     1  UNL1        0.1764
     11 O          18.8740   72.3071   -4.8031 O.3     1  UNL1       -0.3308
     12 O          17.0372   70.8172   -2.3371 O.3     1  UNL1       -0.3794
     13 H          16.9835   68.6031   -3.9054 H       1  UNL1        0.2106
     14 H          16.7395   69.9040   -2.2267 H       1  UNL1        0.2105
     15 N          18.2750   71.0581   -6.7515 N.ar    1  UNL1       -0.2551
     16 C          17.3101   70.7266   -7.6275 C.ar    1  UNL1        0.3323
     17 N          17.6094   70.4263   -8.9050 N.ar    1  UNL1       -0.2743
     18 C          18.8888   70.4438   -9.3259 C.ar    1  UNL1        0.2626
     19 C          19.9162   70.7856   -8.4128 C.ar    1  UNL1        0.0795
     20 C          19.5879   71.0865   -7.1384 C.ar    1  UNL1        0.0869
     21 O          16.1515   70.7069   -7.2626 O.2     1  UNL1       -0.2464
     22 O          19.1611   70.1675  -10.4809 O.2     1  UNL1       -0.2670
     23 H          16.8999   70.1934   -9.5248 H       1  UNL1        0.1734
     24 O          22.2771   71.7558   -1.1827 O.3     1  UNL1       -0.2703
     25 P          21.9436   70.7050   -0.0102 P.3     1  UNL1        0.2208
     26 O          20.9183   69.7484   -0.4823 O.2     1  UNL1       -0.5170
     27 O          23.2824   69.9029    0.3879 O.3     1  UNL1       -0.4371
     28 O          21.3895   71.4946    1.2780 O.3     1  UNL1       -0.2858
     29 C          22.4707   72.2820    1.7788 C.3     1  UNL1        0.2704
     30 C          22.2049   72.6401    3.2419 C.3     1  UNL1        0.1967
     31 C          20.8852   73.4124    3.3343 C.3     1  UNL1        0.1715
     32 C          20.9463   74.6038    2.3718 C.3     1  UNL1        0.1694
     33 C          21.3060   74.0961    0.9733 C.3     1  UNL1        0.1761
     34 O          22.1168   71.4444    4.0189 O.3     1  UNL1       -0.3775
     35 O          20.6958   73.8811    4.6710 O.3     1  UNL1       -0.3794
     36 O          21.9382   75.5291    2.8192 O.3     1  UNL1       -0.3794
     37 O          22.5889   73.4722    1.0029 O.3     1  UNL1       -0.3258
     38 H          22.9642   70.9881    3.9258 H       1  UNL1        0.2106
     39 H          20.6757   73.1017    5.2406 H       1  UNL1        0.2105
     40 H          21.6742   75.8168    3.7029 H       1  UNL1        0.2105
     41 C          21.3360   75.2742   -0.0030 C.3     1  UNL1        0.1693
     42 O          22.0863   74.9112   -1.1633 O.3     1  UNL1       -0.3794
     43 H          22.0804   75.6785   -1.7518 H       1  UNL1        0.2105
@<TRIPOS>BOND
     1    15    16   ar
     2    15    20   ar
     3    15     6    1
     4    16    17   ar
     5    16    21    2
     6    17    18   ar
     7    17    23    1
     8    18    19   ar
     9    18    22    2
    10    19    20   ar
    11     6     7    1
    12     6    11    1
    13     7     8    1
    14     7     9    1
    15     8    13    1
    16     9    10    1
    17     9    12    1
    18    10    11    1
    19    10     5    1
    20    12    14    1
    21     5     4    1
    22     4     1    1
    23     1     2    2
    24     1     3    1
    25     1    24    1
    26    24    25    1
    27    25    26    2
    28    25    27    1
    29    25    28    1
    30    28    29    1
    31    29    30    1
    32    29    37    1
    33    30    31    1
    34    30    34    1
    35    31    32    1
    36    31    35    1
    37    32    33    1
    38    32    36    1
    39    33    41    1
    40    33    37    1
    41    41    42    1
    42    34    38    1
    43    35    39    1
    44    36    40    1
    45    42    43    1
@<TRIPOS>MOLECULE
GDU
 43 45 0 0 0
SMALL
GASTEIGER

@<TRIPOS>ATOM
      1 P          21.8889   70.8878   -0.5592 P.3     1  UNL1        0.2189
      2 O          21.2174   69.6384   -0.1380 O.2     1  UNL1       -0.5170
      3 O          23.0964   70.5354   -1.5646 O.3     1  UNL1       -0.4371
      4 O          20.8302   71.8413   -1.3054 O.3     1  UNL1       -0.3112
      5 C          20.8056   71.4393   -2.6759 C.3     1  UNL1        0.1811
      6 C          18.2770   71.1803   -5.2189 C.3     1  UNL1        0.2383
      7 C          18.1847   69.8428   -4.4408 C.3     1  UNL1        0.1895
      8 O          16.8470   69.3393   -4.4491 O.3     1  UNL1       -0.3779
      9 C          18.6063   70.2693   -3.0105 C.3     1  UNL1        0.1713
     10 C          19.3848   71.5805   -3.2251 C.3     1  UNL1        0.1764
     11 O          19.4308   71.8273   -4.6412 O.3     1  UNL1       -0.3308
     12 O          17.4539   70.4915   -2.1954 O.3     1  UNL1       -0.3794
     13 H          16.8581   68.5099   -3.9512 H       1  UNL1        0.2106
     14 H          16.9783   69.6511   -2.1476 H       1  UNL1        0.2105
     15 N          18.4842   70.9354   -6.6471 N.ar    1  UNL1       -0.2551
     16 C          17.4226   70.7917   -7.4599 C.ar    1  UNL1        0.3323
     17 N          17.5856   70.5693   -8.7775 N.ar    1  UNL1       -0.2743
     18 C          18.8220   70.4769   -9.3036 C.ar    1  UNL1        0.2626
     19 C          19.9496   70.6205   -8.4585 C.ar    1  UNL1        0.0795
     20 C          19.7577   70.8472   -7.1416 C.ar    1  UNL1        0.0869
     21 O          16.3011   70.8730   -6.9998 O.2     1  UNL1       -0.2464
     22 O          18.9705   70.2709  -10.4953 O.2     1  UNL1       -0.2670
     23 H          16.8081   70.4723   -9.3501 H       1  UNL1        0.1734
     24 O          22.4744   71.6442    0.7361 O.3     1  UNL1       -0.2703
     25 P          22.0101   73.1813    0.6284 P.3     1  UNL1        0.2208
     26 O          22.7191   73.8331   -0.4948 O.2     1  UNL1       -0.5170
     27 O          20.4218   73.2449    0.3690 O.3     1  UNL1       -0.4371
     28 O          22.3594   73.9459    2.0008 O.3     1  UNL1       -0.2858
     29 C          22.8531   72.9615    2.9102 C.3     1  UNL1        0.2704
     30 C          21.7326   72.5403    3.8622 C.3     1  UNL1        0.1967
     31 C          21.2320   73.7739    4.6199 C.3     1  UNL1        0.1715
     32 C          22.4303   74.4597    5.2858 C.3     1  UNL1        0.1694
     33 C          23.4979   74.7373    4.2245 C.3     1  UNL1        0.1761
     34 O          20.6586   71.9680    3.1138 O.3     1  UNL1       -0.3775
     35 O          20.2890   73.3751    5.6169 O.3     1  UNL1       -0.3794
     36 O          22.9667   73.6071    6.2984 O.3     1  UNL1       -0.3794
     37 O          23.9406   73.5068    3.6537 O.3     1  UNL1       -0.3258
     38 H          21.0201   71.2012    2.6488 H       1  UNL1        0.2106
     39 H          19.5613   72.9395    5.1555 H       1  UNL1        0.2105
     40 H          22.2602   73.4552    6.9396 H       1  UNL1        0.2105
     41 C          24.6850   75.4531    4.8728 C.3     1  UNL1        0.1693
     42 O          24.2972   75.9527    6.1538 O.3     1  UNL1       -0.3794
     43 H          25.0716   76.3948    6.5280 H       1  UNL1        0.2105
@<TRIPOS>BOND
     1    15    16   ar
     2    15    20   ar
     3    15     6    1
     4    16    17   ar
     5    16    21    2
     6    17    18   ar
     7    17    23    1
     8    18    19   ar
     9    18    22    2
    10    19    20   ar
    11     6     7    1
    12     6    11    1
    13     7     8    1
    14     7     9    1
    15     8    13    1
    16     9    10    1
    17     9    12    1
    18    10    11    1
    19    10     5    1
    20    12    14    1
    21     5     4    1
    22     4     1    1
    23     1     2    2
    24     1     3    1
    25     1    24    1
    26    24    25    1
    27    25    26    2
    28    25    27    1
    29    25    28    1
    30    28    29    1
    31    29    30    1
    32    29    37    1
    33    30    31    1
    34    30    34    1
    35    31    32    1
    36    31    35    1
    37    32    33    1
    38    32    36    1
    39    33    41    1
    40    33    37    1
    41    41    42    1
    42    34    38    1
    43    35    39    1
    44    36    40    1
    45    42    43    1
@<TRIPOS>MOLECULE
GDU
 43 45 0 0 0
SMALL
GASTEIGER

@<TRIPOS>ATOM
      1 P          21.2447   72.3816   -2.6089 P.3     1  UNL1        0.2189
      2 O          22.2175   71.9908   -1.5646 O.2     1  UNL1       -0.5170
      3 O          21.2867   71.3094   -3.8095 O.3     1  UNL1       -0.4371
      4 O          19.7661   72.4222   -1.9773 O.3     1  UNL1       -0.3112
      5 C          19.0420   73.4310   -2.6835 C.3     1  UNL1        0.1811
      6 C          17.3708   71.6153   -5.2984 C.3     1  UNL1        0.2383
      7 C          17.7375   70.5357   -4.2482 C.3     1  UNL1        0.1895
      8 O          16.7789   69.4754   -4.2509 O.3     1  UNL1       -0.3779
      9 C          17.6721   71.3372   -2.9220 C.3     1  UNL1        0.1713
     10 C          17.8233   72.8047   -3.3637 C.3     1  UNL1        0.1764
     11 O          18.0045   72.8085   -4.7904 O.3     1  UNL1       -0.3308
     12 O          16.4153   71.1296   -2.2744 O.3     1  UNL1       -0.3794
     13 H          17.0639   68.8402   -3.5791 H       1  UNL1        0.2106
     14 H          16.3547   70.1853   -2.0765 H       1  UNL1        0.2105
     15 N          17.9112   71.2640   -6.6127 N.ar    1  UNL1       -0.2551
     16 C          17.0725   71.0181   -7.6346 C.ar    1  UNL1        0.3323
     17 N          17.5435   70.6965   -8.8539 N.ar    1  UNL1       -0.2743
     18 C          18.8702   70.6058   -9.0681 C.ar    1  UNL1        0.2626
     19 C          19.7655   70.8564   -7.9995 C.ar    1  UNL1        0.0795
     20 C          19.2664   71.1812   -6.7879 C.ar    1  UNL1        0.0869
     21 O          15.8732   71.0965   -7.4568 O.2     1  UNL1       -0.2464
     22 O          19.2974   70.3101  -10.1701 O.2     1  UNL1       -0.2670
     23 H          16.9238   70.5265   -9.5810 H       1  UNL1        0.1734
     24 O          21.6265   73.8383   -3.1786 O.3     1  UNL1       -0.2703
     25 P          23.0595   73.6974   -3.8973 P.3     1  UNL1        0.2208
     26 O          24.1099   74.2538   -3.0162 O.2     1  UNL1       -0.5170
     27 O          23.3666   72.1420   -4.1812 O.3     1  UNL1       -0.4371
     28 O          23.0440   74.5030   -5.2904 O.3     1  UNL1       -0.2858
     29 C          21.7962   74.2148   -5.9225 C.3     1  UNL1        0.2704
     30 C          22.0474   73.7565   -7.3599 C.3     1  UNL1        0.1967
     31 C          22.7924   74.8628   -8.1130 C.3     1  UNL1        0.1715
     32 C          22.0018   76.1686   -7.9736 C.3     1  UNL1        0.1694
     33 C          21.7556   76.4452   -6.4884 C.3     1  UNL1        0.1761
     34 O          22.8370   72.5658   -7.3514 O.3     1  UNL1       -0.3775
     35 O          22.9048   74.5119   -9.4939 O.3     1  UNL1       -0.3794
     36 O          20.7526   76.0460   -8.6552 O.3     1  UNL1       -0.3794
     37 O          20.9839   75.3865   -5.9230 O.3     1  UNL1       -0.3258
     38 H          22.3337   71.9008   -6.8622 H       1  UNL1        0.2106
     39 H          23.3967   73.6820   -9.5326 H       1  UNL1        0.2105
     40 H          20.9562   75.8671   -9.5825 H       1  UNL1        0.2105
     41 C          20.9962   77.7652   -6.3362 C.3     1  UNL1        0.1693
     42 O          19.7442   77.5219   -5.6924 O.3     1  UNL1       -0.3794
     43 H          19.2985   78.3767   -5.6153 H       1  UNL1        0.2105
@<TRIPOS>BOND
     1    15    16   ar
     2    15    20   ar
     3    15     6    1
     4    16    17   ar
     5    16    21    2
     6    17    18   ar
     7    17    23    1
     8    18    19   ar
     9    18    22    2
    10    19    20   ar
    11     6     7    1
    12     6    11    1
    13     7     8    1
    14     7     9    1
    15     8    13    1
    16     9    10    1
    17     9    12    1
    18    10    11    1
    19    10     5    1
    20    12    14    1
    21     5     4    1
    22     4     1    1
    23     1     2    2
    24     1     3    1
    25     1    24    1
    26    24    25    1
    27    25    26    2
    28    25    27    1
    29    25    28    1
    30    28    29    1
    31    29    30    1
    32    29    37    1
    33    30    31    1
    34    30    34    1
    35    31    32    1
    36    31    35    1
    37    32    33    1
    38    32    36    1
    39    33    41    1
    40    33    37    1
    41    41    42    1
    42    34    38    1
    43    35    39    1
    44    36    40    1
    45    42    43    1
@<TRIPOS>MOLECULE
GDU
 43 45 0 0 0
SMALL
GASTEIGER

@<TRIPOS>ATOM
      1 P          22.9180   72.5240   -3.6293 P.3     1  UNL1        0.2189
      2 O          23.1276   71.0716   -3.4388 O.2     1  UNL1       -0.5170
      3 O          23.0454   72.8839   -5.1936 O.3     1  UNL1       -0.4371
      4 O          21.4530   72.9287   -3.1031 O.3     1  UNL1       -0.3112
      5 C          20.7718   71.7108   -2.7980 C.3     1  UNL1        0.1811
      6 C          18.2535   71.2455   -5.3218 C.3     1  UNL1        0.2383
      7 C          18.2185   69.9371   -4.4913 C.3     1  UNL1        0.1895
      8 O          16.9031   69.3778   -4.4760 O.3     1  UNL1       -0.3779
      9 C          18.6233   70.4371   -3.0801 C.3     1  UNL1        0.1713
     10 C          19.3457   71.7704   -3.3484 C.3     1  UNL1        0.1764
     11 O          19.3797   71.9627   -4.7732 O.3     1  UNL1       -0.3308
     12 O          17.4635   70.6427   -2.2712 O.3     1  UNL1       -0.3794
     13 H          16.9497   68.5700   -3.9458 H       1  UNL1        0.2106
     14 H          17.0238   69.7856   -2.1889 H       1  UNL1        0.2105
     15 N          18.4692   70.9533   -6.7398 N.ar    1  UNL1       -0.2551
     16 C          17.4127   70.7635   -7.5498 C.ar    1  UNL1        0.3323
     17 N          17.5835   70.4970   -8.8581 N.ar    1  UNL1       -0.2743
     18 C          18.8229   70.4060   -9.3774 C.ar    1  UNL1        0.2626
     19 C          19.9453   70.5979   -8.5350 C.ar    1  UNL1        0.0795
     20 C          19.7456   70.8681   -7.2275 C.ar    1  UNL1        0.0869
     21 O          16.2886   70.8429   -7.0958 O.2     1  UNL1       -0.2464
     22 O          18.9785   70.1600  -10.5605 O.2     1  UNL1       -0.2670
     23 H          16.8095   70.3670   -9.4290 H       1  UNL1        0.1734
     24 O          24.0316   73.3392   -2.8001 O.3     1  UNL1       -0.2703
     25 P          24.0028   74.8535   -3.3441 P.3     1  UNL1        0.2208
     26 O          22.6993   75.1202   -3.9914 O.2     1  UNL1       -0.5170
     27 O          24.2073   75.8702   -2.1117 O.3     1  UNL1       -0.4371
     28 O          25.1870   75.0634   -4.4135 O.3     1  UNL1       -0.2858
     29 C          25.8356   76.2910   -4.0788 C.3     1  UNL1        0.2704
     30 C          25.5792   77.3195   -5.1814 C.3     1  UNL1        0.1967
     31 C          26.1117   76.7708   -6.5087 C.3     1  UNL1        0.1715
     32 C          27.5790   76.3694   -6.3196 C.3     1  UNL1        0.1694
     33 C          27.6835   75.4106   -5.1309 C.3     1  UNL1        0.1761
     34 O          24.1758   77.5635   -5.2913 O.3     1  UNL1       -0.3775
     35 O          26.0132   77.7773   -7.5185 O.3     1  UNL1       -0.3794
     36 O          28.3650   77.5354   -6.0696 O.3     1  UNL1       -0.3794
     37 O          27.2368   76.0649   -3.9441 O.3     1  UNL1       -0.3258
     38 H          23.8831   77.9000   -4.4334 H       1  UNL1        0.2106
     39 H          25.0784   78.0068   -7.5946 H       1  UNL1        0.2105
     40 H          28.2646   78.1108   -6.8391 H       1  UNL1        0.2105
     41 C          29.1403   74.9765   -4.9545 C.3     1  UNL1        0.1693
     42 O          29.2318   74.0461   -3.8743 O.3     1  UNL1       -0.3794
     43 H          30.1632   73.7975   -3.7971 H       1  UNL1        0.2105
@<TRIPOS>BOND
     1    15    16   ar
     2    15    20   ar
     3    15     6    1
     4    16    17   ar
     5    16    21    2
     6    17    18   ar
     7    17    23    1
     8    18    19   ar
     9    18    22    2
    10    19    20   ar
    11     6     7    1
    12     6    11    1
    13     7     8    1
    14     7     9    1
    15     8    13    1
    16     9    10    1
    17     9    12    1
    18    10    11    1
    19    10     5    1
    20    12    14    1
    21     5     4    1
    22     4     1    1
    23     1     2    2
    24     1     3    1
    25     1    24    1
    26    24    25    1
    27    25    26    2
    28    25    27    1
    29    25    28    1
    30    28    29    1
    31    29    30    1
    32    29    37    1
    33    30    31    1
    34    30    34    1
    35    31    32    1
    36    31    35    1
    37    32    33    1
    38    32    36    1
    39    33    41    1
    40    33    37    1
    41    41    42    1
    42    34    38    1
    43    35    39    1
    44    36    40    1
    45    42    43    1
@<TRIPOS>MOLECULE
GDU
 43 45 0 0 0
SMALL
GASTEIGER

@<TRIPOS>ATOM
      1 P          21.7892   70.2732   -0.3932 P.3     1  UNL1        0.2189
      2 O          21.9963   69.1906    0.5941 O.2     1  UNL1       -0.5170
      3 O          23.2173   70.8100   -0.9082 O.3     1  UNL1       -0.4371
      4 O          20.9466   69.7080   -1.6411 O.3     1  UNL1       -0.3112
      5 C          21.0469   70.6804   -2.6826 C.3     1  UNL1        0.1811
      6 C          18.4503   70.9574   -5.1541 C.3     1  UNL1        0.2383
      7 C          18.1961   69.5876   -4.4744 C.3     1  UNL1        0.1895
      8 O          16.8028   69.2681   -4.4764 O.3     1  UNL1       -0.3779
      9 C          18.7031   69.8420   -3.0310 C.3     1  UNL1        0.1713
     10 C          19.6462   71.0511   -3.1733 C.3     1  UNL1        0.1764
     11 O          19.6933   71.3987   -4.5680 O.3     1  UNL1       -0.3308
     12 O          17.6097   70.1511   -2.1646 O.3     1  UNL1       -0.3794
     13 H          16.7132   68.4085   -4.0419 H       1  UNL1        0.2106
     14 H          17.0264   69.3800   -2.1636 H       1  UNL1        0.2105
     15 N          18.5906   70.7988   -6.6025 N.ar    1  UNL1       -0.2551
     16 C          17.4922   70.7274   -7.3751 C.ar    1  UNL1        0.3323
     17 N          17.5936   70.5852   -8.7097 N.ar    1  UNL1       -0.2743
     18 C          18.8040   70.5018   -9.2947 C.ar    1  UNL1        0.2626
     19 C          19.9696   70.5698   -8.4929 C.ar    1  UNL1        0.0795
     20 C          19.8395   70.7169   -7.1572 C.ar    1  UNL1        0.0869
     21 O          16.3936   70.8016   -6.8617 O.2     1  UNL1       -0.2464
     22 O          18.8967   70.3683  -10.5022 O.2     1  UNL1       -0.2670
     23 H          16.7903   70.5397   -9.2524 H       1  UNL1        0.1734
     24 O          20.9809   71.4817    0.2986 O.3     1  UNL1       -0.2703
     25 P          21.9807   72.1656    1.3582 P.3     1  UNL1        0.2208
     26 O          22.7260   71.1130    2.0831 O.2     1  UNL1       -0.5170
     27 O          23.0196   73.1176    0.5781 O.3     1  UNL1       -0.4371
     28 O          21.1335   73.0440    2.4073 O.3     1  UNL1       -0.2858
     29 C          22.0743   73.8013    3.1696 C.3     1  UNL1        0.2704
     30 C          21.8286   73.5660    4.6607 C.3     1  UNL1        0.1967
     31 C          20.3949   73.9839    5.0018 C.3     1  UNL1        0.1715
     32 C          20.1775   75.4241    4.5242 C.3     1  UNL1        0.1694
     33 C          20.5469   75.5180    3.0417 C.3     1  UNL1        0.1761
     34 O          22.0100   72.1815    4.9630 O.3     1  UNL1       -0.3775
     35 O          20.1964   73.9090    6.4151 O.3     1  UNL1       -0.3794
     36 O          21.0019   76.3090    5.2840 O.3     1  UNL1       -0.3794
     37 O          21.9236   75.1863    2.8667 O.3     1  UNL1       -0.3258
     38 H          22.9213   71.9613    4.7265 H       1  UNL1        0.2106
     39 H          20.3546   72.9918    6.6718 H       1  UNL1        0.2105
     40 H          20.7388   76.2122    6.2085 H       1  UNL1        0.2105
     41 C          20.3008   76.9447    2.5459 C.3     1  UNL1        0.1693
     42 O          18.9154   77.2645    2.6862 O.3     1  UNL1       -0.3794
     43 H          18.8031   78.1695    2.3642 H       1  UNL1        0.2105
@<TRIPOS>BOND
     1    15    16   ar
     2    15    20   ar
     3    15     6    1
     4    16    17   ar
     5    16    21    2
     6    17    18   ar
     7    17    23    1
     8    18    19   ar
     9    18    22    2
    10    19    20   ar
    11     6     7    1
    12     6    11    1
    13     7     8    1
    14     7     9    1
    15     8    13    1
    16     9    10    1
    17     9    12    1
    18    10    11    1
    19    10     5    1
    20    12    14    1
    21     5     4    1
    22     4     1    1
    23     1     2    2
    24     1     3    1
    25     1    24    1
    26    24    25    1
    27    25    26    2
    28    25    27    1
    29    25    28    1
    30    28    29    1
    31    29    30    1
    32    29    37    1
    33    30    31    1
    34    30    34    1
    35    31    32    1
    36    31    35    1
    37    32    33    1
    38    32    36    1
    39    33    41    1
    40    33    37    1
    41    41    42    1
    42    34    38    1
    43    35    39    1
    44    36    40    1
    45    42    43    1
@<TRIPOS>MOLECULE
GDU
 43 45 0 0 0
SMALL
GASTEIGER

@<TRIPOS>ATOM
      1 P          21.3630   72.2259   -2.5701 P.3     1  UNL1        0.2189
      2 O          22.3466   72.3822   -1.4758 O.2     1  UNL1       -0.5170
      3 O          21.6191   70.8274   -3.3261 O.3     1  UNL1       -0.4371
      4 O          19.8746   72.2419   -1.9608 O.3     1  UNL1       -0.3112
      5 C          19.1778   73.3133   -2.5988 C.3     1  UNL1        0.1811
      6 C          17.4323   71.6875   -5.2890 C.3     1  UNL1        0.2383
      7 C          17.7577   70.5470   -4.2908 C.3     1  UNL1        0.1895
      8 O          16.7581   69.5264   -4.3392 O.3     1  UNL1       -0.3779
      9 C          17.7259   71.2883   -2.9289 C.3     1  UNL1        0.1713
     10 C          17.9343   72.7675   -3.3031 C.3     1  UNL1        0.1764
     11 O          18.1134   72.8301   -4.7286 O.3     1  UNL1       -0.3308
     12 O          16.4629   71.1007   -2.2874 O.3     1  UNL1       -0.3794
     13 H          17.0187   68.8502   -3.6984 H       1  UNL1        0.2106
     14 H          16.3655   70.1513   -2.1330 H       1  UNL1        0.2105
     15 N          17.9564   71.3762   -6.6199 N.ar    1  UNL1       -0.2551
     16 C          17.1792   70.7330   -7.5090 C.ar    1  UNL1        0.3323
     17 N          17.6357   70.4381   -8.7405 N.ar    1  UNL1       -0.2743
     18 C          18.8890   70.7759   -9.1001 C.ar    1  UNL1        0.2626
     19 C          19.7210   71.4487   -8.1719 C.ar    1  UNL1        0.0795
     20 C          19.2366   71.7361   -6.9450 C.ar    1  UNL1        0.0869
     21 O          16.0463   70.4223   -7.1992 O.2     1  UNL1       -0.2464
     22 O          19.3047   70.5051  -10.2129 O.2     1  UNL1       -0.2670
     23 H          17.0596   69.9772   -9.3709 H       1  UNL1        0.1734
     24 O          21.5289   73.4383   -3.6166 O.3     1  UNL1       -0.2703
     25 P          22.9323   73.2142   -4.3717 P.3     1  UNL1        0.2208
     26 O          23.6809   72.1244   -3.7077 O.2     1  UNL1       -0.5170
     27 O          22.6573   72.8171   -5.9082 O.3     1  UNL1       -0.4371
     28 O          23.7957   74.5712   -4.3158 O.3     1  UNL1       -0.2858
     29 C          24.7268   74.4268   -3.2425 C.3     1  UNL1        0.2704
     30 C          24.4572   75.5000   -2.1867 C.3     1  UNL1        0.1967
     31 C          24.5893   76.8815   -2.8350 C.3     1  UNL1        0.1715
     32 C          25.9564   76.9716   -3.5224 C.3     1  UNL1        0.1694
     33 C          26.1115   75.7869   -4.4791 C.3     1  UNL1        0.1761
     34 O          23.1365   75.3382   -1.6661 O.3     1  UNL1       -0.3775
     35 O          24.4858   77.8944   -1.8321 O.3     1  UNL1       -0.3794
     36 O          26.9899   76.9348   -2.5372 O.3     1  UNL1       -0.3794
     37 O          26.0538   74.5646   -3.7451 O.3     1  UNL1       -0.3258
     38 H          23.0970   74.4547   -1.2752 H       1  UNL1        0.2106
     39 H          23.6186   77.7925   -1.4198 H       1  UNL1        0.2105
     40 H          26.8492   77.6933   -1.9555 H       1  UNL1        0.2105
     41 C          27.4597   75.8859   -5.1964 C.3     1  UNL1        0.1693
     42 O          28.0611   74.5915   -5.2593 O.3     1  UNL1       -0.3794
     43 H          28.9058   74.6974   -5.7181 H       1  UNL1        0.2105
@<TRIPOS>BOND
     1    15    16   ar
     2    15    20   ar
     3    15     6    1
     4    16    17   ar
     5    16    21    2
     6    17    18   ar
     7    17    23    1
     8    18    19   ar
     9    18    22    2
    10    19    20   ar
    11     6     7    1
    12     6    11    1
    13     7     8    1
    14     7     9    1
    15     8    13    1
    16     9    10    1
    17     9    12    1
    18    10    11    1
    19    10     5    1
    20    12    14    1
    21     5     4    1
    22     4     1    1
    23     1     2    2
    24     1     3    1
    25     1    24    1
    26    24    25    1
    27    25    26    2
    28    25    27    1
    29    25    28    1
    30    28    29    1
    31    29    30    1
    32    29    37    1
    33    30    31    1
    34    30    34    1
    35    31    32    1
    36    31    35    1
    37    32    33    1
    38    32    36    1
    39    33    41    1
    40    33    37    1
    41    41    42    1
    42    34    38    1
    43    35    39    1
    44    36    40    1
    45    42    43    1
@<TRIPOS>MOLECULE
GDU
 43 45 0 0 0
SMALL
GASTEIGER

@<TRIPOS>ATOM
      1 P          22.3992   71.4488   -2.5202 P.3     1  UNL1        0.2189
      2 O          23.4395   71.8756   -3.4820 O.2     1  UNL1       -0.5170
      3 O          21.3632   72.6577   -2.2789 O.3     1  UNL1       -0.4371
      4 O          21.6114   70.1768   -3.1105 O.3     1  UNL1       -0.3112
      5 C          20.8231   70.6493   -4.2040 C.3     1  UNL1        0.1811
      6 C          17.3174   71.2062   -4.7758 C.3     1  UNL1        0.2383
      7 C          17.5331   69.7082   -5.1110 C.3     1  UNL1        0.1895
      8 O          16.3574   68.9472   -4.8249 O.3     1  UNL1       -0.3779
      9 C          18.6884   69.3235   -4.1505 C.3     1  UNL1        0.1713
     10 C          19.3478   70.6703   -3.7999 C.3     1  UNL1        0.1764
     11 O          18.6545   71.6936   -4.5351 O.3     1  UNL1       -0.3308
     12 O          18.1730   68.6908   -2.9774 O.3     1  UNL1       -0.3794
     13 H          16.5569   68.0289   -5.0546 H       1  UNL1        0.2106
     14 H          17.7223   67.8865   -3.2681 H       1  UNL1        0.2105
     15 N          16.7087   71.9077   -5.9073 N.ar    1  UNL1       -0.2551
     16 C          16.9441   71.4817   -7.1608 C.ar    1  UNL1        0.3323
     17 N          16.3939   72.1067   -8.2184 N.ar    1  UNL1       -0.2743
     18 C          15.6021   73.1810   -8.0370 C.ar    1  UNL1        0.2626
     19 C          15.3499   73.6446   -6.7226 C.ar    1  UNL1        0.0795
     20 C          15.9109   72.9966   -5.6795 C.ar    1  UNL1        0.0869
     21 O          17.6559   70.5135   -7.3402 O.2     1  UNL1       -0.2464
     22 O          15.1074   73.7503   -8.9940 O.2     1  UNL1       -0.2670
     23 H          16.5712   71.7829   -9.1159 H       1  UNL1        0.1734
     24 O          23.0926   71.0510   -1.1226 O.3     1  UNL1       -0.2703
     25 P          21.9594   70.3452   -0.2237 P.3     1  UNL1        0.2208
     26 O          20.9315   69.7489   -1.1051 O.2     1  UNL1       -0.5170
     27 O          22.6306   69.1897    0.6754 O.3     1  UNL1       -0.4371
     28 O          21.2748   71.4407    0.7361 O.3     1  UNL1       -0.2858
     29 C          22.3080   72.3382    1.1444 C.3     1  UNL1        0.2704
     30 C          22.3643   72.3887    2.6721 C.3     1  UNL1        0.1967
     31 C          21.0047   72.8501    3.2061 C.3     1  UNL1        0.1715
     32 C          20.6326   74.1709    2.5231 C.3     1  UNL1        0.1694
     33 C          20.7057   73.9845    1.0056 C.3     1  UNL1        0.1761
     34 O          22.6649   71.0888    3.1831 O.3     1  UNL1       -0.3775
     35 O          21.0848   73.0437    4.6198 O.3     1  UNL1       -0.3794
     36 O          21.5451   75.1922    2.9285 O.3     1  UNL1       -0.3794
     37 O          22.0373   73.6388    0.6268 O.3     1  UNL1       -0.3258
     38 H          23.5231   70.8364    2.8163 H       1  UNL1        0.2106
     39 H          21.3322   72.1936    5.0052 H       1  UNL1        0.2105
     40 H          21.4691   75.2705    3.8884 H       1  UNL1        0.2105
     41 C          20.3025   75.2883    0.3133 C.3     1  UNL1        0.1693
     42 O          21.0164   75.4135   -0.9179 O.3     1  UNL1       -0.3794
     43 H          20.7338   76.2454   -1.3220 H       1  UNL1        0.2105
@<TRIPOS>BOND
     1    15    16   ar
     2    15    20   ar
     3    15     6    1
     4    16    17   ar
     5    16    21    2
     6    17    18   ar
     7    17    23    1
     8    18    19   ar
     9    18    22    2
    10    19    20   ar
    11     6     7    1
    12     6    11    1
    13     7     8    1
    14     7     9    1
    15     8    13    1
    16     9    10    1
    17     9    12    1
    18    10    11    1
    19    10     5    1
    20    12    14    1
    21     5     4    1
    22     4     1    1
    23     1     2    2
    24     1     3    1
    25     1    24    1
    26    24    25    1
    27    25    26    2
    28    25    27    1
    29    25    28    1
    30    28    29    1
    31    29    30    1
    32    29    37    1
    33    30    31    1
    34    30    34    1
    35    31    32    1
    36    31    35    1
    37    32    33    1
    38    32    36    1
    39    33    41    1
    40    33    37    1
    41    41    42    1
    42    34    38    1
    43    35    39    1
    44    36    40    1
    45    42    43    1
@<TRIPOS>MOLECULE
GDU
 43 45 0 0 0
SMALL
GASTEIGER

@<TRIPOS>ATOM
      1 P          22.2353   74.1485   -6.7443 P.3     1  UNL1        0.2189
      2 O          22.6740   72.7354   -6.7290 O.2     1  UNL1       -0.5170
      3 O          23.4660   75.0876   -7.1877 O.3     1  UNL1       -0.4371
      4 O          21.0238   74.3234   -7.7876 O.3     1  UNL1       -0.3112
      5 C          21.1952   73.3226   -8.7924 C.3     1  UNL1        0.1811
      6 C          18.5244   71.2923   -7.4992 C.3     1  UNL1        0.2383
      7 C          17.9617   72.7366   -7.4758 C.3     1  UNL1        0.1895
      8 O          16.5455   72.7353   -7.6698 O.3     1  UNL1       -0.3779
      9 C          18.6849   73.3866   -8.6840 C.3     1  UNL1        0.1713
     10 C          19.9169   72.4905   -8.9091 C.3     1  UNL1        0.1764
     11 O          19.9014   71.4736   -7.8923 O.3     1  UNL1       -0.3308
     12 O          17.8377   73.3822   -9.8348 O.3     1  UNL1       -0.3794
     13 H          16.2598   73.6591   -7.6444 H       1  UNL1        0.2106
     14 H          17.0589   73.9096   -9.6112 H       1  UNL1        0.2105
     15 N          18.4432   70.6832   -6.1706 N.ar    1  UNL1       -0.2551
     16 C          17.3373   70.0067   -5.8136 C.ar    1  UNL1        0.3323
     17 N          17.2386   69.4342   -4.5994 N.ar    1  UNL1       -0.2743
     18 C          18.2483   69.5391   -3.7141 C.ar    1  UNL1        0.2626
     19 C          19.4171   70.2536   -4.0743 C.ar    1  UNL1        0.0795
     20 C          19.4915   70.8144   -5.3000 C.ar    1  UNL1        0.0869
     21 O          16.4184   69.9032   -6.6017 O.2     1  UNL1       -0.2464
     22 O          18.1580   69.0253   -2.6130 O.2     1  UNL1       -0.2670
     23 H          16.4347   68.9461   -4.3601 H       1  UNL1        0.1734
     24 O          21.7423   74.5724   -5.2714 O.3     1  UNL1       -0.2703
     25 P          22.9058   74.1397   -4.2472 P.3     1  UNL1        0.2208
     26 O          22.3531   74.0628   -2.8770 O.2     1  UNL1       -0.5170
     27 O          23.4864   72.6988   -4.6728 O.3     1  UNL1       -0.4371
     28 O          24.0908   75.2279   -4.2887 O.3     1  UNL1       -0.2858
     29 C          25.0323   74.8547   -3.2818 C.3     1  UNL1        0.2704
     30 C          25.1629   75.9871   -2.2620 C.3     1  UNL1        0.1967
     31 C          25.6191   77.2585   -2.9845 C.3     1  UNL1        0.1715
     32 C          26.8937   76.9424   -3.7750 C.3     1  UNL1        0.1694
     33 C          26.6310   75.7378   -4.6821 C.3     1  UNL1        0.1761
     34 O          23.8986   76.2170   -1.6376 O.3     1  UNL1       -0.3775
     35 O          25.8872   78.2849   -2.0268 O.3     1  UNL1       -0.3794
     36 O          27.9558   76.6414   -2.8686 O.3     1  UNL1       -0.3794
     37 O          26.2976   74.6005   -3.8876 O.3     1  UNL1       -0.3258
     38 H          23.6479   75.3907   -1.2026 H       1  UNL1        0.2106
     39 H          25.0642   78.4418   -1.5469 H       1  UNL1        0.2105
     40 H          28.0818   77.4234   -2.3155 H       1  UNL1        0.2105
     41 C          27.8875   75.4349   -5.5015 C.3     1  UNL1        0.1693
     42 O          28.6517   74.4229   -4.8436 O.3     1  UNL1       -0.3794
     43 H          29.4323   74.2612   -5.3912 H       1  UNL1        0.2105
@<TRIPOS>BOND
     1    15    16   ar
     2    15    20   ar
     3    15     6    1
     4    16    17   ar
     5    16    21    2
     6    17    18   ar
     7    17    23    1
     8    18    19   ar
     9    18    22    2
    10    19    20   ar
    11     6     7    1
    12     6    11    1
    13     7     8    1
    14     7     9    1
    15     8    13    1
    16     9    10    1
    17     9    12    1
    18    10    11    1
    19    10     5    1
    20    12    14    1
    21     5     4    1
    22     4     1    1
    23     1     2    2
    24     1     3    1
    25     1    24    1
    26    24    25    1
    27    25    26    2
    28    25    27    1
    29    25    28    1
    30    28    29    1
    31    29    30    1
    32    29    37    1
    33    30    31    1
    34    30    34    1
    35    31    32    1
    36    31    35    1
    37    32    33    1
    38    32    36    1
    39    33    41    1
    40    33    37    1
    41    41    42    1
    42    34    38    1
    43    35    39    1
    44    36    40    1
    45    42    43    1
@<TRIPOS>MOLECULE
GDU
 43 45 0 0 0
SMALL
GASTEIGER

@<TRIPOS>ATOM
      1 P          22.7341   71.0583   -1.9362 P.3     1  UNL1        0.2189
      2 O          23.2859   70.6978   -3.2610 O.2     1  UNL1       -0.5170
      3 O          22.8756   72.6464   -1.7101 O.3     1  UNL1       -0.4371
      4 O          21.1816   70.6432   -1.8700 O.3     1  UNL1       -0.3112
      5 C          20.5517   71.2123   -3.0188 C.3     1  UNL1        0.1811
      6 C          17.2113   71.1957   -4.3486 C.3     1  UNL1        0.2383
      7 C          17.7567   69.7760   -4.6488 C.3     1  UNL1        0.1895
      8 O          16.7010   68.8123   -4.6426 O.3     1  UNL1       -0.3779
      9 C          18.7259   69.5424   -3.4608 C.3     1  UNL1        0.1713
     10 C          19.0442   70.9610   -2.9530 C.3     1  UNL1        0.1764
     11 O          18.3564   71.8894   -3.8093 O.3     1  UNL1       -0.3308
     12 O          18.0892   68.7699   -2.4411 O.3     1  UNL1       -0.3794
     13 H          17.1051   67.9548   -4.8352 H       1  UNL1        0.2106
     14 H          17.8621   67.9173   -2.8364 H       1  UNL1        0.2105
     15 N          16.7477   71.8429   -5.5770 N.ar    1  UNL1       -0.2551
     16 C          17.2269   71.4374   -6.7662 C.ar    1  UNL1        0.3323
     17 N          16.8145   72.0133   -7.9108 N.ar    1  UNL1       -0.2743
     18 C          15.9173   73.0175   -7.8819 C.ar    1  UNL1        0.2626
     19 C          15.4081   73.4590   -6.6360 C.ar    1  UNL1        0.0795
     20 C          15.8355   72.8611   -5.5036 C.ar    1  UNL1        0.0869
     21 O          18.0364   70.5323   -6.8082 O.2     1  UNL1       -0.2464
     22 O          15.5469   73.5427   -8.9170 O.2     1  UNL1       -0.2670
     23 H          17.1677   71.7051   -8.7605 H       1  UNL1        0.1734
     24 O          23.5488   70.2793   -0.7865 O.3     1  UNL1       -0.2703
     25 P          22.7243   70.4723    0.5821 P.3     1  UNL1        0.2208
     26 O          21.4100   69.8032    0.4644 O.2     1  UNL1       -0.5170
     27 O          23.5501   69.8213    1.8021 O.3     1  UNL1       -0.4371
     28 O          22.5054   72.0421    0.8611 O.3     1  UNL1       -0.2858
     29 C          21.2479   72.1741    1.5251 C.3     1  UNL1        0.2704
     30 C          20.5309   73.4247    1.0139 C.3     1  UNL1        0.1967
     31 C          21.4134   74.6485    1.2784 C.3     1  UNL1        0.1715
     32 C          21.7856   74.6720    2.7652 C.3     1  UNL1        0.1694
     33 C          22.4097   73.3265    3.1434 C.3     1  UNL1        0.1761
     34 O          20.2919   73.2994   -0.3891 O.3     1  UNL1       -0.3775
     35 O          20.6973   75.8386    0.9414 O.3     1  UNL1       -0.3794
     36 O          20.6124   74.8969    3.5481 O.3     1  UNL1       -0.3794
     37 O          21.4633   72.2801    2.9305 O.3     1  UNL1       -0.3258
     38 H          19.7403   72.5144   -0.5091 H       1  UNL1        0.2106
     39 H          20.4742   75.7750    0.0042 H       1  UNL1        0.2105
     40 H          20.2513   75.7496    3.2727 H       1  UNL1        0.2105
     41 C          22.8166   73.3515    4.6184 C.3     1  UNL1        0.1693
     42 O          24.1000   73.9658    4.7473 O.3     1  UNL1       -0.3794
     43 H          24.3186   73.9624    5.6893 H       1  UNL1        0.2105
@<TRIPOS>BOND
     1    15    16   ar
     2    15    20   ar
     3    15     6    1
     4    16    17   ar
     5    16    21    2
     6    17    18   ar
     7    17    23    1
     8    18    19   ar
     9    18    22    2
    10    19    20   ar
    11     6     7    1
    12     6    11    1
    13     7     8    1
    14     7     9    1
    15     8    13    1
    16     9    10    1
    17     9    12    1
    18    10    11    1
    19    10     5    1
    20    12    14    1
    21     5     4    1
    22     4     1    1
    23     1     2    2
    24     1     3    1
    25     1    24    1
    26    24    25    1
    27    25    26    2
    28    25    27    1
    29    25    28    1
    30    28    29    1
    31    29    30    1
    32    29    37    1
    33    30    31    1
    34    30    34    1
    35    31    32    1
    36    31    35    1
    37    32    33    1
    38    32    36    1
    39    33    41    1
    40    33    37    1
    41    41    42    1
    42    34    38    1
    43    35    39    1
    44    36    40    1
    45    42    43    1
@<TRIPOS>MOLECULE
GDU
 43 45 0 0 0
SMALL
GASTEIGER

@<TRIPOS>ATOM
      1 P          22.1230   74.4174   -6.7153 P.3     1  UNL1        0.2189
      2 O          22.4289   73.0397   -6.2705 O.2     1  UNL1       -0.5170
      3 O          23.4495   75.0884   -7.3343 O.3     1  UNL1       -0.4371
      4 O          20.9695   74.3766   -7.8354 O.3     1  UNL1       -0.3112
      5 C          21.3657   73.4022   -8.8019 C.3     1  UNL1        0.1811
      6 C          18.7577   71.1945   -7.6832 C.3     1  UNL1        0.2383
      7 C          18.0372   72.5387   -7.9605 C.3     1  UNL1        0.1895
      8 O          16.6891   72.3174   -8.3809 O.3     1  UNL1       -0.3779
      9 C          18.8867   73.1304   -9.1154 C.3     1  UNL1        0.1713
     10 C          20.2341   72.3930   -9.0046 C.3     1  UNL1        0.1764
     11 O          20.1528   71.5155   -7.8681 O.3     1  UNL1       -0.3308
     12 O          18.2674   72.8681  -10.3762 O.3     1  UNL1       -0.3794
     13 H          16.2987   73.1889   -8.5360 H       1  UNL1        0.2106
     14 H          17.4054   73.3058  -10.3612 H       1  UNL1        0.2105
     15 N          18.5089   70.7467   -6.3119 N.ar    1  UNL1       -0.2551
     16 C          17.3676   70.0987   -6.0187 C.ar    1  UNL1        0.3323
     17 N          17.1160   69.6734   -4.7666 N.ar    1  UNL1       -0.2743
     18 C          18.0044   69.9004   -3.7800 C.ar    1  UNL1        0.2626
     19 C          19.2082   70.5868   -4.0729 C.ar    1  UNL1        0.0795
     20 C          19.4374   70.9986   -5.3380 C.ar    1  UNL1        0.0869
     21 O          16.5570   69.8863   -6.8983 O.2     1  UNL1       -0.2464
     22 O          17.7753   69.5200   -2.6454 O.2     1  UNL1       -0.2670
     23 H          16.2890   69.2036   -4.5738 H       1  UNL1        0.1734
     24 O          21.6204   75.2874   -5.4570 O.3     1  UNL1       -0.2703
     25 P          22.5959   74.9348   -4.2265 P.3     1  UNL1        0.2208
     26 O          23.8738   74.4013   -4.7476 O.2     1  UNL1       -0.5170
     27 O          22.8814   76.2682   -3.3693 O.3     1  UNL1       -0.4371
     28 O          21.8971   73.8325   -3.2850 O.3     1  UNL1       -0.2858
     29 C          22.8794   73.4140   -2.3365 C.3     1  UNL1        0.2704
     30 C          23.0051   71.8901   -2.3724 C.3     1  UNL1        0.1967
     31 C          21.6424   71.2697   -2.0491 C.3     1  UNL1        0.1715
     32 C          21.1411   71.8519   -0.7227 C.3     1  UNL1        0.1694
     33 C          21.1550   73.3798   -0.8128 C.3     1  UNL1        0.1761
     34 O          23.4252   71.4750   -3.6733 O.3     1  UNL1       -0.3775
     35 O          21.7757   69.8515   -1.9339 O.3     1  UNL1       -0.3794
     36 O          21.9940   71.4234    0.3398 O.3     1  UNL1       -0.3794
     37 O          22.4887   73.8370   -1.0323 O.3     1  UNL1       -0.3258
     38 H          24.2812   71.8938   -3.8369 H       1  UNL1        0.2106
     39 H          22.1034   69.5312   -2.7838 H       1  UNL1        0.2105
     40 H          21.9586   70.4581    0.3552 H       1  UNL1        0.2105
     41 C          20.6237   73.9710    0.4949 C.3     1  UNL1        0.1693
     42 O          21.6977   74.1041    1.4275 O.3     1  UNL1       -0.3794
     43 H          21.3217   74.4797    2.2355 H       1  UNL1        0.2105
@<TRIPOS>BOND
     1    15    16   ar
     2    15    20   ar
     3    15     6    1
     4    16    17   ar
     5    16    21    2
     6    17    18   ar
     7    17    23    1
     8    18    19   ar
     9    18    22    2
    10    19    20   ar
    11     6     7    1
    12     6    11    1
    13     7     8    1
    14     7     9    1
    15     8    13    1
    16     9    10    1
    17     9    12    1
    18    10    11    1
    19    10     5    1
    20    12    14    1
    21     5     4    1
    22     4     1    1
    23     1     2    2
    24     1     3    1
    25     1    24    1
    26    24    25    1
    27    25    26    2
    28    25    27    1
    29    25    28    1
    30    28    29    1
    31    29    30    1
    32    29    37    1
    33    30    31    1
    34    30    34    1
    35    31    32    1
    36    31    35    1
    37    32    33    1
    38    32    36    1
    39    33    41    1
    40    33    37    1
    41    41    42    1
    42    34    38    1
    43    35    39    1
    44    36    40    1
    45    42    43    1
@<TRIPOS>MOLECULE
GDU
 43 45 0 0 0
SMALL
GASTEIGER

@<TRIPOS>ATOM
      1 P          21.0396   70.4827   -1.1487 P.3     1  UNL1        0.2189
      2 O          21.3998   70.0375    0.2157 O.2     1  UNL1       -0.5170
      3 O          22.3087   70.3044   -2.1237 O.3     1  UNL1       -0.4371
      4 O          19.8136   69.5975   -1.6963 O.3     1  UNL1       -0.3112
      5 C          19.9354   69.5572   -3.1190 C.3     1  UNL1        0.1811
      6 C          19.0387   71.9666   -5.6325 C.3     1  UNL1        0.2383
      7 C          18.3166   70.6652   -6.0659 C.3     1  UNL1        0.1895
      8 O          17.0987   70.9623   -6.7527 O.3     1  UNL1       -0.3779
      9 C          18.0306   69.9830   -4.7027 C.3     1  UNL1        0.1713
     10 C          19.0418   70.6325   -3.7398 C.3     1  UNL1        0.1764
     11 O          19.8413   71.5481   -4.5082 O.3     1  UNL1       -0.3308
     12 O          16.6901   70.2466   -4.2836 O.3     1  UNL1       -0.3794
     13 H          16.7007   70.1143   -6.9941 H       1  UNL1        0.2106
     14 H          16.1071   69.8678   -4.9553 H       1  UNL1        0.2105
     15 N          19.8877   72.4721   -6.7126 N.ar    1  UNL1       -0.2551
     16 C          20.3443   71.6265   -7.6533 C.ar    1  UNL1        0.3323
     17 N          21.1235   72.0662   -8.6589 N.ar    1  UNL1       -0.2743
     18 C          21.4682   73.3662   -8.7335 C.ar    1  UNL1        0.2626
     19 C          20.9993   74.2674   -7.7465 C.ar    1  UNL1        0.0795
     20 C          20.2158   73.8006   -6.7512 C.ar    1  UNL1        0.0869
     21 O          20.0414   70.4512   -7.5994 O.2     1  UNL1       -0.2464
     22 O          22.1774   73.7643   -9.6407 O.2     1  UNL1       -0.2670
     23 H          21.4406   71.4427   -9.3315 H       1  UNL1        0.1734
     24 O          20.6082   72.0335   -1.1097 O.3     1  UNL1       -0.2703
     25 P          21.8550   72.8495   -0.5019 P.3     1  UNL1        0.2208
     26 O          22.9987   71.9309   -0.3089 O.2     1  UNL1       -0.5170
     27 O          22.2762   74.0232   -1.5213 O.3     1  UNL1       -0.4371
     28 O          21.4380   73.4934    0.9129 O.3     1  UNL1       -0.2858
     29 C          22.5030   73.2184    1.8240 C.3     1  UNL1        0.2704
     30 C          21.9259   72.6807    3.1344 C.3     1  UNL1        0.1967
     31 C          20.9672   73.7214    3.7212 C.3     1  UNL1        0.1715
     32 C          21.7062   75.0595    3.8344 C.3     1  UNL1        0.1694
     33 C          22.2986   75.4180    2.4693 C.3     1  UNL1        0.1761
     34 O          21.2191   71.4648    2.8828 O.3     1  UNL1       -0.3775
     35 O          20.5335   73.2986    5.0157 O.3     1  UNL1       -0.3794
     36 O          22.7524   74.9474    4.8002 O.3     1  UNL1       -0.3794
     37 O          23.2345   74.4166    2.0728 O.3     1  UNL1       -0.3258
     38 H          21.8580   70.8430    2.5085 H       1  UNL1        0.2106
     39 H          20.0864   72.4509    4.8980 H       1  UNL1        0.2105
     40 H          22.3346   74.7156    5.6399 H       1  UNL1        0.2105
     41 C          23.0098   76.7698    2.5630 C.3     1  UNL1        0.1693
     42 O          22.5368   77.6290    1.5242 O.3     1  UNL1       -0.3794
     43 H          23.0080   78.4682    1.6189 H       1  UNL1        0.2105
@<TRIPOS>BOND
     1    15    16   ar
     2    15    20   ar
     3    15     6    1
     4    16    17   ar
     5    16    21    2
     6    17    18   ar
     7    17    23    1
     8    18    19   ar
     9    18    22    2
    10    19    20   ar
    11     6     7    1
    12     6    11    1
    13     7     8    1
    14     7     9    1
    15     8    13    1
    16     9    10    1
    17     9    12    1
    18    10    11    1
    19    10     5    1
    20    12    14    1
    21     5     4    1
    22     4     1    1
    23     1     2    2
    24     1     3    1
    25     1    24    1
    26    24    25    1
    27    25    26    2
    28    25    27    1
    29    25    28    1
    30    28    29    1
    31    29    30    1
    32    29    37    1
    33    30    31    1
    34    30    34    1
    35    31    32    1
    36    31    35    1
    37    32    33    1
    38    32    36    1
    39    33    41    1
    40    33    37    1
    41    41    42    1
    42    34    38    1
    43    35    39    1
    44    36    40    1
    45    42    43    1
@<TRIPOS>MOLECULE
GDU
 43 45 0 0 0
SMALL
GASTEIGER

@<TRIPOS>ATOM
      1 P          18.3603   70.0715   -3.3582 P.3     1  UNL1        0.2189
      2 O          18.8530   69.2145   -2.2571 O.2     1  UNL1       -0.5170
      3 O          17.1092   70.9433   -2.8410 O.3     1  UNL1       -0.4371
      4 O          19.5374   71.0557   -3.8406 O.3     1  UNL1       -0.3112
      5 C          19.7032   72.0361   -2.8150 C.3     1  UNL1        0.1811
      6 C          22.5215   72.3776   -0.6086 C.3     1  UNL1        0.2383
      7 C          22.4146   70.8535   -0.8702 C.3     1  UNL1        0.1895
      8 O          23.7025   70.2355   -0.8178 O.3     1  UNL1       -0.3779
      9 C          21.8387   70.8105   -2.3096 C.3     1  UNL1        0.1713
     10 C          21.1907   72.1952   -2.4949 C.3     1  UNL1        0.1764
     11 O          21.3503   72.9141   -1.2597 O.3     1  UNL1       -0.3308
     12 O          22.8859   70.6095   -3.2609 O.3     1  UNL1       -0.3794
     13 H          23.5666   69.2929   -0.9876 H       1  UNL1        0.2106
     14 H          23.2899   69.7553   -3.0563 H       1  UNL1        0.2105
     15 N          22.4884   72.6603    0.8273 N.ar    1  UNL1       -0.2551
     16 C          21.9442   71.7654    1.6707 C.ar    1  UNL1        0.3323
     17 N          21.9044   71.9993    2.9957 N.ar    1  UNL1       -0.2743
     18 C          22.4032   73.1446    3.4993 C.ar    1  UNL1        0.2626
     19 C          22.9742   74.0990    2.6222 C.ar    1  UNL1        0.0795
     20 C          23.0051   73.8373    1.2982 C.ar    1  UNL1        0.0869
     21 O          21.4908   70.7275    1.2312 O.2     1  UNL1       -0.2464
     22 O          22.3633   73.3593    4.6980 O.2     1  UNL1       -0.2670
     23 H          21.5118   71.3404    3.5903 H       1  UNL1        0.1734
     24 O          17.8946   69.1455   -4.5903 O.3     1  UNL1       -0.2703
     25 P          17.2277   70.1220   -5.6819 P.3     1  UNL1        0.2208
     26 O          16.2668   69.3566   -6.5065 O.2     1  UNL1       -0.5170
     27 O          16.4550   71.3186   -4.9302 O.3     1  UNL1       -0.4371
     28 O          18.3765   70.7367   -6.6266 O.3     1  UNL1       -0.2858
     29 C          17.9653   70.5170   -7.9766 C.3     1  UNL1        0.2704
     30 C          19.1774   70.6292   -8.9027 C.3     1  UNL1        0.1967
     31 C          19.7975   72.0210   -8.7459 C.3     1  UNL1        0.1715
     32 C          18.7051   73.0724   -8.9710 C.3     1  UNL1        0.1694
     33 C          17.5288   72.7758   -8.0375 C.3     1  UNL1        0.1761
     34 O          20.1400   69.6327   -8.5540 O.3     1  UNL1       -0.3775
     35 O          20.8393   72.1938   -9.7089 O.3     1  UNL1       -0.3794
     36 O          18.2673   73.0232  -10.3297 O.3     1  UNL1       -0.3794
     37 O          16.9881   71.4900   -8.3382 O.3     1  UNL1       -0.3258
     38 H          19.7052   68.7756   -8.6602 H       1  UNL1        0.2106
     39 H          21.4955   71.5066   -9.5376 H       1  UNL1        0.2105
     40 H          19.0395   73.2097  -10.8795 H       1  UNL1        0.2105
     41 C          16.4462   73.8402   -8.2299 C.3     1  UNL1        0.1693
     42 O          15.4519   73.3497   -9.1310 O.3     1  UNL1       -0.3794
     43 H          14.7897   74.0483   -9.2243 H       1  UNL1        0.2105
@<TRIPOS>BOND
     1    15    16   ar
     2    15    20   ar
     3    15     6    1
     4    16    17   ar
     5    16    21    2
     6    17    18   ar
     7    17    23    1
     8    18    19   ar
     9    18    22    2
    10    19    20   ar
    11     6     7    1
    12     6    11    1
    13     7     8    1
    14     7     9    1
    15     8    13    1
    16     9    10    1
    17     9    12    1
    18    10    11    1
    19    10     5    1
    20    12    14    1
    21     5     4    1
    22     4     1    1
    23     1     2    2
    24     1     3    1
    25     1    24    1
    26    24    25    1
    27    25    26    2
    28    25    27    1
    29    25    28    1
    30    28    29    1
    31    29    30    1
    32    29    37    1
    33    30    31    1
    34    30    34    1
    35    31    32    1
    36    31    35    1
    37    32    33    1
    38    32    36    1
    39    33    41    1
    40    33    37    1
    41    41    42    1
    42    34    38    1
    43    35    39    1
    44    36    40    1
    45    42    43    1
@<TRIPOS>MOLECULE
GDU
 43 45 0 0 0
SMALL
GASTEIGER

@<TRIPOS>ATOM
      1 P          19.5399   69.7968   -3.0525 P.3     1  UNL1        0.2189
      2 O          20.8536   69.1374   -2.8827 O.2     1  UNL1       -0.5170
      3 O          18.4080   68.9424   -2.2898 O.3     1  UNL1       -0.4371
      4 O          19.5998   71.2805   -2.4344 O.3     1  UNL1       -0.3112
      5 C          20.6007   71.2640   -1.4153 C.3     1  UNL1        0.1811
      6 C          21.7058   73.8050    0.8758 C.3     1  UNL1        0.2383
      7 C          22.9907   73.3743    0.1231 C.3     1  UNL1        0.1895
      8 O          23.9073   74.4656    0.0132 O.3     1  UNL1       -0.3779
      9 C          22.4341   72.9772   -1.2689 C.3     1  UNL1        0.1713
     10 C          20.9418   72.6991   -1.0098 C.3     1  UNL1        0.1764
     11 O          20.7086   72.8773    0.3981 O.3     1  UNL1       -0.3308
     12 O          22.5958   74.0518   -2.1968 O.3     1  UNL1       -0.3794
     13 H          24.6813   74.1329   -0.4623 H       1  UNL1        0.2106
     14 H          23.5455   74.2170   -2.2713 H       1  UNL1        0.2105
     15 N          21.8837   73.6712    2.3226 N.ar    1  UNL1       -0.2551
     16 C          21.7723   72.4615    2.8992 C.ar    1  UNL1        0.3323
     17 N          21.9347   72.3106    4.2269 N.ar    1  UNL1       -0.2743
     18 C          22.2033   73.3770    5.0046 C.ar    1  UNL1        0.2626
     19 C          22.3178   74.6584    4.4118 C.ar    1  UNL1        0.0795
     20 C          22.1544   74.7808    3.0774 C.ar    1  UNL1        0.0869
     21 O          21.5308   71.4902    2.2105 O.2     1  UNL1       -0.2464
     22 O          22.3457   73.2422    6.2071 O.2     1  UNL1       -0.2670
     23 H          21.8550   71.4295    4.6256 H       1  UNL1        0.1734
     24 O          19.1814   69.8812   -4.6200 O.3     1  UNL1       -0.2703
     25 P          17.6846   70.4629   -4.7257 P.3     1  UNL1        0.2208
     26 O          16.7155   69.3478   -4.6459 O.2     1  UNL1       -0.5170
     27 O          17.4213   71.4898   -3.5131 O.3     1  UNL1       -0.4371
     28 O          17.5046   71.2324   -6.1276 O.3     1  UNL1       -0.2858
     29 C          18.5687   72.1805   -6.2202 C.3     1  UNL1        0.2704
     30 C          17.9963   73.5563   -6.5653 C.3     1  UNL1        0.1967
     31 C          17.2386   73.4622   -7.8933 C.3     1  UNL1        0.1715
     32 C          18.1731   72.8610   -8.9492 C.3     1  UNL1        0.1694
     33 C          18.7309   71.5360   -8.4236 C.3     1  UNL1        0.1761
     34 O          17.1036   73.9762   -5.5319 O.3     1  UNL1       -0.3775
     35 O          16.8238   74.7671   -8.3029 O.3     1  UNL1       -0.3794
     36 O          19.2461   73.7671   -9.2091 O.3     1  UNL1       -0.3794
     37 O          19.4831   71.7686   -7.2336 O.3     1  UNL1       -0.3258
     38 H          17.6202   74.0144   -4.7155 H       1  UNL1        0.2106
     39 H          16.2500   75.1099   -7.6061 H       1  UNL1        0.2105
     40 H          18.8486   74.5865   -9.5314 H       1  UNL1        0.2105
     41 C          19.6389   70.9101   -9.4847 C.3     1  UNL1        0.1693
     42 O          20.3264   69.7913   -8.9222 O.3     1  UNL1       -0.3794
     43 H          20.8858   69.4260   -9.6215 H       1  UNL1        0.2105
@<TRIPOS>BOND
     1    15    16   ar
     2    15    20   ar
     3    15     6    1
     4    16    17   ar
     5    16    21    2
     6    17    18   ar
     7    17    23    1
     8    18    19   ar
     9    18    22    2
    10    19    20   ar
    11     6     7    1
    12     6    11    1
    13     7     8    1
    14     7     9    1
    15     8    13    1
    16     9    10    1
    17     9    12    1
    18    10    11    1
    19    10     5    1
    20    12    14    1
    21     5     4    1
    22     4     1    1
    23     1     2    2
    24     1     3    1
    25     1    24    1
    26    24    25    1
    27    25    26    2
    28    25    27    1
    29    25    28    1
    30    28    29    1
    31    29    30    1
    32    29    37    1
    33    30    31    1
    34    30    34    1
    35    31    32    1
    36    31    35    1
    37    32    33    1
    38    32    36    1
    39    33    41    1
    40    33    37    1
    41    41    42    1
    42    34    38    1
    43    35    39    1
    44    36    40    1
    45    42    43    1
@<TRIPOS>MOLECULE
GDU
 43 45 0 0 0
SMALL
GASTEIGER

@<TRIPOS>ATOM
      1 P          18.0709   71.1489   -2.7389 P.3     1  UNL1        0.2189
      2 O          18.2460   69.6798   -2.7640 O.2     1  UNL1       -0.5170
      3 O          16.6893   71.5120   -1.9958 O.3     1  UNL1       -0.4371
      4 O          19.2987   71.8227   -1.9482 O.3     1  UNL1       -0.3112
      5 C          20.1206   72.4611   -2.9267 C.3     1  UNL1        0.1811
      6 C          22.7036   72.4227   -0.4259 C.3     1  UNL1        0.2383
      7 C          22.5075   70.9327   -0.8056 C.3     1  UNL1        0.1895
      8 O          23.7305   70.2058   -0.6667 O.3     1  UNL1       -0.3779
      9 C          22.0879   71.0296   -2.2955 C.3     1  UNL1        0.1713
     10 C          21.5729   72.4731   -2.4461 C.3     1  UNL1        0.1764
     11 O          21.6542   73.0965   -1.1527 O.3     1  UNL1       -0.3308
     12 O          23.2124   70.8011   -3.1471 O.3     1  UNL1       -0.3794
     13 H          23.5409   69.2907   -0.9166 H       1  UNL1        0.2106
     14 H          23.5247   69.9046   -2.9642 H       1  UNL1        0.2105
     15 N          22.5385   72.6159    1.0158 N.ar    1  UNL1       -0.2551
     16 C          21.9235   71.6712    1.7490 C.ar    1  UNL1        0.3323
     17 N          21.7621   71.8226    3.0768 N.ar    1  UNL1       -0.2743
     18 C          22.2080   72.9338    3.6937 C.ar    1  UNL1        0.2626
     19 C          22.8526   73.9399    2.9331 C.ar    1  UNL1        0.0795
     20 C          23.0052   73.7607    1.6037 C.ar    1  UNL1        0.0869
     21 O          21.5164   70.6632    1.2066 O.2     1  UNL1       -0.2464
     22 O          22.0581   73.0739    4.8947 O.2     1  UNL1       -0.2670
     23 H          21.3196   71.1287    3.5911 H       1  UNL1        0.1734
     24 O          18.0305   71.7094   -4.2478 O.3     1  UNL1       -0.2703
     25 P          18.2334   70.4439   -5.2212 P.3     1  UNL1        0.2208
     26 O          19.3766   69.6341   -4.7453 O.2     1  UNL1       -0.5170
     27 O          16.8985   69.5428   -5.2149 O.3     1  UNL1       -0.4371
     28 O          18.5251   70.9582   -6.7180 O.3     1  UNL1       -0.2858
     29 C          18.2486   72.3593   -6.7367 C.3     1  UNL1        0.2704
     30 C          17.7089   72.7535   -8.1124 C.3     1  UNL1        0.1967
     31 C          18.7487   72.3931   -9.1779 C.3     1  UNL1        0.1715
     32 C          20.0867   73.0350   -8.7938 C.3     1  UNL1        0.1694
     33 C          20.4472   72.6174   -7.3660 C.3     1  UNL1        0.1761
     34 O          16.4934   72.0481   -8.3698 O.3     1  UNL1       -0.3775
     35 O          18.3240   72.8875  -10.4498 O.3     1  UNL1       -0.3794
     36 O          19.9729   74.4568   -8.8666 O.3     1  UNL1       -0.3794
     37 O          19.4463   73.0819   -6.4613 O.3     1  UNL1       -0.3258
     38 H          15.8722   72.2990   -7.6727 H       1  UNL1        0.2106
     39 H          17.4765   72.4678  -10.6444 H       1  UNL1        0.2105
     40 H          19.7399   74.6726   -9.7790 H       1  UNL1        0.2105
     41 C          21.7989   73.2254   -6.9846 C.3     1  UNL1        0.1693
     42 O          22.8364   72.5800   -7.7248 O.3     1  UNL1       -0.3794
     43 H          23.6693   72.9917   -7.4565 H       1  UNL1        0.2105
@<TRIPOS>BOND
     1    15    16   ar
     2    15    20   ar
     3    15     6    1
     4    16    17   ar
     5    16    21    2
     6    17    18   ar
     7    17    23    1
     8    18    19   ar
     9    18    22    2
    10    19    20   ar
    11     6     7    1
    12     6    11    1
    13     7     8    1
    14     7     9    1
    15     8    13    1
    16     9    10    1
    17     9    12    1
    18    10    11    1
    19    10     5    1
    20    12    14    1
    21     5     4    1
    22     4     1    1
    23     1     2    2
    24     1     3    1
    25     1    24    1
    26    24    25    1
    27    25    26    2
    28    25    27    1
    29    25    28    1
    30    28    29    1
    31    29    30    1
    32    29    37    1
    33    30    31    1
    34    30    34    1
    35    31    32    1
    36    31    35    1
    37    32    33    1
    38    32    36    1
    39    33    41    1
    40    33    37    1
    41    41    42    1
    42    34    38    1
    43    35    39    1
    44    36    40    1
    45    42    43    1
@<TRIPOS>MOLECULE
GDU
 43 45 0 0 0
SMALL
GASTEIGER

@<TRIPOS>ATOM
      1 P          18.4158   69.9510   -3.6442 P.3     1  UNL1        0.2189
      2 O          18.2782   68.7039   -2.8597 O.2     1  UNL1       -0.5170
      3 O          19.3169   69.6677   -4.9483 O.3     1  UNL1       -0.4371
      4 O          16.9604   70.4631   -4.0984 O.3     1  UNL1       -0.3112
      5 C          16.7796   71.7584   -3.5238 C.3     1  UNL1        0.1811
      6 C          17.3296   72.9062   -6.8864 C.3     1  UNL1        0.2383
      7 C          15.8082   72.6170   -6.8179 C.3     1  UNL1        0.1895
      8 O          15.0839   73.4874   -7.6902 O.3     1  UNL1       -0.3779
      9 C          15.4850   72.9278   -5.3332 C.3     1  UNL1        0.1713
     10 C          16.8472   72.8199   -4.6232 C.3     1  UNL1        0.1764
     11 O          17.8192   72.4379   -5.6119 O.3     1  UNL1       -0.3308
     12 O          14.9488   74.2460   -5.2039 O.3     1  UNL1       -0.3794
     13 H          14.1487   73.2567   -7.6009 H       1  UNL1        0.2106
     14 H          14.1296   74.2668   -5.7170 H       1  UNL1        0.2105
     15 N          17.9497   72.1603   -7.9828 N.ar    1  UNL1       -0.2551
     16 C          17.7371   70.8371   -8.0932 C.ar    1  UNL1        0.3323
     17 N          18.2925   70.1286   -9.0939 N.ar    1  UNL1       -0.2743
     18 C          19.0826   70.7360  -10.0000 C.ar    1  UNL1        0.2626
     19 C          19.3201   72.1282   -9.8929 C.ar    1  UNL1        0.0795
     20 C          18.7473   72.8156   -8.8820 C.ar    1  UNL1        0.0869
     21 O          17.0262   70.2755   -7.2836 O.2     1  UNL1       -0.2464
     22 O          19.5897   70.0946  -10.9034 O.2     1  UNL1       -0.2670
     23 H          18.1248   69.1751   -9.1608 H       1  UNL1        0.1734
     24 O          19.1243   71.0780   -2.7386 O.3     1  UNL1       -0.2703
     25 P          20.6696   71.1318   -3.1848 P.3     1  UNL1        0.2208
     26 O          21.2896   69.8048   -2.9758 O.2     1  UNL1       -0.5170
     27 O          20.7645   71.5285   -4.7430 O.3     1  UNL1       -0.4371
     28 O          21.4457   72.2326   -2.3039 O.3     1  UNL1       -0.2858
     29 C          20.6327   72.4970   -1.1599 C.3     1  UNL1        0.2704
     30 C          20.9036   73.9168   -0.6599 C.3     1  UNL1        0.1967
     31 C          22.3891   74.0472   -0.3095 C.3     1  UNL1        0.1715
     32 C          22.7615   72.9285    0.6700 C.3     1  UNL1        0.1694
     33 C          22.3512   71.5825    0.0678 C.3     1  UNL1        0.1761
     34 O          20.5671   74.8566   -1.6821 O.3     1  UNL1       -0.3775
     35 O          22.6297   75.3190    0.2963 O.3     1  UNL1       -0.3794
     36 O          22.0794   73.1312    1.9084 O.3     1  UNL1       -0.3794
     37 O          20.9389   71.5558   -0.1337 O.3     1  UNL1       -0.3258
     38 H          19.6277   74.7342   -1.8753 H       1  UNL1        0.2106
     39 H          22.3710   75.9896   -0.3485 H       1  UNL1        0.2105
     40 H          22.3632   73.9903    2.2470 H       1  UNL1        0.2105
     41 C          22.7498   70.4554    1.0232 C.3     1  UNL1        0.1693
     42 O          22.0072   69.2772    0.7048 O.3     1  UNL1       -0.3794
     43 H          22.2878   68.5927    1.3277 H       1  UNL1        0.2105
@<TRIPOS>BOND
     1    15    16   ar
     2    15    20   ar
     3    15     6    1
     4    16    17   ar
     5    16    21    2
     6    17    18   ar
     7    17    23    1
     8    18    19   ar
     9    18    22    2
    10    19    20   ar
    11     6     7    1
    12     6    11    1
    13     7     8    1
    14     7     9    1
    15     8    13    1
    16     9    10    1
    17     9    12    1
    18    10    11    1
    19    10     5    1
    20    12    14    1
    21     5     4    1
    22     4     1    1
    23     1     2    2
    24     1     3    1
    25     1    24    1
    26    24    25    1
    27    25    26    2
    28    25    27    1
    29    25    28    1
    30    28    29    1
    31    29    30    1
    32    29    37    1
    33    30    31    1
    34    30    34    1
    35    31    32    1
    36    31    35    1
    37    32    33    1
    38    32    36    1
    39    33    41    1
    40    33    37    1
    41    41    42    1
    42    34    38    1
    43    35    39    1
    44    36    40    1
    45    42    43    1
@<TRIPOS>MOLECULE
GDU
 43 45 0 0 0
SMALL
GASTEIGER

@<TRIPOS>ATOM
      1 P          22.6674   72.0299   -3.2704 P.3     1  UNL1        0.2189
      2 O          23.6399   73.1299   -3.4547 O.2     1  UNL1       -0.5170
      3 O          23.4555   70.6302   -3.1583 O.3     1  UNL1       -0.4371
      4 O          21.8228   72.2796   -1.9246 O.3     1  UNL1       -0.3112
      5 C          22.5962   73.1603   -1.1082 C.3     1  UNL1        0.1811
      6 C          22.7501   73.1645    2.4840 C.3     1  UNL1        0.2383
      7 C          21.3061   72.7052    2.1569 C.3     1  UNL1        0.1895
      8 O          20.8133   71.8173    3.1630 O.3     1  UNL1       -0.3779
      9 C          21.4990   71.9618    0.8095 C.3     1  UNL1        0.1713
     10 C          22.8260   72.5188    0.2615 C.3     1  UNL1        0.1764
     11 O          23.2945   73.5097    1.1925 O.3     1  UNL1       -0.3308
     12 O          21.5915   70.5523    1.0253 O.3     1  UNL1       -0.3794
     13 H          19.9153   71.5702    2.9012 H       1  UNL1        0.2106
     14 H          20.7552   70.2744    1.4230 H       1  UNL1        0.2105
     15 N          22.7347   74.3325    3.3662 N.ar    1  UNL1       -0.2551
     16 C          22.1883   75.4843    2.9383 C.ar    1  UNL1        0.3323
     17 N          22.1582   76.5719    3.7309 N.ar    1  UNL1       -0.2743
     18 C          22.6869   76.5259    4.9688 C.ar    1  UNL1        0.2626
     19 C          23.2710   75.3211    5.4309 C.ar    1  UNL1        0.0795
     20 C          23.2840   74.2441    4.6170 C.ar    1  UNL1        0.0869
     21 O          21.7071   75.5409    1.8242 O.2     1  UNL1       -0.2464
     22 O          22.6644   77.5112    5.6852 O.2     1  UNL1       -0.2670
     23 H          21.7560   77.3936    3.4073 H       1  UNL1        0.1734
     24 O          21.6678   71.9818   -4.5318 O.3     1  UNL1       -0.2703
     25 P          20.4022   71.0911   -4.0904 P.3     1  UNL1        0.2208
     26 O          20.8745   69.8753   -3.3919 O.2     1  UNL1       -0.5170
     27 O          19.4627   71.9470   -3.1010 O.3     1  UNL1       -0.4371
     28 O          19.5607   70.6686   -5.3956 O.3     1  UNL1       -0.2858
     29 C          18.6338   71.7246   -5.6515 C.3     1  UNL1        0.2704
     30 C          17.2173   71.1523   -5.7245 C.3     1  UNL1        0.1967
     31 C          17.1609   70.1015   -6.8376 C.3     1  UNL1        0.1715
     32 C          17.6765   70.7341   -8.1352 C.3     1  UNL1        0.1694
     33 C          19.0601   71.3368   -7.8796 C.3     1  UNL1        0.1761
     34 O          16.8809   70.5466   -4.4750 O.3     1  UNL1       -0.3775
     35 O          15.8122   69.6639   -7.0168 O.3     1  UNL1       -0.3794
     36 O          16.7749   71.7577   -8.5589 O.3     1  UNL1       -0.3794
     37 O          18.9648   72.3564   -6.8859 O.3     1  UNL1       -0.3258
     38 H          16.9362   71.2410   -3.8045 H       1  UNL1        0.2106
     39 H          15.5267   69.2855   -6.1757 H       1  UNL1        0.2105
     40 H          15.9183   71.3345   -8.7019 H       1  UNL1        0.2105
     41 C          19.5990   71.9412   -9.1781 C.3     1  UNL1        0.1693
     42 O          18.9028   71.3763  -10.2904 O.3     1  UNL1       -0.3794
     43 H          19.2708   71.7831  -11.0868 H       1  UNL1        0.2105
@<TRIPOS>BOND
     1    15    16   ar
     2    15    20   ar
     3    15     6    1
     4    16    17   ar
     5    16    21    2
     6    17    18   ar
     7    17    23    1
     8    18    19   ar
     9    18    22    2
    10    19    20   ar
    11     6     7    1
    12     6    11    1
    13     7     8    1
    14     7     9    1
    15     8    13    1
    16     9    10    1
    17     9    12    1
    18    10    11    1
    19    10     5    1
    20    12    14    1
    21     5     4    1
    22     4     1    1
    23     1     2    2
    24     1     3    1
    25     1    24    1
    26    24    25    1
    27    25    26    2
    28    25    27    1
    29    25    28    1
    30    28    29    1
    31    29    30    1
    32    29    37    1
    33    30    31    1
    34    30    34    1
    35    31    32    1
    36    31    35    1
    37    32    33    1
    38    32    36    1
    39    33    41    1
    40    33    37    1
    41    41    42    1
    42    34    38    1
    43    35    39    1
    44    36    40    1
    45    42    43    1
@<TRIPOS>MOLECULE
GDU
 43 45 0 0 0
SMALL
GASTEIGER

@<TRIPOS>ATOM
      1 P          20.2366   70.1273   -2.1196 P.3     1  UNL1        0.2189
      2 O          19.0387   69.2657   -2.2305 O.2     1  UNL1       -0.5170
      3 O          21.4746   69.4244   -2.8721 O.3     1  UNL1       -0.4371
      4 O          19.9364   71.5543   -2.7982 O.3     1  UNL1       -0.3112
      5 C          19.7125   71.3126   -4.1881 C.3     1  UNL1        0.1811
      6 C          16.8145   71.9395   -6.2218 C.3     1  UNL1        0.2383
      7 C          17.1680   70.4552   -6.4952 C.3     1  UNL1        0.1895
      8 O          15.9928   69.6975   -6.7920 O.3     1  UNL1       -0.3779
      9 C          17.7839   70.0134   -5.1421 C.3     1  UNL1        0.1713
     10 C          18.2102   71.3347   -4.4758 C.3     1  UNL1        0.1764
     11 O          17.9042   72.3984   -5.3939 O.3     1  UNL1       -0.3308
     12 O          16.8089   69.3360   -4.3468 O.3     1  UNL1       -0.3794
     13 H          16.2805   68.7877   -6.9516 H       1  UNL1        0.2106
     14 H          16.5391   68.5512   -4.8428 H       1  UNL1        0.2105
     15 N          16.7619   72.6983   -7.4725 N.ar    1  UNL1       -0.2551
     16 C          17.8327   72.7185   -8.2857 C.ar    1  UNL1        0.3323
     17 N          17.8092   73.4054   -9.4431 N.ar    1  UNL1       -0.2743
     18 C          16.7096   74.0955   -9.8021 C.ar    1  UNL1        0.2626
     19 C          15.5762   74.0880   -8.9526 C.ar    1  UNL1        0.0795
     20 C          15.6251   73.3873   -7.7997 C.ar    1  UNL1        0.0869
     21 O          18.8316   72.1004   -7.9755 O.2     1  UNL1       -0.2464
     22 O          16.6891   74.7214  -10.8472 O.2     1  UNL1       -0.2670
     23 H          18.5896   73.4055  -10.0199 H       1  UNL1        0.1734
     24 O          20.6037   70.3369   -0.5660 O.3     1  UNL1       -0.2703
     25 P          22.2052   70.4693   -0.4787 P.3     1  UNL1        0.2208
     26 O          22.7754   69.2126    0.0550 O.2     1  UNL1       -0.5170
     27 O          22.8015   70.7467   -1.9490 O.3     1  UNL1       -0.4371
     28 O          22.5915   71.6911    0.4950 O.3     1  UNL1       -0.2858
     29 C          21.6102   72.7089    0.2931 C.3     1  UNL1        0.2704
     30 C          22.2858   73.9655   -0.2580 C.3     1  UNL1        0.1967
     31 C          23.3540   74.4335    0.7352 C.3     1  UNL1        0.1715
     32 C          22.7043   74.5937    2.1142 C.3     1  UNL1        0.1694
     33 C          21.9981   73.2877    2.4865 C.3     1  UNL1        0.1761
     34 O          22.8963   73.6685   -1.5151 O.3     1  UNL1       -0.3775
     35 O          23.8919   75.6864    0.3067 O.3     1  UNL1       -0.3794
     36 O          21.7559   75.6609    2.0746 O.3     1  UNL1       -0.3794
     37 O          20.9739   73.0059    1.5338 O.3     1  UNL1       -0.3258
     38 H          22.1900   73.3719   -2.1051 H       1  UNL1        0.2106
     39 H          24.2779   75.5413   -0.5664 H       1  UNL1        0.2105
     40 H          22.2428   76.4591    1.8314 H       1  UNL1        0.2105
     41 C          21.3748   73.4254    3.8773 C.3     1  UNL1        0.1693
     42 O          20.1619   72.6725    3.9315 O.3     1  UNL1       -0.3794
     43 H          19.8022   72.7849    4.8222 H       1  UNL1        0.2105
@<TRIPOS>BOND
     1    15    16   ar
     2    15    20   ar
     3    15     6    1
     4    16    17   ar
     5    16    21    2
     6    17    18   ar
     7    17    23    1
     8    18    19   ar
     9    18    22    2
    10    19    20   ar
    11     6     7    1
    12     6    11    1
    13     7     8    1
    14     7     9    1
    15     8    13    1
    16     9    10    1
    17     9    12    1
    18    10    11    1
    19    10     5    1
    20    12    14    1
    21     5     4    1
    22     4     1    1
    23     1     2    2
    24     1     3    1
    25     1    24    1
    26    24    25    1
    27    25    26    2
    28    25    27    1
    29    25    28    1
    30    28    29    1
    31    29    30    1
    32    29    37    1
    33    30    31    1
    34    30    34    1
    35    31    32    1
    36    31    35    1
    37    32    33    1
    38    32    36    1
    39    33    41    1
    40    33    37    1
    41    41    42    1
    42    34    38    1
    43    35    39    1
    44    36    40    1
    45    42    43    1
@<TRIPOS>MOLECULE
GDU
 43 45 0 0 0
SMALL
GASTEIGER

@<TRIPOS>ATOM
      1 P          16.0470   73.7063   -4.5032 P.3     1  UNL1        0.2189
      2 O          15.3499   74.9777   -4.2084 O.2     1  UNL1       -0.5170
      3 O          14.9979   72.4875   -4.4206 O.3     1  UNL1       -0.4371
      4 O          16.6796   73.7706   -5.9806 O.3     1  UNL1       -0.3112
      5 C          15.7173   73.1986   -6.8679 C.3     1  UNL1        0.1811
      6 C          15.1302   74.8151  -10.0254 C.3     1  UNL1        0.2383
      7 C          15.9809   75.8308   -9.2206 C.3     1  UNL1        0.1895
      8 O          16.8008   76.6128  -10.0919 O.3     1  UNL1       -0.3779
      9 C          16.8475   74.8985   -8.3345 C.3     1  UNL1        0.1713
     10 C          16.0655   73.5721   -8.3100 C.3     1  UNL1        0.1764
     11 O          14.8595   73.7692   -9.0682 O.3     1  UNL1       -0.3308
     12 O          18.1394   74.7147   -8.9170 O.3     1  UNL1       -0.3794
     13 H          17.3018   77.2217   -9.5315 H       1  UNL1        0.2106
     14 H          18.5544   75.5868   -8.9588 H       1  UNL1        0.2105
     15 N          13.8835   75.4312  -10.4827 N.ar    1  UNL1       -0.2551
     16 C          12.7336   75.1674   -9.8375 C.ar    1  UNL1        0.3323
     17 N          11.5742   75.7236  -10.2354 N.ar    1  UNL1       -0.2743
     18 C          11.5461   76.5502  -11.2985 C.ar    1  UNL1        0.2626
     19 C          12.7488   76.8325  -11.9914 C.ar    1  UNL1        0.0795
     20 C          13.8982   76.2647  -11.5686 C.ar    1  UNL1        0.0869
     21 O          12.7433   74.4242   -8.8765 O.2     1  UNL1       -0.2464
     22 O          10.4963   77.0503  -11.6623 O.2     1  UNL1       -0.2670
     23 H          10.7543   75.5255   -9.7554 H       1  UNL1        0.1734
     24 O          17.2206   73.4763   -3.4251 O.3     1  UNL1       -0.2703
     25 P          18.2757   72.4613   -4.0933 P.3     1  UNL1        0.2208
     26 O          17.5683   71.2446   -4.5497 O.2     1  UNL1       -0.5170
     27 O          18.9826   73.1746   -5.3525 O.3     1  UNL1       -0.4371
     28 O          19.3945   72.0579   -3.0090 O.3     1  UNL1       -0.2858
     29 C          20.2794   71.1372   -3.6486 C.3     1  UNL1        0.2704
     30 C          20.6101   69.9961   -2.6854 C.3     1  UNL1        0.1967
     31 C          21.2554   70.5792   -1.4245 C.3     1  UNL1        0.1715
     32 C          22.4479   71.4476   -1.8410 C.3     1  UNL1        0.1694
     33 C          21.9768   72.4807   -2.8675 C.3     1  UNL1        0.1761
     34 O          19.4110   69.3031   -2.3346 O.3     1  UNL1       -0.3775
     35 O          21.7036   69.5173   -0.5795 O.3     1  UNL1       -0.3794
     36 O          23.4617   70.6227   -2.4168 O.3     1  UNL1       -0.3794
     37 O          21.4758   71.8147   -4.0257 O.3     1  UNL1       -0.3258
     38 H          19.0362   68.9600   -3.1572 H       1  UNL1        0.2106
     39 H          20.9254   68.9924   -0.3531 H       1  UNL1        0.2105
     40 H          23.7229   69.9859   -1.7388 H       1  UNL1        0.2105
     41 C          23.1530   73.3756   -3.2647 C.3     1  UNL1        0.1693
     42 O          23.8774   72.7627   -4.3327 O.3     1  UNL1       -0.3794
     43 H          24.6077   73.3571   -4.5529 H       1  UNL1        0.2105
@<TRIPOS>BOND
     1    15    16   ar
     2    15    20   ar
     3    15     6    1
     4    16    17   ar
     5    16    21    2
     6    17    18   ar
     7    17    23    1
     8    18    19   ar
     9    18    22    2
    10    19    20   ar
    11     6     7    1
    12     6    11    1
    13     7     8    1
    14     7     9    1
    15     8    13    1
    16     9    10    1
    17     9    12    1
    18    10    11    1
    19    10     5    1
    20    12    14    1
    21     5     4    1
    22     4     1    1
    23     1     2    2
    24     1     3    1
    25     1    24    1
    26    24    25    1
    27    25    26    2
    28    25    27    1
    29    25    28    1
    30    28    29    1
    31    29    30    1
    32    29    37    1
    33    30    31    1
    34    30    34    1
    35    31    32    1
    36    31    35    1
    37    32    33    1
    38    32    36    1
    39    33    41    1
    40    33    37    1
    41    41    42    1
    42    34    38    1
    43    35    39    1
    44    36    40    1
    45    42    43    1
@<TRIPOS>MOLECULE
GDU
 43 45 0 0 0
SMALL
GASTEIGER

@<TRIPOS>ATOM
      1 P          22.3871   70.4007   -0.1049 P.3     1  UNL1        0.2189
      2 O          23.5983   69.5960    0.1690 O.2     1  UNL1       -0.5170
      3 O          22.8106   71.7840   -0.8120 O.3     1  UNL1       -0.4371
      4 O          21.4052   69.5790   -1.0783 O.3     1  UNL1       -0.3112
      5 C          21.2564   70.3560   -2.2677 C.3     1  UNL1        0.1811
      6 C          18.4472   71.2981   -4.3044 C.3     1  UNL1        0.2383
      7 C          18.5510   69.7605   -4.4719 C.3     1  UNL1        0.1895
      8 O          17.2625   69.1839   -4.6967 O.3     1  UNL1       -0.3779
      9 C          19.1213   69.3218   -3.0980 C.3     1  UNL1        0.1713
     10 C          19.7705   70.6005   -2.5367 C.3     1  UNL1        0.1764
     11 O          19.6166   71.6320   -3.5270 O.3     1  UNL1       -0.3308
     12 O          18.0702   68.8693   -2.2423 O.3     1  UNL1       -0.3794
     13 H          17.3964   68.2307   -4.7924 H       1  UNL1        0.2106
     14 H          17.6657   68.1053   -2.6754 H       1  UNL1        0.2105
     15 N          18.4862   71.9649   -5.6070 N.ar    1  UNL1       -0.2551
     16 C          19.2311   71.4466   -6.5994 C.ar    1  UNL1        0.3323
     17 N          19.2815   72.0380   -7.8075 N.ar    1  UNL1       -0.2743
     18 C          18.5902   73.1705   -8.0395 C.ar    1  UNL1        0.2626
     19 C          17.8058   73.7310   -7.0018 C.ar    1  UNL1        0.0795
     20 C          17.7697   73.1151   -5.8011 C.ar    1  UNL1        0.0869
     21 O          19.8598   70.4252   -6.4052 O.2     1  UNL1       -0.2464
     22 O          18.6390   73.7092   -9.1313 O.2     1  UNL1       -0.2670
     23 H          19.8210   71.6478   -8.5135 H       1  UNL1        0.1734
     24 O          21.6300   70.7175    1.2803 O.3     1  UNL1       -0.2703
     25 P          21.4906   72.3176    1.3806 P.3     1  UNL1        0.2208
     26 O          22.8375   72.9294    1.4032 O.2     1  UNL1       -0.5170
     27 O          20.6741   72.8659    0.1051 O.3     1  UNL1       -0.4371
     28 O          20.7013   72.7052    2.7285 O.3     1  UNL1       -0.2858
     29 C          21.3498   73.8554    3.2729 C.3     1  UNL1        0.2704
     30 C          21.2372   73.8292    4.7980 C.3     1  UNL1        0.1967
     31 C          19.7561   73.8080    5.1883 C.3     1  UNL1        0.1715
     32 C          19.0516   74.9839    4.5023 C.3     1  UNL1        0.1694
     33 C          19.3286   74.9212    2.9982 C.3     1  UNL1        0.1761
     34 O          21.8843   72.6611    5.3058 O.3     1  UNL1       -0.3775
     35 O          19.6315   73.9318    6.6066 O.3     1  UNL1       -0.3794
     36 O          19.5473   76.2136    5.0335 O.3     1  UNL1       -0.3794
     37 O          20.7313   75.0339    2.7620 O.3     1  UNL1       -0.3258
     38 H          22.8099   72.7131    5.0309 H       1  UNL1        0.2106
     39 H          20.0976   73.1807    6.9951 H       1  UNL1        0.2105
     40 H          19.3567   76.2064    5.9805 H       1  UNL1        0.2105
     41 C          18.6012   76.0718    2.2990 C.3     1  UNL1        0.1693
     42 O          17.8766   75.5644    1.1771 O.3     1  UNL1       -0.3794
     43 H          17.4332   76.3191    0.7658 H       1  UNL1        0.2105
@<TRIPOS>BOND
     1    15    16   ar
     2    15    20   ar
     3    15     6    1
     4    16    17   ar
     5    16    21    2
     6    17    18   ar
     7    17    23    1
     8    18    19   ar
     9    18    22    2
    10    19    20   ar
    11     6     7    1
    12     6    11    1
    13     7     8    1
    14     7     9    1
    15     8    13    1
    16     9    10    1
    17     9    12    1
    18    10    11    1
    19    10     5    1
    20    12    14    1
    21     5     4    1
    22     4     1    1
    23     1     2    2
    24     1     3    1
    25     1    24    1
    26    24    25    1
    27    25    26    2
    28    25    27    1
    29    25    28    1
    30    28    29    1
    31    29    30    1
    32    29    37    1
    33    30    31    1
    34    30    34    1
    35    31    32    1
    36    31    35    1
    37    32    33    1
    38    32    36    1
    39    33    41    1
    40    33    37    1
    41    41    42    1
    42    34    38    1
    43    35    39    1
    44    36    40    1
    45    42    43    1
