@<TRIPOS>MOLECULE
UDP-glaA
 43 45 0 0 0
SMALL
GASTEIGER

@<TRIPOS>ATOM
      1 P          22.4765   71.6137   -2.9597 P.3     1  UNL1        0.2189
      2 O          22.2520   73.1935   -2.6928 O.3     1  UNL1       -0.4371
      3 O          23.8767   71.2284   -3.3379 O.2     1  UNL1       -0.5170
      4 O          21.3283   71.2328   -4.0331 O.3     1  UNL1       -0.3112
      5 C          20.4634   70.1478   -3.7436 C.3     1  UNL1        0.1811
      6 O          18.6796   71.3898   -4.7683 O.3     1  UNL1       -0.3308
      7 O          16.8802   70.1280   -2.7284 O.3     1  UNL1       -0.3794
      8 O          16.3921   68.6352   -4.9576 O.3     1  UNL1       -0.3779
      9 C          18.0092   69.5733   -3.4032 C.3     1  UNL1        0.1713
     10 C          17.6569   69.2535   -4.8407 C.3     1  UNL1        0.1895
     11 C          19.0468   70.6760   -3.5671 C.3     1  UNL1        0.1764
     12 C          17.6976   70.6270   -5.4888 C.3     1  UNL1        0.2383
     13 H          17.1636   70.3526   -1.8258 H       1  UNL1        0.2105
     14 H          16.4148   67.8199   -4.4275 H       1  UNL1        0.2106
     15 O          15.8908   70.2015   -7.6171 O.2     1  UNL1       -0.2464
     16 O          19.2551   70.4225  -10.7589 O.2     1  UNL1       -0.2670
     17 N          18.0738   70.5693   -6.8724 N.ar    1  UNL1       -0.2551
     18 N          17.5674   70.3113   -9.1802 N.ar    1  UNL1       -0.2743
     19 C          17.0890   70.3500   -7.8638 C.ar    1  UNL1        0.3323
     20 C          19.4065   70.7290   -7.2356 C.ar    1  UNL1        0.0869
     21 C          19.8466   70.6901   -8.4952 C.ar    1  UNL1        0.0795
     22 C          18.8827   70.4644   -9.5904 C.ar    1  UNL1        0.2626
     23 H          16.8771   70.1542   -9.9096 H       1  UNL1        0.1734
     24 O          21.9367   70.9353   -1.5946 O.3     1  UNL1       -0.2703
     25 P          21.2563   71.5895   -0.2825 P.3     1  UNL1        0.2208
     26 O          21.2101   70.3578    0.7649 O.3     1  UNL1       -0.4371
     27 O          19.9253   72.2373   -0.5369 O.2     1  UNL1       -0.5170
     28 O          22.3805   72.5855    0.3076 O.3     1  UNL1       -0.2858
     29 O          23.5030   71.8284    2.2483 O.3     1  UNL1       -0.3226
     30 O          24.6851   75.8090    2.0554 O.3     1  UNL1       -0.3794
     31 O          21.9311   75.0510    1.4661 O.3     1  UNL1       -0.3775
     32 O          25.3625   73.5862    3.5487 O.3     1  UNL1       -0.3792
     33 C          24.2992   74.5186    1.5905 C.3     1  UNL1        0.1718
     34 C          22.8829   74.1799    2.0679 C.3     1  UNL1        0.1968
     35 C          25.2932   73.4827    2.1228 C.3     1  UNL1        0.1723
     36 C          22.5246   72.7298    1.7199 C.3     1  UNL1        0.2706
     37 C          24.8180   72.0789    1.7545 C.3     1  UNL1        0.1830
     38 H          25.5862   75.9798    1.7324 H       1  UNL1        0.2105
     39 H          21.0516   74.7931    1.7899 H       1  UNL1        0.2106
     40 H          24.5492   73.2099    3.9257 H       1  UNL1        0.2106
     41 O          24.9675   69.9219    2.6649 O.co2   1  UNL1       -0.5466
     42 O          26.8902   71.1428    2.5667 O.co2   1  UNL1       -0.5466
     43 C          25.6898   71.0283    2.3653 C.2     1  UNL1        0.0799
@<TRIPOS>UNITY_ATOM_ATTR
41 1
charge -1
@<TRIPOS>BOND
     1     1     4    1
     2     1    24    1
     3     1     2    1
     4     1     3    2
     5    25    28    1
     6    25    24    1
     7    25    26    1
     8    25    27    2
     9     6    11    1
    10     6    12    1
    11    29    36    1
    12    29    37    1
    13     7     9    1
    14     7    13    1
    15     8    10    1
    16     8    14    1
    17     4     5    1
    18    28    36    1
    19    30    33    1
    20    30    38    1
    21    31    34    1
    22    31    39    1
    23    32    35    1
    24    32    40    1
    25    41    43   ar
    26    15    19    2
    27    42    43   ar
    28    16    22    2
    29    17    12    1
    30    17    19   ar
    31    17    20   ar
    32    18    19   ar
    33    18    22   ar
    34    18    23    1
    35     9    10    1
    36     9    11    1
    37    10    12    1
    38    11     5    1
    39    33    34    1
    40    33    35    1
    41    34    36    1
    42    35    37    1
    43    37    43    1
    44    20    21   ar
    45    21    22   ar
@<TRIPOS>MOLECULE
UDP-glaA
 43 45 0 0 0
SMALL
GASTEIGER

@<TRIPOS>ATOM
      1 P          21.3471   71.6032   -2.4339 P.3     1  UNL1        0.2189
      2 O          21.2563   72.9923   -3.2581 O.3     1  UNL1       -0.4371
      3 O          22.3248   70.6050   -2.9815 O.2     1  UNL1       -0.5170
      4 O          19.8115   71.1045   -2.3402 O.3     1  UNL1       -0.3112
      5 C          19.2627   70.3918   -3.4357 C.3     1  UNL1        0.1811
      6 O          17.5647   71.4048   -4.8013 O.3     1  UNL1       -0.3308
      7 O          15.5866   69.8634   -3.1574 O.3     1  UNL1       -0.3794
      8 O          15.7606   68.3714   -5.4332 O.3     1  UNL1       -0.3779
      9 C          16.8924   69.4826   -3.5907 C.3     1  UNL1        0.1713
     10 C          16.8799   69.1522   -5.0682 C.3     1  UNL1        0.1895
     11 C          17.7806   70.7191   -3.5481 C.3     1  UNL1        0.1764
     12 C          16.8595   70.5335   -5.7005 C.3     1  UNL1        0.2383
     13 H          15.6516   70.1029   -2.2172 H       1  UNL1        0.2105
     14 H          15.7893   67.5544   -4.9062 H       1  UNL1        0.2106
     15 O          15.5007   70.5555   -8.1761 O.2     1  UNL1       -0.2464
     16 O          19.4496   70.6330  -10.5507 O.2     1  UNL1       -0.2670
     17 N          17.5073   70.5599   -6.9807 N.ar    1  UNL1       -0.2551
     18 N          17.4680   70.5936   -9.3569 N.ar    1  UNL1       -0.2743
     19 C          16.7329   70.5682   -8.1644 C.ar    1  UNL1        0.3323
     20 C          18.8957   70.5772   -7.0548 C.ar    1  UNL1        0.0869
     21 C          19.5818   70.6019   -8.1996 C.ar    1  UNL1        0.0795
     22 C          18.8486   70.6111   -9.4810 C.ar    1  UNL1        0.2626
     23 H          16.9320   70.5993  -10.2205 H       1  UNL1        0.1734
     24 O          21.6614   72.0963   -0.9261 O.3     1  UNL1       -0.2703
     25 P          22.2956   71.3105    0.3359 P.3     1  UNL1        0.2208
     26 O          23.8017   70.9791   -0.1521 O.3     1  UNL1       -0.4371
     27 O          21.5071   70.1093    0.7731 O.2     1  UNL1       -0.5170
     28 O          22.4744   72.4409    1.4736 O.3     1  UNL1       -0.2858
     29 O          24.1671   72.4205    3.1270 O.3     1  UNL1       -0.3226
     30 O          21.2230   74.7412    4.9231 O.3     1  UNL1       -0.3794
     31 O          20.5089   72.3521    3.4105 O.3     1  UNL1       -0.3775
     32 O          23.8458   74.0612    5.4601 O.3     1  UNL1       -0.3792
     33 C          22.0239   74.1936    3.8796 C.3     1  UNL1        0.1718
     34 C          21.8384   72.6743    3.8048 C.3     1  UNL1        0.1968
     35 C          23.4924   74.5291    4.1543 C.3     1  UNL1        0.1723
     36 C          22.8214   72.0557    2.8030 C.3     1  UNL1        0.2706
     37 C          24.3794   73.8314    3.1255 C.3     1  UNL1        0.1830
     38 H          21.3737   75.7018    4.9352 H       1  UNL1        0.2105
     39 H          20.4421   71.3833    3.3679 H       1  UNL1        0.2106
     40 H          23.9242   73.0927    5.4304 H       1  UNL1        0.2106
     41 O          26.0236   75.1759    4.1218 O.co2   1  UNL1       -0.5466
     42 O          26.7243   73.2559    3.1119 O.co2   1  UNL1       -0.5466
     43 C          25.8303   74.0257    3.4324 C.2     1  UNL1        0.0799
@<TRIPOS>UNITY_ATOM_ATTR
41 1
charge -1
@<TRIPOS>BOND
     1     1     4    1
     2     1    24    1
     3     1     2    1
     4     1     3    2
     5    25    28    1
     6    25    24    1
     7    25    26    1
     8    25    27    2
     9     6    11    1
    10     6    12    1
    11    29    36    1
    12    29    37    1
    13     7     9    1
    14     7    13    1
    15     8    10    1
    16     8    14    1
    17     4     5    1
    18    28    36    1
    19    30    33    1
    20    30    38    1
    21    31    34    1
    22    31    39    1
    23    32    35    1
    24    32    40    1
    25    41    43   ar
    26    15    19    2
    27    42    43   ar
    28    16    22    2
    29    17    12    1
    30    17    19   ar
    31    17    20   ar
    32    18    19   ar
    33    18    22   ar
    34    18    23    1
    35     9    10    1
    36     9    11    1
    37    10    12    1
    38    11     5    1
    39    33    34    1
    40    33    35    1
    41    34    36    1
    42    35    37    1
    43    37    43    1
    44    20    21   ar
    45    21    22   ar
@<TRIPOS>MOLECULE
UDP-glaA
 43 45 0 0 0
SMALL
GASTEIGER

@<TRIPOS>ATOM
      1 P          22.8479   71.5202   -2.6849 P.3     1  UNL1        0.2189
      2 O          22.8804   73.1063   -2.3674 O.3     1  UNL1       -0.4371
      3 O          24.1767   70.9177   -3.0361 O.2     1  UNL1       -0.5170
      4 O          21.6903   71.3705   -3.8043 O.3     1  UNL1       -0.3112
      5 C          21.5996   72.3542   -4.8208 C.3     1  UNL1        0.1811
      6 O          20.5735   70.4940   -5.9438 O.3     1  UNL1       -0.3308
      7 O          20.9591   72.0513   -8.4771 O.3     1  UNL1       -0.3794
      8 O          18.3230   72.4679   -7.9173 O.3     1  UNL1       -0.3779
      9 C          20.6355   72.5210   -7.1685 C.3     1  UNL1        0.1713
     10 C          19.1933   72.2003   -6.8372 C.3     1  UNL1        0.1895
     11 C          21.3919   71.6645   -6.1616 C.3     1  UNL1        0.1764
     12 C          19.2681   70.7207   -6.5004 C.3     1  UNL1        0.2383
     13 H          21.9001   72.2433   -8.6295 H       1  UNL1        0.2105
     14 H          18.4152   73.4101   -8.1408 H       1  UNL1        0.2106
     15 O          16.6470   69.9027   -7.1605 O.2     1  UNL1       -0.2464
     16 O          15.5466   69.2299   -2.7361 O.2     1  UNL1       -0.2670
     17 N          18.2763   70.3259   -5.5414 N.ar    1  UNL1       -0.2551
     18 N          16.1006   69.5687   -4.9568 N.ar    1  UNL1       -0.2743
     19 C          16.9892   69.9331   -5.9770 C.ar    1  UNL1        0.3323
     20 C          18.5830   70.3306   -4.1852 C.ar    1  UNL1        0.0869
     21 C          17.7248   69.9800   -3.2247 C.ar    1  UNL1        0.0795
     22 C          16.3595   69.5577   -3.5950 C.ar    1  UNL1        0.2626
     23 H          15.1691   69.2833   -5.2467 H       1  UNL1        0.1734
     24 O          22.1557   70.8999   -1.3616 O.3     1  UNL1       -0.2703
     25 P          22.4961   71.0999    0.2058 P.3     1  UNL1        0.2208
     26 O          24.0975   70.8813    0.2686 O.3     1  UNL1       -0.4371
     27 O          21.7121   70.2077    1.1251 O.2     1  UNL1       -0.5170
     28 O          22.2886   72.6780    0.4713 O.3     1  UNL1       -0.2858
     29 O          21.3594   73.3438    2.5432 O.3     1  UNL1       -0.3226
     30 O          20.9805   76.8016    0.2672 O.3     1  UNL1       -0.3794
     31 O          20.4324   74.1882   -0.9058 O.3     1  UNL1       -0.3775
     32 O          20.6259   76.0940    2.9136 O.3     1  UNL1       -0.3792
     33 C          21.5494   75.5840    0.7406 C.3     1  UNL1        0.1718
     34 C          20.5918   74.4140    0.4908 C.3     1  UNL1        0.1968
     35 C          21.8316   75.7191    2.2395 C.3     1  UNL1        0.1723
     36 C          21.1174   73.1319    1.1484 C.3     1  UNL1        0.2706
     37 C          22.3087   74.3788    2.7947 C.3     1  UNL1        0.1830
     38 H          21.6182   77.5131    0.4479 H       1  UNL1        0.2105
     39 H          19.8275   73.4351   -1.0141 H       1  UNL1        0.2106
     40 H          20.0382   75.3203    2.9486 H       1  UNL1        0.2106
     41 O          22.2031   73.2219    4.8329 O.co2   1  UNL1       -0.5466
     42 O          22.8070   75.4185    4.9161 O.co2   1  UNL1       -0.5466
     43 C          22.4728   74.4293    4.2805 C.2     1  UNL1        0.0799
@<TRIPOS>UNITY_ATOM_ATTR
41 1
charge -1
@<TRIPOS>BOND
     1     1     4    1
     2     1    24    1
     3     1     2    1
     4     1     3    2
     5    25    28    1
     6    25    24    1
     7    25    26    1
     8    25    27    2
     9     6    11    1
    10     6    12    1
    11    29    36    1
    12    29    37    1
    13     7     9    1
    14     7    13    1
    15     8    10    1
    16     8    14    1
    17     4     5    1
    18    28    36    1
    19    30    33    1
    20    30    38    1
    21    31    34    1
    22    31    39    1
    23    32    35    1
    24    32    40    1
    25    41    43   ar
    26    15    19    2
    27    42    43   ar
    28    16    22    2
    29    17    12    1
    30    17    19   ar
    31    17    20   ar
    32    18    19   ar
    33    18    22   ar
    34    18    23    1
    35     9    10    1
    36     9    11    1
    37    10    12    1
    38    11     5    1
    39    33    34    1
    40    33    35    1
    41    34    36    1
    42    35    37    1
    43    37    43    1
    44    20    21   ar
    45    21    22   ar
@<TRIPOS>MOLECULE
UDP-glaA
 43 45 0 0 0
SMALL
GASTEIGER

@<TRIPOS>ATOM
      1 P          22.5621   72.5862   -4.8186 P.3     1  UNL1        0.2189
      2 O          23.0201   72.5468   -6.3698 O.3     1  UNL1       -0.4371
      3 O          23.4632   71.8466   -3.8736 O.2     1  UNL1       -0.5170
      4 O          21.0228   72.0915   -4.8542 O.3     1  UNL1       -0.3112
      5 C          20.5701   71.2124   -3.8385 C.3     1  UNL1        0.1811
      6 O          18.5109   71.8691   -4.8885 O.3     1  UNL1       -0.3308
      7 O          17.1281   70.4815   -2.6184 O.3     1  UNL1       -0.3794
      8 O          16.9421   68.6551   -4.6347 O.3     1  UNL1       -0.3779
      9 C          18.3355   70.1272   -3.2924 C.3     1  UNL1        0.1713
     10 C          18.0257   69.5609   -4.6620 C.3     1  UNL1        0.1895
     11 C          19.0746   71.4131   -3.6390 C.3     1  UNL1        0.1764
     12 C          17.7175   70.8161   -5.4604 C.3     1  UNL1        0.2383
     13 H          17.3773   70.8745   -1.7646 H       1  UNL1        0.2105
     14 H          17.1750   67.9386   -4.0194 H       1  UNL1        0.2106
     15 O          15.8278   70.6936   -7.5555 O.2     1  UNL1       -0.2464
     16 O          19.1241   70.2876  -10.7505 O.2     1  UNL1       -0.2670
     17 N          18.0539   70.6792   -6.8487 N.ar    1  UNL1       -0.2551
     18 N          17.4705   70.4910   -9.1451 N.ar    1  UNL1       -0.2743
     19 C          17.0291   70.6265   -7.8222 C.ar    1  UNL1        0.3323
     20 C          19.3875   70.5983   -7.2341 C.ar    1  UNL1        0.0869
     21 C          19.7922   70.4698   -8.4996 C.ar    1  UNL1        0.0795
     22 C          18.7850   70.4061   -9.5771 C.ar    1  UNL1        0.2626
     23 H          16.7509   70.4503   -9.8618 H       1  UNL1        0.1734
     24 O          22.4277   74.1699   -4.5206 O.3     1  UNL1       -0.2703
     25 P          22.0034   74.9639   -3.1782 P.3     1  UNL1        0.2208
     26 O          20.4156   74.6777   -3.0640 O.3     1  UNL1       -0.4371
     27 O          22.3723   76.4199   -3.1811 O.2     1  UNL1       -0.5170
     28 O          22.6596   74.1124   -1.9748 O.3     1  UNL1       -0.2858
     29 O          21.8103   72.9873   -0.0741 O.3     1  UNL1       -0.3226
     30 O          25.2640   74.7475    1.4267 O.3     1  UNL1       -0.3794
     31 O          23.5318   76.2111   -0.4072 O.3     1  UNL1       -0.3775
     32 O          23.3901   72.9260    2.3215 O.3     1  UNL1       -0.3792
     33 C          24.3998   74.1224    0.4819 C.3     1  UNL1        0.1718
     34 C          23.1638   74.9927    0.2307 C.3     1  UNL1        0.1968
     35 C          23.9762   72.7556    1.0268 C.3     1  UNL1        0.1723
     36 C          22.1487   74.2534   -0.6499 C.3     1  UNL1        0.2706
     37 C          22.9389   72.1312    0.0961 C.3     1  UNL1        0.1830
     38 H          26.0294   74.1619    1.5565 H       1  UNL1        0.2105
     39 H          22.7185   76.7228   -0.5539 H       1  UNL1        0.2106
     40 H          22.5062   73.3157    2.2116 H       1  UNL1        0.2106
     41 O          23.3797   70.1529    1.2776 O.co2   1  UNL1       -0.5466
     42 O          21.2377   70.4851    0.5715 O.co2   1  UNL1       -0.5466
     43 C          22.4004   70.8531    0.6560 C.2     1  UNL1        0.0799
@<TRIPOS>UNITY_ATOM_ATTR
41 1
charge -1
@<TRIPOS>BOND
     1     1     4    1
     2     1    24    1
     3     1     2    1
     4     1     3    2
     5    25    28    1
     6    25    24    1
     7    25    26    1
     8    25    27    2
     9     6    11    1
    10     6    12    1
    11    29    36    1
    12    29    37    1
    13     7     9    1
    14     7    13    1
    15     8    10    1
    16     8    14    1
    17     4     5    1
    18    28    36    1
    19    30    33    1
    20    30    38    1
    21    31    34    1
    22    31    39    1
    23    32    35    1
    24    32    40    1
    25    41    43   ar
    26    15    19    2
    27    42    43   ar
    28    16    22    2
    29    17    12    1
    30    17    19   ar
    31    17    20   ar
    32    18    19   ar
    33    18    22   ar
    34    18    23    1
    35     9    10    1
    36     9    11    1
    37    10    12    1
    38    11     5    1
    39    33    34    1
    40    33    35    1
    41    34    36    1
    42    35    37    1
    43    37    43    1
    44    20    21   ar
    45    21    22   ar
@<TRIPOS>MOLECULE
UDP-glaA
 43 45 0 0 0
SMALL
GASTEIGER

@<TRIPOS>ATOM
      1 P          21.0899   72.8961   -4.2009 P.3     1  UNL1        0.2189
      2 O          20.5490   74.0292   -3.1806 O.3     1  UNL1       -0.4371
      3 O          21.9163   73.4139   -5.3415 O.2     1  UNL1       -0.5170
      4 O          19.7587   72.0755   -4.6132 O.3     1  UNL1       -0.3112
      5 C          19.1220   71.2786   -3.6288 C.3     1  UNL1        0.1811
      6 O          17.3520   71.7863   -5.1727 O.3     1  UNL1       -0.3308
      7 O          15.5425   70.3063   -3.2947 O.3     1  UNL1       -0.3794
      8 O          15.9936   68.4692   -5.2587 O.3     1  UNL1       -0.3779
      9 C          16.9017   70.0380   -3.6386 C.3     1  UNL1        0.1713
     10 C          16.9848   69.4497   -5.0313 C.3     1  UNL1        0.1895
     11 C          17.6141   71.3728   -3.8135 C.3     1  UNL1        0.1764
     12 C          16.8015   70.6790   -5.9049 C.3     1  UNL1        0.2383
     13 H          15.5421   70.7170   -2.4133 H       1  UNL1        0.2105
     14 H          16.1133   67.7717   -4.5914 H       1  UNL1        0.2106
     15 O          15.5384   70.8364   -8.4259 O.2     1  UNL1       -0.2464
     16 O          19.5207   70.2245  -10.6632 O.2     1  UNL1       -0.2670
     17 N          17.4838   70.5648   -7.1621 N.ar    1  UNL1       -0.2551
     18 N          17.5222   70.5311   -9.5383 N.ar    1  UNL1       -0.2743
     19 C          16.7565   70.6573   -8.3717 C.ar    1  UNL1        0.3323
     20 C          18.8594   70.3633   -7.1884 C.ar    1  UNL1        0.0869
     21 C          19.5752   70.2455   -8.3089 C.ar    1  UNL1        0.0795
     22 C          18.8916   70.3295   -9.6148 C.ar    1  UNL1        0.2626
     23 H          17.0202   70.5937  -10.4198 H       1  UNL1        0.1734
     24 O          21.8627   71.8664   -3.2223 O.3     1  UNL1       -0.2703
     25 P          23.3444   71.9246   -2.5792 P.3     1  UNL1        0.2208
     26 O          23.9143   73.3501   -3.0883 O.3     1  UNL1       -0.4371
     27 O          24.2132   70.7497   -2.9267 O.2     1  UNL1       -0.5170
     28 O          23.0961   72.1254   -0.9974 O.3     1  UNL1       -0.2858
     29 O          24.4341   71.1386    0.6865 O.3     1  UNL1       -0.3226
     30 O          20.8609   71.8167    2.6992 O.3     1  UNL1       -0.3794
     31 O          20.8513   70.8304   -0.0454 O.3     1  UNL1       -0.3775
     32 O          23.4165   71.0087    3.3671 O.3     1  UNL1       -0.3792
     33 C          21.9210   72.0369    1.7730 C.3     1  UNL1        0.1718
     34 C          22.0116   70.8747    0.7783 C.3     1  UNL1        0.1968
     35 C          23.2357   72.1678    2.5469 C.3     1  UNL1        0.1723
     36 C          23.2523   71.0173   -0.1121 C.3     1  UNL1        0.2706
     37 C          24.4018   72.2620    1.5654 C.3     1  UNL1        0.1830
     38 H          20.8424   72.5737    3.3093 H       1  UNL1        0.2105
     39 H          20.9581   70.0874   -0.6629 H       1  UNL1        0.2106
     40 H          23.6614   70.2612    2.7959 H       1  UNL1        0.2106
     41 O          26.1908   70.9980    2.4054 O.co2   1  UNL1       -0.5466
     42 O          26.2942   73.2580    2.6864 O.co2   1  UNL1       -0.5466
     43 C          25.7174   72.2609    2.2770 C.2     1  UNL1        0.0799
@<TRIPOS>UNITY_ATOM_ATTR
41 1
charge -1
@<TRIPOS>BOND
     1     1     4    1
     2     1    24    1
     3     1     2    1
     4     1     3    2
     5    25    28    1
     6    25    24    1
     7    25    26    1
     8    25    27    2
     9     6    11    1
    10     6    12    1
    11    29    36    1
    12    29    37    1
    13     7     9    1
    14     7    13    1
    15     8    10    1
    16     8    14    1
    17     4     5    1
    18    28    36    1
    19    30    33    1
    20    30    38    1
    21    31    34    1
    22    31    39    1
    23    32    35    1
    24    32    40    1
    25    41    43   ar
    26    15    19    2
    27    42    43   ar
    28    16    22    2
    29    17    12    1
    30    17    19   ar
    31    17    20   ar
    32    18    19   ar
    33    18    22   ar
    34    18    23    1
    35     9    10    1
    36     9    11    1
    37    10    12    1
    38    11     5    1
    39    33    34    1
    40    33    35    1
    41    34    36    1
    42    35    37    1
    43    37    43    1
    44    20    21   ar
    45    21    22   ar
@<TRIPOS>MOLECULE
UDP-glaA
 43 45 0 0 0
SMALL
GASTEIGER

@<TRIPOS>ATOM
      1 P          23.4440   71.9532   -3.3737 P.3     1  UNL1        0.2189
      2 O          24.1636   72.9011   -4.4696 O.3     1  UNL1       -0.4371
      3 O          24.2581   70.7758   -2.9230 O.2     1  UNL1       -0.5170
      4 O          22.0125   71.6041   -4.0403 O.3     1  UNL1       -0.3112
      5 C          21.4957   72.4764   -5.0309 C.3     1  UNL1        0.1811
      6 O          20.5319   70.5056   -6.0113 O.3     1  UNL1       -0.3308
      7 O          20.7881   71.9172   -8.6443 O.3     1  UNL1       -0.3794
      8 O          18.1488   72.2496   -8.0447 O.3     1  UNL1       -0.3779
      9 C          20.4725   72.4528   -7.3593 C.3     1  UNL1        0.1713
     10 C          19.0545   72.0892   -6.9726 C.3     1  UNL1        0.1895
     11 C          21.2901   71.6956   -6.3211 C.3     1  UNL1        0.1764
     12 C          19.2053   70.6384   -6.5476 C.3     1  UNL1        0.2383
     13 H          21.7155   72.1414   -8.8319 H       1  UNL1        0.2105
     14 H          18.1922   73.1791   -8.3280 H       1  UNL1        0.2106
     15 O          16.5676   69.7846   -7.0852 O.2     1  UNL1       -0.2464
     16 O          15.6444   69.2143   -2.6063 O.2     1  UNL1       -0.2670
     17 N          18.2546   70.2602   -5.5414 N.ar    1  UNL1       -0.2551
     18 N          16.1095   69.5017   -4.8545 N.ar    1  UNL1       -0.2743
     19 C          16.9550   69.8471   -5.9170 C.ar    1  UNL1        0.3323
     20 C          18.6133   70.3011   -4.1986 C.ar    1  UNL1        0.0869
     21 C          17.7958   69.9682   -3.1973 C.ar    1  UNL1        0.0795
     22 C          16.4208   69.5266   -3.5038 C.ar    1  UNL1        0.2626
     23 H          15.1699   69.2021   -5.1009 H       1  UNL1        0.1734
     24 O          23.0532   72.9917   -2.1972 O.3     1  UNL1       -0.2703
     25 P          23.1577   72.8608   -0.5896 P.3     1  UNL1        0.2208
     26 O          21.6112   72.7816   -0.1224 O.3     1  UNL1       -0.4371
     27 O          23.9485   73.9557    0.0674 O.2     1  UNL1       -0.5170
     28 O          23.7373   71.3762   -0.3369 O.3     1  UNL1       -0.2858
     29 O          24.7747   71.6182    1.7760 O.3     1  UNL1       -0.3226
     30 O          20.7778   72.3113    2.6836 O.3     1  UNL1       -0.3794
     31 O          21.5293   70.1935    0.8245 O.3     1  UNL1       -0.3775
     32 O          23.1975   72.5152    4.0001 O.3     1  UNL1       -0.3792
     33 C          21.9822   72.3140    1.9223 C.3     1  UNL1        0.1718
     34 C          22.4536   70.8792    1.6626 C.3     1  UNL1        0.1968
     35 C          23.0549   73.0861    2.6953 C.3     1  UNL1        0.1723
     36 C          23.8344   70.8735    0.9950 C.3     1  UNL1        0.2706
     37 C          24.3912   72.9796    1.9637 C.3     1  UNL1        0.1830
     38 H          20.5184   73.2376    2.8257 H       1  UNL1        0.2105
     39 H          21.8736   69.2959    0.6808 H       1  UNL1        0.2106
     40 H          23.6649   71.6668    3.9167 H       1  UNL1        0.2106
     41 O          25.0928   74.7876    3.2839 O.co2   1  UNL1       -0.5466
     42 O          26.6130   73.1336    2.8962 O.co2   1  UNL1       -0.5466
     43 C          25.4969   73.6101    2.7492 C.2     1  UNL1        0.0799
@<TRIPOS>UNITY_ATOM_ATTR
41 1
charge -1
@<TRIPOS>BOND
     1     1     4    1
     2     1    24    1
     3     1     2    1
     4     1     3    2
     5    25    28    1
     6    25    24    1
     7    25    26    1
     8    25    27    2
     9     6    11    1
    10     6    12    1
    11    29    36    1
    12    29    37    1
    13     7     9    1
    14     7    13    1
    15     8    10    1
    16     8    14    1
    17     4     5    1
    18    28    36    1
    19    30    33    1
    20    30    38    1
    21    31    34    1
    22    31    39    1
    23    32    35    1
    24    32    40    1
    25    41    43   ar
    26    15    19    2
    27    42    43   ar
    28    16    22    2
    29    17    12    1
    30    17    19   ar
    31    17    20   ar
    32    18    19   ar
    33    18    22   ar
    34    18    23    1
    35     9    10    1
    36     9    11    1
    37    10    12    1
    38    11     5    1
    39    33    34    1
    40    33    35    1
    41    34    36    1
    42    35    37    1
    43    37    43    1
    44    20    21   ar
    45    21    22   ar
@<TRIPOS>MOLECULE
UDP-glaA
 43 45 0 0 0
SMALL
GASTEIGER

@<TRIPOS>ATOM
      1 P          23.5186   72.4404   -3.4187 P.3     1  UNL1        0.2189
      2 O          24.0882   70.9413   -3.2049 O.3     1  UNL1       -0.4371
      3 O          24.5337   73.4429   -3.8843 O.2     1  UNL1       -0.5170
      4 O          22.7845   72.7817   -2.0186 O.3     1  UNL1       -0.3112
      5 C          23.5543   72.7652   -0.8285 C.3     1  UNL1        0.1811
      6 O          24.5576   71.0659    0.5427 O.3     1  UNL1       -0.3308
      7 O          21.7603   70.2270    1.2233 O.3     1  UNL1       -0.3794
      8 O          22.5002   71.6682    3.4168 O.3     1  UNL1       -0.3779
      9 C          22.2811   71.5371    0.9990 C.3     1  UNL1        0.1713
     10 C          23.1135   71.9812    2.1833 C.3     1  UNL1        0.1895
     11 C          23.3241   71.4449   -0.1070 C.3     1  UNL1        0.1764
     12 C          24.4078   71.2165    1.9640 C.3     1  UNL1        0.2383
     13 H          21.2685   69.9701    0.4248 H       1  UNL1        0.2105
     14 H          21.6324   72.1075    3.4320 H       1  UNL1        0.2106
     15 O          24.4089   73.9356    2.7266 O.2     1  UNL1       -0.2464
     16 O          28.8520   73.7825    3.9406 O.2     1  UNL1       -0.2670
     17 N          25.5504   71.9125    2.4830 N.ar    1  UNL1       -0.2551
     18 N          26.6215   73.8577    3.3302 N.ar    1  UNL1       -0.2743
     19 C          25.4457   73.2784    2.8353 C.ar    1  UNL1        0.3323
     20 C          26.7587   71.2422    2.6383 C.ar    1  UNL1        0.0869
     21 C          27.8708   71.8085    3.1120 C.ar    1  UNL1        0.0795
     22 C          27.8466   73.2321    3.5023 C.ar    1  UNL1        0.2626
     23 H          26.5699   74.8392    3.5893 H       1  UNL1        0.1734
     24 O          22.2794   72.2159   -4.4331 O.3     1  UNL1       -0.2703
     25 P          20.8621   71.4668   -4.2262 P.3     1  UNL1        0.2208
     26 O          20.0971   72.4087   -3.1568 O.3     1  UNL1       -0.4371
     27 O          20.9806   70.0280   -3.8119 O.2     1  UNL1       -0.5170
     28 O          20.0710   71.6980   -5.6135 O.3     1  UNL1       -0.2858
     29 O          18.5397   69.8941   -5.6385 O.3     1  UNL1       -0.3226
     30 O          17.2956   72.1381   -8.9090 O.3     1  UNL1       -0.3794
     31 O          20.1359   71.7492   -8.3732 O.3     1  UNL1       -0.3775
     32 O          16.3577   69.9537   -7.5022 O.3     1  UNL1       -0.3792
     33 C          17.8294   71.8658   -7.6162 C.3     1  UNL1        0.1718
     34 C          19.0990   71.0152   -7.7306 C.3     1  UNL1        0.1968
     35 C          16.7744   71.1239   -6.7910 C.3     1  UNL1        0.1723
     36 C          19.5836   70.5734   -6.3441 C.3     1  UNL1        0.2706
     37 C          17.3755   70.6979   -5.4534 C.3     1  UNL1        0.1830
     38 H          16.4940   72.6752   -8.7882 H       1  UNL1        0.2105
     39 H          20.9195   71.1754   -8.4141 H       1  UNL1        0.2106
     40 H          17.0685   69.2924   -7.4523 H       1  UNL1        0.2106
     41 O          15.8840   70.5693   -3.6470 O.co2   1  UNL1       -0.5466
     42 O          16.1527   68.6888   -4.9074 O.co2   1  UNL1       -0.5466
     43 C          16.4204   69.8571   -4.6672 C.2     1  UNL1        0.0799
@<TRIPOS>UNITY_ATOM_ATTR
41 1
charge -1
@<TRIPOS>BOND
     1     1     4    1
     2     1    24    1
     3     1     2    1
     4     1     3    2
     5    25    28    1
     6    25    24    1
     7    25    26    1
     8    25    27    2
     9     6    11    1
    10     6    12    1
    11    29    36    1
    12    29    37    1
    13     7     9    1
    14     7    13    1
    15     8    10    1
    16     8    14    1
    17     4     5    1
    18    28    36    1
    19    30    33    1
    20    30    38    1
    21    31    34    1
    22    31    39    1
    23    32    35    1
    24    32    40    1
    25    41    43   ar
    26    15    19    2
    27    42    43   ar
    28    16    22    2
    29    17    12    1
    30    17    19   ar
    31    17    20   ar
    32    18    19   ar
    33    18    22   ar
    34    18    23    1
    35     9    10    1
    36     9    11    1
    37    10    12    1
    38    11     5    1
    39    33    34    1
    40    33    35    1
    41    34    36    1
    42    35    37    1
    43    37    43    1
    44    20    21   ar
    45    21    22   ar
@<TRIPOS>MOLECULE
UDP-glaA
 43 45 0 0 0
SMALL
GASTEIGER

@<TRIPOS>ATOM
      1 P          21.0600   73.1097   -2.0531 P.3     1  UNL1        0.2189
      2 O          19.5215   73.5854   -2.2082 O.3     1  UNL1       -0.4371
      3 O          22.0212   74.1934   -1.6610 O.2     1  UNL1       -0.5170
      4 O          21.3786   72.3592   -3.4499 O.3     1  UNL1       -0.3112
      5 C          21.2915   73.1027   -4.6536 C.3     1  UNL1        0.1811
      6 O          20.7832   70.9109   -5.4974 O.3     1  UNL1       -0.3308
      7 O          21.3774   72.0245   -8.2174 O.3     1  UNL1       -0.3794
      8 O          18.6514   72.0377   -8.1511 O.3     1  UNL1       -0.3779
      9 C          20.7542   72.6562   -7.0992 C.3     1  UNL1        0.1713
     10 C          19.3424   72.1382   -6.9231 C.3     1  UNL1        0.1895
     11 C          21.4381   72.1537   -5.8345 C.3     1  UNL1        0.1764
     12 C          19.5810   70.7851   -6.2748 C.3     1  UNL1        0.2383
     13 H          22.2897   72.3575   -8.2670 H       1  UNL1        0.2105
     14 H          18.6369   72.9237   -8.5522 H       1  UNL1        0.2106
     15 O          17.1487   69.6593   -7.1646 O.2     1  UNL1       -0.2464
     16 O          15.5200   69.3243   -2.8665 O.2     1  UNL1       -0.2670
     17 N          18.5045   70.3939   -5.4103 N.ar    1  UNL1       -0.2551
     18 N          16.3391   69.4937   -5.0238 N.ar    1  UNL1       -0.2743
     19 C          17.3245   69.8388   -5.9582 C.ar    1  UNL1        0.3323
     20 C          18.6239   70.5617   -4.0352 C.ar    1  UNL1        0.0869
     21 C          17.6755   70.2272   -3.1574 C.ar    1  UNL1        0.0795
     22 C          16.4118   69.6419   -3.6474 C.ar    1  UNL1        0.2626
     23 H          15.4817   69.0934   -5.3951 H       1  UNL1        0.1734
     24 O          20.9568   71.8872   -0.9995 O.3     1  UNL1       -0.2703
     25 P          22.0323   71.3045    0.0571 P.3     1  UNL1        0.2208
     26 O          23.3318   71.0106   -0.8601 O.3     1  UNL1       -0.4371
     27 O          21.5458   70.1193    0.8410 O.2     1  UNL1       -0.5170
     28 O          22.4486   72.5756    0.9599 O.3     1  UNL1       -0.2858
     29 O          24.3050   74.0430    0.9436 O.3     1  UNL1       -0.3226
     30 O          23.5883   73.5903    5.0131 O.3     1  UNL1       -0.3794
     31 O          23.4089   71.3022    3.2136 O.3     1  UNL1       -0.3775
     32 O          25.1975   75.1770    3.4247 O.3     1  UNL1       -0.3792
     33 C          23.2997   73.6955    3.6217 C.3     1  UNL1        0.1718
     34 C          23.9738   72.5570    2.8485 C.3     1  UNL1        0.1968
     35 C          23.8068   75.0472    3.1116 C.3     1  UNL1        0.1723
     36 C          23.8129   72.7575    1.3365 C.3     1  UNL1        0.2706
     37 C          23.6354   75.1209    1.5959 C.3     1  UNL1        0.1830
     38 H          23.1448   74.3305    5.4615 H       1  UNL1        0.2105
     39 H          23.8591   70.6154    2.6935 H       1  UNL1        0.2106
     40 H          25.7037   74.6005    2.8276 H       1  UNL1        0.2106
     41 O          25.5046   76.1472    0.6178 O.co2   1  UNL1       -0.5466
     42 O          23.6666   77.4508    0.9631 O.co2   1  UNL1       -0.5466
     43 C          24.2361   76.3716    1.0374 C.2     1  UNL1        0.0799
@<TRIPOS>UNITY_ATOM_ATTR
41 1
charge -1
@<TRIPOS>BOND
     1     1     4    1
     2     1    24    1
     3     1     2    1
     4     1     3    2
     5    25    28    1
     6    25    24    1
     7    25    26    1
     8    25    27    2
     9     6    11    1
    10     6    12    1
    11    29    36    1
    12    29    37    1
    13     7     9    1
    14     7    13    1
    15     8    10    1
    16     8    14    1
    17     4     5    1
    18    28    36    1
    19    30    33    1
    20    30    38    1
    21    31    34    1
    22    31    39    1
    23    32    35    1
    24    32    40    1
    25    41    43   ar
    26    15    19    2
    27    42    43   ar
    28    16    22    2
    29    17    12    1
    30    17    19   ar
    31    17    20   ar
    32    18    19   ar
    33    18    22   ar
    34    18    23    1
    35     9    10    1
    36     9    11    1
    37    10    12    1
    38    11     5    1
    39    33    34    1
    40    33    35    1
    41    34    36    1
    42    35    37    1
    43    37    43    1
    44    20    21   ar
    45    21    22   ar
@<TRIPOS>MOLECULE
UDP-glaA
 43 45 0 0 0
SMALL
GASTEIGER

@<TRIPOS>ATOM
      1 P          23.0285   71.5114   -2.6168 P.3     1  UNL1        0.2189
      2 O          23.0645   73.0884   -2.2575 O.3     1  UNL1       -0.4371
      3 O          24.3339   70.9394   -3.0868 O.2     1  UNL1       -0.5170
      4 O          21.7895   71.3746   -3.6472 O.3     1  UNL1       -0.3112
      5 C          21.5985   72.3918   -4.6158 C.3     1  UNL1        0.1811
      6 O          20.5739   70.5687   -5.7993 O.3     1  UNL1       -0.3308
      7 O          20.9573   72.2090   -8.2799 O.3     1  UNL1       -0.3794
      8 O          18.3211   72.6046   -7.7060 O.3     1  UNL1       -0.3779
      9 C          20.6336   72.6350   -6.9565 C.3     1  UNL1        0.1713
     10 C          19.1918   72.3022   -6.6356 C.3     1  UNL1        0.1895
     11 C          21.3911   71.7464   -5.9786 C.3     1  UNL1        0.1764
     12 C          19.2681   70.8124   -6.3478 C.3     1  UNL1        0.2383
     13 H          21.8981   72.4069   -8.4261 H       1  UNL1        0.2105
     14 H          18.4123   73.5537   -7.8984 H       1  UNL1        0.2106
     15 O          16.6846   69.9083   -7.0429 O.2     1  UNL1       -0.2464
     16 O          15.5469   69.2004   -2.6335 O.2     1  UNL1       -0.2670
     17 N          18.2769   70.3853   -5.4021 N.ar    1  UNL1       -0.2551
     18 N          16.1196   69.5569   -4.8467 N.ar    1  UNL1       -0.2743
     19 C          17.0095   69.9501   -5.8549 C.ar    1  UNL1        0.3323
     20 C          18.5648   70.4004   -4.0418 C.ar    1  UNL1        0.0869
     21 C          17.7057   70.0218   -3.0929 C.ar    1  UNL1        0.0795
     22 C          16.3602   69.5547   -3.4814 C.ar    1  UNL1        0.2626
     23 H          15.2021   69.2408   -5.1490 H       1  UNL1        0.1734
     24 O          22.4496   70.8443   -1.2622 O.3     1  UNL1       -0.2703
     25 P          21.7552   71.5120    0.0357 P.3     1  UNL1        0.2208
     26 O          21.4974   70.2474    1.0105 O.3     1  UNL1       -0.4371
     27 O          20.5264   72.3196   -0.2702 O.2     1  UNL1       -0.5170
     28 O          22.9389   72.3439    0.7503 O.3     1  UNL1       -0.2858
     29 O          22.1728   73.7162    2.5193 O.3     1  UNL1       -0.3226
     30 O          26.1380   74.9072    2.1476 O.3     1  UNL1       -0.3794
     31 O          24.5181   74.3893   -0.2218 O.3     1  UNL1       -0.3775
     32 O          24.0637   75.3655    3.9132 O.3     1  UNL1       -0.3792
     33 C          25.0102   74.0365    2.1319 C.3     1  UNL1        0.1718
     34 C          23.9861   74.5070    1.0935 C.3     1  UNL1        0.1968
     35 C          24.3753   74.0234    3.5252 C.3     1  UNL1        0.1723
     36 C          22.6976   73.6805    1.1881 C.3     1  UNL1        0.2706
     37 C          23.0839   73.2088    3.4930 C.3     1  UNL1        0.1830
     38 H          26.7570   74.5733    2.8190 H       1  UNL1        0.2105
     39 H          23.8332   74.6887   -0.8432 H       1  UNL1        0.2106
     40 H          23.2887   75.6615    3.4063 H       1  UNL1        0.2106
     41 O          21.4253   74.2548    4.7809 O.co2   1  UNL1       -0.5466
     42 O          22.5786   72.5494    5.7601 O.co2   1  UNL1       -0.5466
     43 C          22.3619   73.2760    4.8011 C.2     1  UNL1        0.0799
@<TRIPOS>UNITY_ATOM_ATTR
41 1
charge -1
@<TRIPOS>BOND
     1     1     4    1
     2     1    24    1
     3     1     2    1
     4     1     3    2
     5    25    28    1
     6    25    24    1
     7    25    26    1
     8    25    27    2
     9     6    11    1
    10     6    12    1
    11    29    36    1
    12    29    37    1
    13     7     9    1
    14     7    13    1
    15     8    10    1
    16     8    14    1
    17     4     5    1
    18    28    36    1
    19    30    33    1
    20    30    38    1
    21    31    34    1
    22    31    39    1
    23    32    35    1
    24    32    40    1
    25    41    43   ar
    26    15    19    2
    27    42    43   ar
    28    16    22    2
    29    17    12    1
    30    17    19   ar
    31    17    20   ar
    32    18    19   ar
    33    18    22   ar
    34    18    23    1
    35     9    10    1
    36     9    11    1
    37    10    12    1
    38    11     5    1
    39    33    34    1
    40    33    35    1
    41    34    36    1
    42    35    37    1
    43    37    43    1
    44    20    21   ar
    45    21    22   ar
@<TRIPOS>MOLECULE
UDP-glaA
 43 45 0 0 0
SMALL
GASTEIGER

@<TRIPOS>ATOM
      1 P          16.1153   69.6887   -2.5792 P.3     1  UNL1        0.2189
      2 O          15.3684   71.1151   -2.4206 O.3     1  UNL1       -0.4371
      3 O          15.9358   69.0252   -3.9132 O.2     1  UNL1       -0.5170
      4 O          15.6105   68.8400   -1.2984 O.3     1  UNL1       -0.3112
      5 C          14.6504   69.4239   -0.4345 C.3     1  UNL1        0.1811
      6 O          13.0197   67.7370    0.0845 O.3     1  UNL1       -0.3308
      7 O          11.0353   69.4859   -1.3278 O.3     1  UNL1       -0.3794
      8 O          10.5292   70.0123    1.2994 O.3     1  UNL1       -0.3779
      9 C          12.1452   69.8568   -0.5103 C.3     1  UNL1        0.1713
     10 C          11.8330   69.5971    0.9483 C.3     1  UNL1        0.1895
     11 C          13.2743   68.8697   -0.7752 C.3     1  UNL1        0.1764
     12 C          12.0128   68.0918    1.0466 C.3     1  UNL1        0.2383
     13 H          11.2952   69.6326   -2.2533 H       1  UNL1        0.2105
     14 H          10.4626   70.9632    1.1054 H       1  UNL1        0.2106
     15 O          12.4050   65.4023    1.8135 O.2     1  UNL1       -0.2464
     16 O          13.6699   66.6114    6.0770 O.2     1  UNL1       -0.2670
     17 N          12.4447   67.6752    2.3501 N.ar    1  UNL1       -0.2551
     18 N          13.0341   66.0061    3.9362 N.ar    1  UNL1       -0.2743
     19 C          12.6102   66.2992    2.6333 C.ar    1  UNL1        0.3323
     20 C          12.6994   68.6256    3.3325 C.ar    1  UNL1        0.0869
     21 C          13.1035   68.3302    4.5700 C.ar    1  UNL1        0.0795
     22 C          13.2997   66.9164    4.9474 C.ar    1  UNL1        0.2626
     23 H          13.1592   65.0231    4.1625 H       1  UNL1        0.1734
     24 O          17.6484   70.0385   -2.2017 O.3     1  UNL1       -0.2703
     25 P          18.5048   71.3956   -2.3953 P.3     1  UNL1        0.2208
     26 O          19.9519   71.0117   -1.7832 O.3     1  UNL1       -0.4371
     27 O          17.8756   72.6138   -1.7821 O.2     1  UNL1       -0.5170
     28 O          18.7495   71.5013   -3.9868 O.3     1  UNL1       -0.2858
     29 O          18.3836   69.9903   -5.7708 O.3     1  UNL1       -0.3226
     30 O          21.9002   71.8768   -6.9344 O.3     1  UNL1       -0.3794
     31 O          21.4784   71.1154   -4.1509 O.3     1  UNL1       -0.3775
     32 O          20.0975   70.1186   -8.0697 O.3     1  UNL1       -0.3792
     33 C          20.6145   71.7232   -6.3397 C.3     1  UNL1        0.1718
     34 C          20.6622   70.6690   -5.2286 C.3     1  UNL1        0.1968
     35 C          19.6162   71.3001   -7.4208 C.3     1  UNL1        0.1723
     36 C          19.2532   70.3727   -4.7000 C.3     1  UNL1        0.2706
     37 C          18.2648   70.9926   -6.7793 C.3     1  UNL1        0.1830
     38 H          21.8223   72.5500   -7.6318 H       1  UNL1        0.2105
     39 H          21.4705   70.4218   -3.4700 H       1  UNL1        0.2106
     40 H          19.9813   69.3655   -7.4659 H       1  UNL1        0.2106
     41 O          16.0323   70.4829   -7.2891 O.co2   1  UNL1       -0.5466
     42 O          17.5910   70.0371   -8.8918 O.co2   1  UNL1       -0.5466
     43 C          17.2946   70.4508   -7.7803 C.2     1  UNL1        0.0799
@<TRIPOS>UNITY_ATOM_ATTR
41 1
charge -1
@<TRIPOS>BOND
     1     1     4    1
     2     1    24    1
     3     1     2    1
     4     1     3    2
     5    25    28    1
     6    25    24    1
     7    25    26    1
     8    25    27    2
     9     6    11    1
    10     6    12    1
    11    29    36    1
    12    29    37    1
    13     7     9    1
    14     7    13    1
    15     8    10    1
    16     8    14    1
    17     4     5    1
    18    28    36    1
    19    30    33    1
    20    30    38    1
    21    31    34    1
    22    31    39    1
    23    32    35    1
    24    32    40    1
    25    41    43   ar
    26    15    19    2
    27    42    43   ar
    28    16    22    2
    29    17    12    1
    30    17    19   ar
    31    17    20   ar
    32    18    19   ar
    33    18    22   ar
    34    18    23    1
    35     9    10    1
    36     9    11    1
    37    10    12    1
    38    11     5    1
    39    33    34    1
    40    33    35    1
    41    34    36    1
    42    35    37    1
    43    37    43    1
    44    20    21   ar
    45    21    22   ar
@<TRIPOS>MOLECULE
UDP-glaA
 43 45 0 0 0
SMALL
GASTEIGER

@<TRIPOS>ATOM
      1 P          22.3281   73.0023   -6.0119 P.3     1  UNL1        0.2189
      2 O          21.3953   74.0113   -5.1579 O.3     1  UNL1       -0.4371
      3 O          23.0627   73.6357   -7.1570 O.2     1  UNL1       -0.5170
      4 O          21.3340   71.7873   -6.4005 O.3     1  UNL1       -0.3112
      5 C          20.2263   72.0609   -7.2417 C.3     1  UNL1        0.1811
      6 O          19.0308   70.0446   -6.7133 O.3     1  UNL1       -0.3308
      7 O          18.5892   69.7548   -9.6649 O.3     1  UNL1       -0.3794
      8 O          16.2026   70.7512   -8.8008 O.3     1  UNL1       -0.3779
      9 C          18.6255   70.9393   -8.8691 C.3     1  UNL1        0.1713
     10 C          17.3582   71.0603   -8.0494 C.3     1  UNL1        0.1895
     11 C          19.6850   70.7490   -7.7917 C.3     1  UNL1        0.1764
     12 C          17.6102   70.0651   -6.9296 C.3     1  UNL1        0.2383
     13 H          19.4353   69.6996  -10.1411 H       1  UNL1        0.2105
     14 H          16.1733   71.3619   -9.5573 H       1  UNL1        0.2106
     15 O          16.6340   68.2298   -5.0181 O.2     1  UNL1       -0.2464
     16 O          15.1181   71.6105   -2.2773 O.2     1  UNL1       -0.2670
     17 N          16.9569   70.4379   -5.7075 N.ar    1  UNL1       -0.2551
     18 N          15.8793   69.9144   -3.6548 N.ar    1  UNL1       -0.2743
     19 C          16.5030   69.4383   -4.8156 C.ar    1  UNL1        0.3323
     20 C          16.7711   71.7818   -5.4029 C.ar    1  UNL1        0.0869
     21 C          16.1750   72.2197   -4.2917 C.ar    1  UNL1        0.0795
     22 C          15.6714   71.2405   -3.3084 C.ar    1  UNL1        0.2626
     23 H          15.5445   69.2135   -2.9992 H       1  UNL1        0.1734
     24 O          23.2802   72.3452   -4.8819 O.3     1  UNL1       -0.2703
     25 P          22.9492   71.8265   -3.3873 P.3     1  UNL1        0.2208
     26 O          24.1434   70.7781   -3.0854 O.3     1  UNL1       -0.4371
     27 O          21.5688   71.2575   -3.2243 O.2     1  UNL1       -0.5170
     28 O          23.2657   73.0910   -2.4361 O.3     1  UNL1       -0.2858
     29 O          21.9932   72.4580   -0.5442 O.3     1  UNL1       -0.3226
     30 O          24.3497   75.5256    0.9777 O.3     1  UNL1       -0.3794
     31 O          23.1673   75.7444   -1.6794 O.3     1  UNL1       -0.3775
     32 O          22.6059   73.6419    1.9978 O.3     1  UNL1       -0.3792
     33 C          23.9926   74.4051    0.1732 C.3     1  UNL1        0.1718
     34 C          22.8017   74.7514   -0.7270 C.3     1  UNL1        0.1968
     35 C          23.6332   73.2321    1.0893 C.3     1  UNL1        0.1723
     36 C          22.3017   73.5058   -1.4693 C.3     1  UNL1        0.2706
     37 C          23.1117   72.0672    0.2508 C.3     1  UNL1        0.1830
     38 H          25.1039   75.2608    1.5314 H       1  UNL1        0.2105
     39 H          22.3871   75.9234   -2.2308 H       1  UNL1        0.2106
     40 H          21.7676   73.7029    1.5091 H       1  UNL1        0.2106
     41 O          23.4096   70.8139    2.2114 O.co2   1  UNL1       -0.5466
     42 O          21.6565   70.2429    0.8707 O.co2   1  UNL1       -0.5466
     43 C          22.6267   70.9459    1.1136 C.2     1  UNL1        0.0799
@<TRIPOS>UNITY_ATOM_ATTR
41 1
charge -1
@<TRIPOS>BOND
     1     1     4    1
     2     1    24    1
     3     1     2    1
     4     1     3    2
     5    25    28    1
     6    25    24    1
     7    25    26    1
     8    25    27    2
     9     6    11    1
    10     6    12    1
    11    29    36    1
    12    29    37    1
    13     7     9    1
    14     7    13    1
    15     8    10    1
    16     8    14    1
    17     4     5    1
    18    28    36    1
    19    30    33    1
    20    30    38    1
    21    31    34    1
    22    31    39    1
    23    32    35    1
    24    32    40    1
    25    41    43   ar
    26    15    19    2
    27    42    43   ar
    28    16    22    2
    29    17    12    1
    30    17    19   ar
    31    17    20   ar
    32    18    19   ar
    33    18    22   ar
    34    18    23    1
    35     9    10    1
    36     9    11    1
    37    10    12    1
    38    11     5    1
    39    33    34    1
    40    33    35    1
    41    34    36    1
    42    35    37    1
    43    37    43    1
    44    20    21   ar
    45    21    22   ar
@<TRIPOS>MOLECULE
UDP-glaA
 43 45 0 0 0
SMALL
GASTEIGER

@<TRIPOS>ATOM
      1 P          21.9147   72.4511   -5.8297 P.3     1  UNL1        0.2189
      2 O          21.1460   73.8362   -5.5011 O.3     1  UNL1       -0.4371
      3 O          23.1567   72.5978   -6.6591 O.2     1  UNL1       -0.5170
      4 O          20.7614   71.5036   -6.4524 O.3     1  UNL1       -0.3112
      5 C          20.1277   71.9084   -7.6540 C.3     1  UNL1        0.1811
      6 O          18.8939   69.8927   -7.2192 O.3     1  UNL1       -0.3308
      7 O          18.0471   70.0132  -10.0932 O.3     1  UNL1       -0.3794
      8 O          15.8609   70.9878   -8.7869 O.3     1  UNL1       -0.3779
      9 C          18.2601   71.0800   -9.1689 C.3     1  UNL1        0.1713
     10 C          17.1227   71.1458   -8.1717 C.3     1  UNL1        0.1895
     11 C          19.4401   70.7045   -8.2821 C.3     1  UNL1        0.1764
     12 C          17.4610   70.0019   -7.2309 C.3     1  UNL1        0.2383
     13 H          18.8174   69.9852  -10.6860 H       1  UNL1        0.2105
     14 H          15.7681   71.6935   -9.4499 H       1  UNL1        0.2106
     15 O          16.2009   68.0612   -5.6119 O.2     1  UNL1       -0.2464
     16 O          15.7302   71.0217   -2.1116 O.2     1  UNL1       -0.2670
     17 N          16.9996   70.2380   -5.8927 N.ar    1  UNL1       -0.2551
     18 N          15.9668   69.5368   -3.8702 N.ar    1  UNL1       -0.2743
     19 C          16.3787   69.1958   -5.1652 C.ar    1  UNL1        0.3323
     20 C          17.1638   71.4916   -5.3139 C.ar    1  UNL1        0.0869
     21 C          16.7661   71.8008   -4.0778 C.ar    1  UNL1        0.0795
     22 C          16.1080   70.7694   -3.2516 C.ar    1  UNL1        0.2626
     23 H          15.5174   68.8033   -3.3288 H       1  UNL1        0.1734
     24 O          22.1556   71.8138   -4.3631 O.3     1  UNL1       -0.2703
     25 P          23.3552   72.0230   -3.3001 P.3     1  UNL1        0.2208
     26 O          24.0486   73.3999   -3.7894 O.3     1  UNL1       -0.4371
     27 O          24.2967   70.8574   -3.1965 O.2     1  UNL1       -0.5170
     28 O          22.6150   72.4069   -1.9186 O.3     1  UNL1       -0.2858
     29 O          22.9550   70.7903   -0.2244 O.3     1  UNL1       -0.3226
     30 O          20.1518   73.3110    1.5270 O.3     1  UNL1       -0.3794
     31 O          19.9326   72.5796   -1.2878 O.3     1  UNL1       -0.3775
     32 O          21.7164   71.1828    2.3350 O.3     1  UNL1       -0.3792
     33 C          21.2591   72.9199    0.7200 C.3     1  UNL1        0.1718
     34 C          20.8081   71.9380   -0.3666 C.3     1  UNL1        0.1968
     35 C          22.3156   72.2639    1.6132 C.3     1  UNL1        0.1723
     36 C          22.0159   71.3799   -1.1296 C.3     1  UNL1        0.2706
     37 C          23.4465   71.7106    0.7489 C.3     1  UNL1        0.1830
     38 H          20.4834   73.9287    2.2007 H       1  UNL1        0.2105
     39 H          19.6821   71.9237   -1.9600 H       1  UNL1        0.2106
     40 H          21.5710   70.4439    1.7201 H       1  UNL1        0.2106
     41 O          24.0862   70.9568    2.8764 O.co2   1  UNL1       -0.5466
     42 O          25.4296   70.3857    1.1254 O.co2   1  UNL1       -0.5466
     43 C          24.4379   70.9470    1.5680 C.2     1  UNL1        0.0799
@<TRIPOS>UNITY_ATOM_ATTR
41 1
charge -1
@<TRIPOS>BOND
     1     1     4    1
     2     1    24    1
     3     1     2    1
     4     1     3    2
     5    25    28    1
     6    25    24    1
     7    25    26    1
     8    25    27    2
     9     6    11    1
    10     6    12    1
    11    29    36    1
    12    29    37    1
    13     7     9    1
    14     7    13    1
    15     8    10    1
    16     8    14    1
    17     4     5    1
    18    28    36    1
    19    30    33    1
    20    30    38    1
    21    31    34    1
    22    31    39    1
    23    32    35    1
    24    32    40    1
    25    41    43   ar
    26    15    19    2
    27    42    43   ar
    28    16    22    2
    29    17    12    1
    30    17    19   ar
    31    17    20   ar
    32    18    19   ar
    33    18    22   ar
    34    18    23    1
    35     9    10    1
    36     9    11    1
    37    10    12    1
    38    11     5    1
    39    33    34    1
    40    33    35    1
    41    34    36    1
    42    35    37    1
    43    37    43    1
    44    20    21   ar
    45    21    22   ar
@<TRIPOS>MOLECULE
UDP-glaA
 43 45 0 0 0
SMALL
GASTEIGER

@<TRIPOS>ATOM
      1 P          22.7848   71.6671   -2.5457 P.3     1  UNL1        0.2189
      2 O          22.8836   73.1720   -1.9601 O.3     1  UNL1       -0.4371
      3 O          24.0577   71.1318   -3.1334 O.2     1  UNL1       -0.5170
      4 O          21.5163   71.7211   -3.5473 O.3     1  UNL1       -0.3112
      5 C          21.5143   72.6850   -4.5867 C.3     1  UNL1        0.1811
      6 O          20.6102   70.7628   -5.7100 O.3     1  UNL1       -0.3308
      7 O          20.9660   72.3136   -8.2516 O.3     1  UNL1       -0.3794
      8 O          18.3008   72.5970   -7.7493 O.3     1  UNL1       -0.3779
      9 C          20.5914   72.7784   -6.9549 C.3     1  UNL1        0.1713
     10 C          19.1614   72.3857   -6.6491 C.3     1  UNL1        0.1895
     11 C          21.3706   71.9724   -5.9239 C.3     1  UNL1        0.1764
     12 C          19.3065   70.9154   -6.2951 C.3     1  UNL1        0.2383
     13 H          21.8986   72.5533   -8.3871 H       1  UNL1        0.2105
     14 H          18.3482   73.5405   -7.9810 H       1  UNL1        0.2106
     15 O          16.9377   69.5429   -6.9883 O.2     1  UNL1       -0.2464
     16 O          15.5808   69.2893   -2.5913 O.2     1  UNL1       -0.2670
     17 N          18.3171   70.4784   -5.3520 N.ar    1  UNL1       -0.2551
     18 N          16.2633   69.4180   -4.7984 N.ar    1  UNL1       -0.2743
     19 C          17.1623   69.7978   -5.8037 C.ar    1  UNL1        0.3323
     20 C          18.4958   70.7254   -3.9954 C.ar    1  UNL1        0.0869
     21 C          17.6297   70.3564   -3.0491 C.ar    1  UNL1        0.0795
     22 C          16.3975   69.6416   -3.4369 C.ar    1  UNL1        0.2626
     23 H          15.4256   68.9278   -5.1000 H       1  UNL1        0.1734
     24 O          22.2179   70.8250   -1.2868 O.3     1  UNL1       -0.2703
     25 P          22.2566   71.1338    0.2992 P.3     1  UNL1        0.2208
     26 O          23.7873   71.5919    0.5509 O.3     1  UNL1       -0.4371
     27 O          21.8020   69.9906    1.1607 O.2     1  UNL1       -0.5170
     28 O          21.3919   72.4850    0.4740 O.3     1  UNL1       -0.2858
     29 O          22.0475   74.7383    0.7783 O.3     1  UNL1       -0.3226
     30 O          18.5827   74.5227    3.0648 O.3     1  UNL1       -0.3794
     31 O          20.5104   72.3342    3.0860 O.3     1  UNL1       -0.3775
     32 O          20.2982   76.5102    2.2062 O.3     1  UNL1       -0.3792
     33 C          19.4818   74.2466    1.9945 C.3     1  UNL1        0.1718
     34 C          20.7729   73.6182    2.5297 C.3     1  UNL1        0.1968
     35 C          19.7993   75.5546    1.2645 C.3     1  UNL1        0.1723
     36 C          21.8122   73.4759    1.4108 C.3     1  UNL1        0.2706
     37 C          20.8699   75.3040    0.2047 C.3     1  UNL1        0.1830
     38 H          17.7829   74.9207    2.6808 H       1  UNL1        0.2105
     39 H          21.3556   71.9730    3.4019 H       1  UNL1        0.2106
     40 H          21.2053   76.2592    2.4498 H       1  UNL1        0.2106
     41 O          22.3980   77.0838    0.1755 O.co2   1  UNL1       -0.5466
     42 O          20.7575   77.0980   -1.4073 O.co2   1  UNL1       -0.5466
     43 C          21.3050   76.5787   -0.4456 C.2     1  UNL1        0.0799
@<TRIPOS>UNITY_ATOM_ATTR
41 1
charge -1
@<TRIPOS>BOND
     1     1     4    1
     2     1    24    1
     3     1     2    1
     4     1     3    2
     5    25    28    1
     6    25    24    1
     7    25    26    1
     8    25    27    2
     9     6    11    1
    10     6    12    1
    11    29    36    1
    12    29    37    1
    13     7     9    1
    14     7    13    1
    15     8    10    1
    16     8    14    1
    17     4     5    1
    18    28    36    1
    19    30    33    1
    20    30    38    1
    21    31    34    1
    22    31    39    1
    23    32    35    1
    24    32    40    1
    25    41    43   ar
    26    15    19    2
    27    42    43   ar
    28    16    22    2
    29    17    12    1
    30    17    19   ar
    31    17    20   ar
    32    18    19   ar
    33    18    22   ar
    34    18    23    1
    35     9    10    1
    36     9    11    1
    37    10    12    1
    38    11     5    1
    39    33    34    1
    40    33    35    1
    41    34    36    1
    42    35    37    1
    43    37    43    1
    44    20    21   ar
    45    21    22   ar
@<TRIPOS>MOLECULE
UDP-glaA
 43 45 0 0 0
SMALL
GASTEIGER

@<TRIPOS>ATOM
      1 P          20.5246   71.3054   -2.5222 P.3     1  UNL1        0.2189
      2 O          20.6011   70.4992   -3.9228 O.3     1  UNL1       -0.4371
      3 O          20.4241   70.4414   -1.2993 O.2     1  UNL1       -0.5170
      4 O          19.3143   72.3552   -2.7425 O.3     1  UNL1       -0.3112
      5 C          18.8454   72.5817   -4.0609 C.3     1  UNL1        0.1811
      6 O          17.0078   72.1429   -5.5458 O.3     1  UNL1       -0.3308
      7 O          15.7896   70.6006   -3.2811 O.3     1  UNL1       -0.3794
      8 O          16.8246   68.6293   -4.8554 O.3     1  UNL1       -0.3779
      9 C          17.1612   70.7187   -3.6588 C.3     1  UNL1        0.1713
     10 C          17.4350   69.9023   -4.9042 C.3     1  UNL1        0.1895
     11 C          17.3915   72.1408   -4.1530 C.3     1  UNL1        0.1764
     12 C          16.8554   70.7864   -5.9952 C.3     1  UNL1        0.2383
     13 H          15.6529   71.1696   -2.5044 H       1  UNL1        0.2105
     14 H          17.1681   68.1699   -4.0699 H       1  UNL1        0.2106
     15 O          15.5715   70.6736   -8.5081 O.2     1  UNL1       -0.2464
     16 O          19.5754   70.1814  -10.7363 O.2     1  UNL1       -0.2670
     17 N          17.5376   70.6299   -7.2480 N.ar    1  UNL1       -0.2551
     18 N          17.5661   70.4280   -9.6159 N.ar    1  UNL1       -0.2743
     19 C          16.7994   70.5841   -8.4536 C.ar    1  UNL1        0.3323
     20 C          18.9238   70.5234   -7.2737 C.ar    1  UNL1        0.0869
     21 C          19.6403   70.3754   -8.3902 C.ar    1  UNL1        0.0795
     22 C          18.9459   70.3173   -9.6917 C.ar    1  UNL1        0.2626
     23 H          17.0564   70.3919  -10.4946 H       1  UNL1        0.1734
     24 O          21.8373   72.2483   -2.5748 O.3     1  UNL1       -0.2703
     25 P          23.3596   71.9735   -2.1062 P.3     1  UNL1        0.2208
     26 O          24.0468   73.4346   -2.2015 O.3     1  UNL1       -0.4371
     27 O          24.0630   70.9050   -2.8933 O.2     1  UNL1       -0.5170
     28 O          23.2529   71.6748   -0.5240 O.3     1  UNL1       -0.2858
     29 O          22.7823   73.8827    0.1852 O.3     1  UNL1       -0.3226
     30 O          21.6938   71.6473    3.5165 O.3     1  UNL1       -0.3794
     31 O          24.1026   70.9860    2.0110 O.3     1  UNL1       -0.3775
     32 O          21.4699   74.2788    2.7070 O.3     1  UNL1       -0.3792
     33 C          21.8829   71.9671    2.1408 C.3     1  UNL1        0.1718
     34 C          23.3690   72.1947    1.8444 C.3     1  UNL1        0.1968
     35 C          21.0834   73.2308    1.8118 C.3     1  UNL1        0.1723
     36 C          23.5650   72.7059    0.4117 C.3     1  UNL1        0.2706
     37 C          21.3850   73.6708    0.3808 C.3     1  UNL1        0.1830
     38 H          20.7411   71.5144    3.6585 H       1  UNL1        0.2105
     39 H          25.0330   71.1766    1.8040 H       1  UNL1        0.2106
     40 H          22.3515   74.5965    2.4482 H       1  UNL1        0.2106
     41 O          21.5724   76.0074    0.2856 O.co2   1  UNL1       -0.5466
     42 O          19.5826   75.0985   -0.3559 O.co2   1  UNL1       -0.5466
     43 C          20.7259   74.9741    0.0587 C.2     1  UNL1        0.0799
@<TRIPOS>UNITY_ATOM_ATTR
41 1
charge -1
@<TRIPOS>BOND
     1     1     4    1
     2     1    24    1
     3     1     2    1
     4     1     3    2
     5    25    28    1
     6    25    24    1
     7    25    26    1
     8    25    27    2
     9     6    11    1
    10     6    12    1
    11    29    36    1
    12    29    37    1
    13     7     9    1
    14     7    13    1
    15     8    10    1
    16     8    14    1
    17     4     5    1
    18    28    36    1
    19    30    33    1
    20    30    38    1
    21    31    34    1
    22    31    39    1
    23    32    35    1
    24    32    40    1
    25    41    43   ar
    26    15    19    2
    27    42    43   ar
    28    16    22    2
    29    17    12    1
    30    17    19   ar
    31    17    20   ar
    32    18    19   ar
    33    18    22   ar
    34    18    23    1
    35     9    10    1
    36     9    11    1
    37    10    12    1
    38    11     5    1
    39    33    34    1
    40    33    35    1
    41    34    36    1
    42    35    37    1
    43    37    43    1
    44    20    21   ar
    45    21    22   ar
@<TRIPOS>MOLECULE
UDP-glaA
 43 45 0 0 0
SMALL
GASTEIGER

@<TRIPOS>ATOM
      1 P          23.4336   72.1752   -3.4861 P.3     1  UNL1        0.2189
      2 O          24.0877   70.7438   -3.1110 O.3     1  UNL1       -0.4371
      3 O          24.3825   73.1640   -4.0976 O.2     1  UNL1       -0.5170
      4 O          22.7142   72.6459   -2.1162 O.3     1  UNL1       -0.3112
      5 C          23.4920   72.7201   -0.9335 C.3     1  UNL1        0.1811
      6 O          24.4802   71.2226    0.6650 O.3     1  UNL1       -0.3308
      7 O          21.7020   70.2021    1.1465 O.3     1  UNL1       -0.3794
      8 O          22.1021   71.8648    3.2704 O.3     1  UNL1       -0.3779
      9 C          22.1396   71.5309    0.8626 C.3     1  UNL1        0.1713
     10 C          22.8109   72.1338    2.0785 C.3     1  UNL1        0.1895
     11 C          23.2931   71.4440   -0.1281 C.3     1  UNL1        0.1764
     12 C          24.1761   71.4681    2.0480 C.3     1  UNL1        0.2383
     13 H          21.3149   69.8437    0.3296 H       1  UNL1        0.2105
     14 H          21.2058   72.2281    3.1663 H       1  UNL1        0.2106
     15 O          26.8769   70.6927    2.3305 O.2     1  UNL1       -0.2464
     16 O          28.0282   74.7311    4.2289 O.2     1  UNL1       -0.2670
     17 N          25.2029   72.2970    2.6120 N.ar    1  UNL1       -0.2551
     18 N          27.4483   72.7040    3.2761 N.ar    1  UNL1       -0.2743
     19 C          26.5282   71.8123    2.7093 C.ar    1  UNL1        0.3323
     20 C          24.8924   73.5754    3.0621 C.ar    1  UNL1        0.0869
     21 C          25.7811   74.4138    3.5998 C.ar    1  UNL1        0.0795
     22 C          27.1869   73.9845    3.7384 C.ar    1  UNL1        0.2626
     23 H          28.4072   72.3766    3.3567 H       1  UNL1        0.1734
     24 O          22.1855   71.7670   -4.4300 O.3     1  UNL1       -0.2703
     25 P          21.3464   72.6289   -5.5096 P.3     1  UNL1        0.2208
     26 O          21.7625   71.9603   -6.9224 O.3     1  UNL1       -0.4371
     27 O          21.5812   74.1103   -5.4317 O.2     1  UNL1       -0.5170
     28 O          19.8116   72.1845   -5.2837 O.3     1  UNL1       -0.2858
     29 O          19.0615   69.9585   -4.9976 O.3     1  UNL1       -0.3226
     30 O          15.6713   71.8332   -6.5048 O.3     1  UNL1       -0.3794
     31 O          18.3093   72.4501   -7.5848 O.3     1  UNL1       -0.3775
     32 O          16.2868   69.3644   -5.4295 O.3     1  UNL1       -0.3792
     33 C          16.8843   71.6795   -5.7732 C.3     1  UNL1        0.1718
     34 C          18.0423   71.3502   -6.7213 C.3     1  UNL1        0.1968
     35 C          16.7071   70.5529   -4.7515 C.3     1  UNL1        0.1723
     36 C          19.3130   71.0145   -5.9307 C.3     1  UNL1        0.2706
     37 C          18.0382   70.2770   -4.0557 C.3     1  UNL1        0.1830
     38 H          14.9673   72.0378   -5.8660 H       1  UNL1        0.2105
     39 H          19.0532   72.1993   -8.1580 H       1  UNL1        0.2106
     40 H          17.0470   68.9995   -5.9134 H       1  UNL1        0.2106
     41 O          17.9588   69.4927   -1.8461 O.co2   1  UNL1       -0.5466
     42 O          17.8606   67.9327   -3.5056 O.co2   1  UNL1       -0.5466
     43 C          17.9436   69.0969   -3.1418 C.2     1  UNL1        0.0799
@<TRIPOS>UNITY_ATOM_ATTR
41 1
charge -1
@<TRIPOS>BOND
     1     1     4    1
     2     1    24    1
     3     1     2    1
     4     1     3    2
     5    25    28    1
     6    25    24    1
     7    25    26    1
     8    25    27    2
     9     6    11    1
    10     6    12    1
    11    29    36    1
    12    29    37    1
    13     7     9    1
    14     7    13    1
    15     8    10    1
    16     8    14    1
    17     4     5    1
    18    28    36    1
    19    30    33    1
    20    30    38    1
    21    31    34    1
    22    31    39    1
    23    32    35    1
    24    32    40    1
    25    41    43   ar
    26    15    19    2
    27    42    43   ar
    28    16    22    2
    29    17    12    1
    30    17    19   ar
    31    17    20   ar
    32    18    19   ar
    33    18    22   ar
    34    18    23    1
    35     9    10    1
    36     9    11    1
    37    10    12    1
    38    11     5    1
    39    33    34    1
    40    33    35    1
    41    34    36    1
    42    35    37    1
    43    37    43    1
    44    20    21   ar
    45    21    22   ar
@<TRIPOS>MOLECULE
UDP-glaA
 43 45 0 0 0
SMALL
GASTEIGER

@<TRIPOS>ATOM
      1 P          23.4896   74.1618   -4.1445 P.3     1  UNL1        0.2189
      2 O          23.9897   75.5375   -4.8336 O.3     1  UNL1       -0.4371
      3 O          24.5236   73.0765   -4.0746 O.2     1  UNL1       -0.5170
      4 O          22.1362   73.7924   -4.9492 O.3     1  UNL1       -0.3112
      5 C          21.5336   72.5305   -4.7179 C.3     1  UNL1        0.1811
      6 O          20.5945   70.6103   -5.8158 O.3     1  UNL1       -0.3308
      7 O          20.9393   72.1371   -8.3733 O.3     1  UNL1       -0.3794
      8 O          18.2835   72.4554   -7.8432 O.3     1  UNL1       -0.3779
      9 C          20.5849   72.6162   -7.0762 C.3     1  UNL1        0.1713
     10 C          19.1540   72.2426   -6.7512 C.3     1  UNL1        0.1895
     11 C          21.3664   71.8093   -6.0477 C.3     1  UNL1        0.1764
     12 C          19.2861   70.7736   -6.3873 C.3     1  UNL1        0.2383
     13 H          21.8730   72.3648   -8.5213 H       1  UNL1        0.2105
     14 H          18.3392   73.3964   -8.0829 H       1  UNL1        0.2106
     15 O          16.6815   69.9064   -7.0502 O.2     1  UNL1       -0.2464
     16 O          15.5956   69.1947   -2.6283 O.2     1  UNL1       -0.2670
     17 N          18.3025   70.3554   -5.4297 N.ar    1  UNL1       -0.2551
     18 N          16.1423   69.5531   -4.8478 N.ar    1  UNL1       -0.2743
     19 C          17.0233   69.9389   -5.8667 C.ar    1  UNL1        0.3323
     20 C          18.6093   70.3609   -4.0735 C.ar    1  UNL1        0.0869
     21 C          17.7585   69.9896   -3.1143 C.ar    1  UNL1        0.0795
     22 C          16.4017   69.5419   -3.4860 C.ar    1  UNL1        0.2626
     23 H          15.2166   69.2504   -5.1386 H       1  UNL1        0.1734
     24 O          22.9346   74.6568   -2.7085 O.3     1  UNL1       -0.2703
     25 P          23.7052   75.2788   -1.4311 P.3     1  UNL1        0.2208
     26 O          22.6923   76.4269   -0.9095 O.3     1  UNL1       -0.4371
     27 O          25.0948   75.7658   -1.7271 O.2     1  UNL1       -0.5170
     28 O          23.6289   74.1248   -0.3057 O.3     1  UNL1       -0.2858
     29 O          23.9016   71.7813   -0.1245 O.3     1  UNL1       -0.3226
     30 O          20.2974   72.3942    1.8537 O.3     1  UNL1       -0.3794
     31 O          20.8998   73.8362   -0.6088 O.3     1  UNL1       -0.3775
     32 O          22.0472   70.2898    1.4803 O.3     1  UNL1       -0.3792
     33 C          21.6192   72.6656    1.3960 C.3     1  UNL1        0.1718
     34 C          21.6530   72.7248   -0.1349 C.3     1  UNL1        0.1968
     35 C          22.5537   71.5616    1.8983 C.3     1  UNL1        0.1723
     36 C          23.0954   72.8448   -0.6422 C.3     1  UNL1        0.2706
     37 C          23.9457   71.7566    1.3013 C.3     1  UNL1        0.1830
     38 H          20.3239   72.3634    2.8253 H       1  UNL1        0.2105
     39 H          20.9581   73.8378   -1.5790 H       1  UNL1        0.2106
     40 H          22.2096   70.1909    0.5269 H       1  UNL1        0.2106
     41 O          25.6872   70.3350    0.6304 O.co2   1  UNL1       -0.5466
     42 O          24.8648   70.0465    2.7369 O.co2   1  UNL1       -0.5466
     43 C          24.8586   70.6279    1.6615 C.2     1  UNL1        0.0799
@<TRIPOS>UNITY_ATOM_ATTR
41 1
charge -1
@<TRIPOS>BOND
     1     1     4    1
     2     1    24    1
     3     1     2    1
     4     1     3    2
     5    25    28    1
     6    25    24    1
     7    25    26    1
     8    25    27    2
     9     6    11    1
    10     6    12    1
    11    29    36    1
    12    29    37    1
    13     7     9    1
    14     7    13    1
    15     8    10    1
    16     8    14    1
    17     4     5    1
    18    28    36    1
    19    30    33    1
    20    30    38    1
    21    31    34    1
    22    31    39    1
    23    32    35    1
    24    32    40    1
    25    41    43   ar
    26    15    19    2
    27    42    43   ar
    28    16    22    2
    29    17    12    1
    30    17    19   ar
    31    17    20   ar
    32    18    19   ar
    33    18    22   ar
    34    18    23    1
    35     9    10    1
    36     9    11    1
    37    10    12    1
    38    11     5    1
    39    33    34    1
    40    33    35    1
    41    34    36    1
    42    35    37    1
    43    37    43    1
    44    20    21   ar
    45    21    22   ar
@<TRIPOS>MOLECULE
UDP-glaA
 43 45 0 0 0
SMALL
GASTEIGER

@<TRIPOS>ATOM
      1 P          21.6957   74.3705   -3.7665 P.3     1  UNL1        0.2189
      2 O          21.5465   75.8655   -4.3664 O.3     1  UNL1       -0.4371
      3 O          22.7316   74.2205   -2.6910 O.2     1  UNL1       -0.5170
      4 O          21.9026   73.4439   -5.0758 O.3     1  UNL1       -0.3112
      5 C          21.7336   72.0424   -4.9475 C.3     1  UNL1        0.1811
      6 O          20.5038   70.3319   -6.1032 O.3     1  UNL1       -0.3308
      7 O          20.8195   72.0249   -8.5578 O.3     1  UNL1       -0.3794
      8 O          18.2648   72.5753   -7.7794 O.3     1  UNL1       -0.3779
      9 C          20.6219   72.4271   -7.2025 C.3     1  UNL1        0.1713
     10 C          19.1874   72.1803   -6.7854 C.3     1  UNL1        0.1895
     11 C          21.3849   71.4581   -6.3090 C.3     1  UNL1        0.1764
     12 C          19.1818   70.6799   -6.5465 C.3     1  UNL1        0.2383
     13 H          21.7587   72.1646   -8.7676 H       1  UNL1        0.2105
     14 H          18.4069   73.5221   -7.9510 H       1  UNL1        0.2106
     15 O          16.4969   69.9802   -7.0730 O.2     1  UNL1       -0.2464
     16 O          15.6355   69.1952   -2.6142 O.2     1  UNL1       -0.2670
     17 N          18.2342   70.2883   -5.5425 N.ar    1  UNL1       -0.2551
     18 N          16.0696   69.5903   -4.8523 N.ar    1  UNL1       -0.2743
     19 C          16.9095   69.9573   -5.9120 C.ar    1  UNL1        0.3323
     20 C          18.6205   70.2352   -4.2078 C.ar    1  UNL1        0.0869
     21 C          17.8080   69.8828   -3.2091 C.ar    1  UNL1        0.0795
     22 C          16.4081   69.5230   -3.5097 C.ar    1  UNL1        0.2626
     23 H          15.1125   69.3487   -5.0944 H       1  UNL1        0.1734
     24 O          20.1879   74.0136   -3.3037 O.3     1  UNL1       -0.2703
     25 P          19.2215   74.7095   -2.2107 P.3     1  UNL1        0.2208
     26 O          17.9278   73.7389   -2.1878 O.3     1  UNL1       -0.4371
     27 O          18.9099   76.1513   -2.4933 O.2     1  UNL1       -0.5170
     28 O          19.9517   74.4502   -0.7953 O.3     1  UNL1       -0.2858
     29 O          20.1077   72.3004    0.1811 O.3     1  UNL1       -0.3226
     30 O          20.6388   74.7901    3.4673 O.3     1  UNL1       -0.3794
     31 O          18.6467   75.4250    1.4340 O.3     1  UNL1       -0.3775
     32 O          20.8384   72.0843    2.9484 O.3     1  UNL1       -0.3792
     33 C          20.7163   74.3482    2.1148 C.3     1  UNL1        0.1718
     34 C          19.3114   74.1697    1.5295 C.3     1  UNL1        0.1968
     35 C          21.4750   73.0190    2.0709 C.3     1  UNL1        0.1723
     36 C          19.3804   73.5324    0.1361 C.3     1  UNL1        0.2706
     37 C          21.4457   72.4581    0.6508 C.3     1  UNL1        0.1830
     38 H          21.5485   74.8869    3.7969 H       1  UNL1        0.2105
     39 H          17.7682   75.2634    1.0507 H       1  UNL1        0.2106
     40 H          20.0092   71.7887    2.5359 H       1  UNL1        0.2106
     41 O          23.2807   71.1517   -0.0050 O.co2   1  UNL1       -0.5466
     42 O          21.5485   70.0728    1.0112 O.co2   1  UNL1       -0.5466
     43 C          22.0632   71.0973    0.5870 C.2     1  UNL1        0.0799
@<TRIPOS>UNITY_ATOM_ATTR
41 1
charge -1
@<TRIPOS>BOND
     1     1     4    1
     2     1    24    1
     3     1     2    1
     4     1     3    2
     5    25    28    1
     6    25    24    1
     7    25    26    1
     8    25    27    2
     9     6    11    1
    10     6    12    1
    11    29    36    1
    12    29    37    1
    13     7     9    1
    14     7    13    1
    15     8    10    1
    16     8    14    1
    17     4     5    1
    18    28    36    1
    19    30    33    1
    20    30    38    1
    21    31    34    1
    22    31    39    1
    23    32    35    1
    24    32    40    1
    25    41    43   ar
    26    15    19    2
    27    42    43   ar
    28    16    22    2
    29    17    12    1
    30    17    19   ar
    31    17    20   ar
    32    18    19   ar
    33    18    22   ar
    34    18    23    1
    35     9    10    1
    36     9    11    1
    37    10    12    1
    38    11     5    1
    39    33    34    1
    40    33    35    1
    41    34    36    1
    42    35    37    1
    43    37    43    1
    44    20    21   ar
    45    21    22   ar
@<TRIPOS>MOLECULE
UDP-glaA
 43 45 0 0 0
SMALL
GASTEIGER

@<TRIPOS>ATOM
      1 P          23.1134   72.7257   -3.6668 P.3     1  UNL1        0.2189
      2 O          22.6028   71.2153   -3.3922 O.3     1  UNL1       -0.4371
      3 O          24.5177   72.8349   -4.1845 O.2     1  UNL1       -0.5170
      4 O          22.8147   73.4968   -2.2769 O.3     1  UNL1       -0.3112
      5 C          21.8070   74.4936   -2.2582 C.3     1  UNL1        0.1811
      6 O          21.0036   72.7379   -0.8276 O.3     1  UNL1       -0.3308
      7 O          18.8748   74.6670    0.0314 O.3     1  UNL1       -0.3794
      8 O          20.6565   74.7899    2.0921 O.3     1  UNL1       -0.3779
      9 C          20.2405   74.9177   -0.2998 C.3     1  UNL1        0.1713
     10 C          21.1474   74.4400    0.8146 C.3     1  UNL1        0.1895
     11 C          20.6246   73.9885   -1.4438 C.3     1  UNL1        0.1764
     12 C          21.1638   72.9381    0.5864 C.3     1  UNL1        0.2383
     13 H          18.3358   74.9526   -0.7258 H       1  UNL1        0.2105
     14 H          20.5730   75.7587    2.1184 H       1  UNL1        0.2106
     15 O          21.5061   70.1737    1.0516 O.2     1  UNL1       -0.2464
     16 O          25.9341   70.7294    2.2015 O.2     1  UNL1       -0.2670
     17 N          22.3951   72.3331    1.0074 N.ar    1  UNL1       -0.2551
     18 N          23.7107   70.4523    1.6244 N.ar    1  UNL1       -0.2743
     19 C          22.4611   70.9354    1.2140 C.ar    1  UNL1        0.3323
     20 C          23.5212   73.1229    1.2115 C.ar    1  UNL1        0.0869
     21 C          24.7056   72.6472    1.6024 C.ar    1  UNL1        0.0795
     22 C          24.8589   71.1983    1.8410 C.ar    1  UNL1        0.2626
     23 H          23.7814   69.4503    1.7796 H       1  UNL1        0.1734
     24 O          21.9817   73.3159   -4.6599 O.3     1  UNL1       -0.2703
     25 P          21.2664   72.6678   -5.9564 P.3     1  UNL1        0.2208
     26 O          22.4416   71.7786   -6.6229 O.3     1  UNL1       -0.4371
     27 O          20.6468   73.6727   -6.8848 O.2     1  UNL1       -0.5170
     28 O          20.2291   71.5882   -5.3542 O.3     1  UNL1       -0.2858
     29 O          18.0819   71.8985   -6.2990 O.3     1  UNL1       -0.3226
     30 O          17.3845   68.8844   -3.5226 O.3     1  UNL1       -0.3794
     31 O          19.1249   71.1305   -2.8654 O.3     1  UNL1       -0.3775
     32 O          15.9679   70.1048   -5.5558 O.3     1  UNL1       -0.3792
     33 C          18.0897   69.6527   -4.4936 C.3     1  UNL1        0.1718
     34 C          18.2725   71.0936   -4.0050 C.3     1  UNL1        0.1968
     35 C          17.2988   69.6403   -5.8046 C.3     1  UNL1        0.1723
     36 C          18.8758   71.9695   -5.1101 C.3     1  UNL1        0.2706
     37 C          17.9641   70.5732   -6.8141 C.3     1  UNL1        0.1830
     38 H          17.2900   67.9828   -3.8742 H       1  UNL1        0.2105
     39 H          19.2183   72.0606   -2.5989 H       1  UNL1        0.2106
     40 H          15.9974   71.0665   -5.4164 H       1  UNL1        0.2106
     41 O          16.0983   71.5203   -7.8749 O.co2   1  UNL1       -0.5466
     42 O          17.4044   70.1274   -9.1201 O.co2   1  UNL1       -0.5466
     43 C          17.1538   70.6926   -8.0656 C.2     1  UNL1        0.0799
@<TRIPOS>UNITY_ATOM_ATTR
41 1
charge -1
@<TRIPOS>BOND
     1     1     4    1
     2     1    24    1
     3     1     2    1
     4     1     3    2
     5    25    28    1
     6    25    24    1
     7    25    26    1
     8    25    27    2
     9     6    11    1
    10     6    12    1
    11    29    36    1
    12    29    37    1
    13     7     9    1
    14     7    13    1
    15     8    10    1
    16     8    14    1
    17     4     5    1
    18    28    36    1
    19    30    33    1
    20    30    38    1
    21    31    34    1
    22    31    39    1
    23    32    35    1
    24    32    40    1
    25    41    43   ar
    26    15    19    2
    27    42    43   ar
    28    16    22    2
    29    17    12    1
    30    17    19   ar
    31    17    20   ar
    32    18    19   ar
    33    18    22   ar
    34    18    23    1
    35     9    10    1
    36     9    11    1
    37    10    12    1
    38    11     5    1
    39    33    34    1
    40    33    35    1
    41    34    36    1
    42    35    37    1
    43    37    43    1
    44    20    21   ar
    45    21    22   ar
@<TRIPOS>MOLECULE
UDP-glaA
 43 45 0 0 0
SMALL
GASTEIGER

@<TRIPOS>ATOM
      1 P          23.0451   71.0055    0.7227 P.3     1  UNL1        0.2189
      2 O          21.5257   70.4665    0.5872 O.3     1  UNL1       -0.4371
      3 O          23.9042   70.2410    1.6869 O.2     1  UNL1       -0.5170
      4 O          22.8727   72.5833    1.0333 O.3     1  UNL1       -0.3112
      5 C          23.1662   73.0528    2.3382 C.3     1  UNL1        0.1811
      6 O          22.5588   72.6088    4.6203 O.3     1  UNL1       -0.3308
      7 O          19.7169   72.9858    3.7412 O.3     1  UNL1       -0.3794
      8 O          20.2943   75.3715    4.9290 O.3     1  UNL1       -0.3779
      9 C          20.8947   73.6645    3.3054 C.3     1  UNL1        0.1713
     10 C          21.3626   74.6384    4.3662 C.3     1  UNL1        0.1895
     11 C          22.0345   72.6547    3.2749 C.3     1  UNL1        0.1764
     12 C          22.0301   73.7146    5.3707 C.3     1  UNL1        0.2383
     13 H          19.4776   72.3467    3.0486 H       1  UNL1        0.2105
     14 H          19.8535   75.8489    4.2052 H       1  UNL1        0.2106
     15 O          21.7354   75.0714    7.8299 O.2     1  UNL1       -0.2464
     16 O          26.2159   76.1386    7.9870 O.2     1  UNL1       -0.2670
     17 N          23.1025   74.3555    6.0766 N.ar    1  UNL1       -0.2551
     18 N          23.9666   75.6024    7.9063 N.ar    1  UNL1       -0.2743
     19 C          22.8483   75.0106    7.3042 C.ar    1  UNL1        0.3323
     20 C          24.3899   74.3313    5.5518 C.ar    1  UNL1        0.0869
     21 C          25.4458   74.8998    6.1382 C.ar    1  UNL1        0.0795
     22 C          25.2658   75.6050    7.4227 C.ar    1  UNL1        0.2626
     23 H          23.8074   76.0795    8.7895 H       1  UNL1        0.1734
     24 O          23.5721   70.9918   -0.8061 O.3     1  UNL1       -0.2703
     25 P          23.0299   71.7590   -2.1214 P.3     1  UNL1        0.2208
     26 O          24.0972   71.3396   -3.2620 O.3     1  UNL1       -0.4371
     27 O          22.8616   73.2410   -1.9446 O.2     1  UNL1       -0.5170
     28 O          21.6761   70.9774   -2.5217 O.3     1  UNL1       -0.2858
     29 O          20.6049   72.2306   -4.2191 O.3     1  UNL1       -0.3226
     30 O          17.9994   69.0297   -3.7239 O.3     1  UNL1       -0.3794
     31 O          19.2403   70.3015   -1.4112 O.3     1  UNL1       -0.3775
     32 O          18.2748   71.1366   -5.4890 O.3     1  UNL1       -0.3792
     33 C          19.2373   69.7336   -3.7743 C.3     1  UNL1        0.1718
     34 C          19.2604   70.8500   -2.7248 C.3     1  UNL1        0.1968
     35 C          19.4128   70.3272   -5.1747 C.3     1  UNL1        0.1723
     36 C          20.5132   71.7202   -2.8849 C.3     1  UNL1        0.2706
     37 C          20.6631   71.2034   -5.2076 C.3     1  UNL1        0.1830
     38 H          18.0284   68.3361   -4.4048 H       1  UNL1        0.2105
     39 H          19.2656   71.0430   -0.7833 H       1  UNL1        0.2106
     40 H          18.3312   71.9610   -4.9767 H       1  UNL1        0.2106
     41 O          22.1083   72.1384   -6.8017 O.co2   1  UNL1       -0.5466
     42 O          19.8741   72.2311   -7.2451 O.co2   1  UNL1       -0.5466
     43 C          20.8034   71.9077   -6.5196 C.2     1  UNL1        0.0799
@<TRIPOS>UNITY_ATOM_ATTR
41 1
charge -1
@<TRIPOS>BOND
     1     1     4    1
     2     1    24    1
     3     1     2    1
     4     1     3    2
     5    25    28    1
     6    25    24    1
     7    25    26    1
     8    25    27    2
     9     6    11    1
    10     6    12    1
    11    29    36    1
    12    29    37    1
    13     7     9    1
    14     7    13    1
    15     8    10    1
    16     8    14    1
    17     4     5    1
    18    28    36    1
    19    30    33    1
    20    30    38    1
    21    31    34    1
    22    31    39    1
    23    32    35    1
    24    32    40    1
    25    41    43   ar
    26    15    19    2
    27    42    43   ar
    28    16    22    2
    29    17    12    1
    30    17    19   ar
    31    17    20   ar
    32    18    19   ar
    33    18    22   ar
    34    18    23    1
    35     9    10    1
    36     9    11    1
    37    10    12    1
    38    11     5    1
    39    33    34    1
    40    33    35    1
    41    34    36    1
    42    35    37    1
    43    37    43    1
    44    20    21   ar
    45    21    22   ar
@<TRIPOS>MOLECULE
UDP-glaA
 43 45 0 0 0
SMALL
GASTEIGER

@<TRIPOS>ATOM
      1 P          21.6750   72.6687   -5.4975 P.3     1  UNL1        0.2189
      2 O          21.0919   74.1708   -5.6424 O.3     1  UNL1       -0.4371
      3 O          23.0669   72.4764   -6.0246 O.2     1  UNL1       -0.5170
      4 O          20.5340   71.7411   -6.1709 O.3     1  UNL1       -0.3112
      5 C          20.0611   72.0801   -7.4634 C.3     1  UNL1        0.1811
      6 O          18.8887   70.0231   -7.0529 O.3     1  UNL1       -0.3308
      7 O          18.1364   70.0903   -9.9548 O.3     1  UNL1       -0.3794
      8 O          15.8723   70.9924   -8.7316 O.3     1  UNL1       -0.3779
      9 C          18.2781   71.1712   -9.0332 C.3     1  UNL1        0.1713
     10 C          17.1057   71.2020   -8.0756 C.3     1  UNL1        0.1895
     11 C          19.4403   70.8467   -8.1038 C.3     1  UNL1        0.1764
     12 C          17.4539   70.0787   -7.1138 C.3     1  UNL1        0.2383
     13 H          18.9270   70.0866  -10.5209 H       1  UNL1        0.2105
     14 H          15.7761   71.6891   -9.4036 H       1  UNL1        0.2106
     15 O          16.3039   68.0816   -5.4815 O.2     1  UNL1       -0.2464
     16 O          15.5084   71.0730   -2.0672 O.2     1  UNL1       -0.2670
     17 N          16.9388   70.3075   -5.7941 N.ar    1  UNL1       -0.2551
     18 N          15.9080   69.5726   -3.7826 N.ar    1  UNL1       -0.2743
     19 C          16.3808   69.2364   -5.0580 C.ar    1  UNL1        0.3323
     20 C          16.9892   71.5826   -5.2418 C.ar    1  UNL1        0.0869
     21 C          16.5347   71.8870   -4.0242 C.ar    1  UNL1        0.0795
     22 C          15.9360   70.8258   -3.1906 C.ar    1  UNL1        0.2626
     23 H          15.5021   68.8183   -3.2355 H       1  UNL1        0.1734
     24 O          21.5048   72.3646   -3.9184 O.3     1  UNL1       -0.2703
     25 P          21.9316   71.0809   -3.0338 P.3     1  UNL1        0.2208
     26 O          23.5452   71.0737   -3.1446 O.3     1  UNL1       -0.4371
     27 O          21.2755   69.7971   -3.4548 O.2     1  UNL1       -0.5170
     28 O          21.6288   71.5156   -1.5096 O.3     1  UNL1       -0.2858
     29 O          23.3481   72.8349   -0.5594 O.3     1  UNL1       -0.3226
     30 O          20.9107   72.0850    2.7233 O.3     1  UNL1       -0.3794
     31 O          21.4683   69.9822    0.7808 O.3     1  UNL1       -0.3775
     32 O          23.0990   73.6782    2.1729 O.3     1  UNL1       -0.3792
     33 C          21.2630   72.3324    1.3650 C.3     1  UNL1        0.1718
     34 C          22.1730   71.2180    0.8374 C.3     1  UNL1        0.1968
     35 C          21.9821   73.6813    1.2776 C.3     1  UNL1        0.1723
     36 C          22.6957   71.5608   -0.5631 C.3     1  UNL1        0.2706
     37 C          22.4932   73.8993   -0.1448 C.3     1  UNL1        0.1830
     38 H          20.3380   72.8146    3.0153 H       1  UNL1        0.2105
     39 H          22.0799   69.3114    0.4332 H       1  UNL1        0.2106
     40 H          23.7979   73.1194    1.7929 H       1  UNL1        0.2106
     41 O          24.3195   74.9841   -1.1406 O.co2   1  UNL1       -0.5466
     42 O          23.1118   76.1723    0.3847 O.co2   1  UNL1       -0.5466
     43 C          23.3146   75.1451   -0.2463 C.2     1  UNL1        0.0799
@<TRIPOS>UNITY_ATOM_ATTR
41 1
charge -1
@<TRIPOS>BOND
     1     1     4    1
     2     1    24    1
     3     1     2    1
     4     1     3    2
     5    25    28    1
     6    25    24    1
     7    25    26    1
     8    25    27    2
     9     6    11    1
    10     6    12    1
    11    29    36    1
    12    29    37    1
    13     7     9    1
    14     7    13    1
    15     8    10    1
    16     8    14    1
    17     4     5    1
    18    28    36    1
    19    30    33    1
    20    30    38    1
    21    31    34    1
    22    31    39    1
    23    32    35    1
    24    32    40    1
    25    41    43   ar
    26    15    19    2
    27    42    43   ar
    28    16    22    2
    29    17    12    1
    30    17    19   ar
    31    17    20   ar
    32    18    19   ar
    33    18    22   ar
    34    18    23    1
    35     9    10    1
    36     9    11    1
    37    10    12    1
    38    11     5    1
    39    33    34    1
    40    33    35    1
    41    34    36    1
    42    35    37    1
    43    37    43    1
    44    20    21   ar
    45    21    22   ar
