@<TRIPOS>MOLECULE
UD1
 46 48 0 0 0
SMALL
GASTEIGER

@<TRIPOS>ATOM
      1 P          20.6589   71.1489   -3.1345 P.3     1  UNL1        0.2189
      2 O          20.2563   72.5558   -2.9166 O.2     1  UNL1       -0.5170
      3 O          21.2316   70.9800   -4.6299 O.3     1  UNL1       -0.4371
      4 O          19.3809   70.1891   -2.9388 O.3     1  UNL1       -0.3112
      5 C          18.3062   71.0170   -2.4913 C.3     1  UNL1        0.1811
      6 C          16.8399   70.5710   -5.7438 C.3     1  UNL1        0.2383
      7 C          16.8689   69.1477   -5.1326 C.3     1  UNL1        0.1895
      8 O          15.7821   68.3599   -5.6198 O.3     1  UNL1       -0.3779
      9 C          16.7052   69.4401   -3.6184 C.3     1  UNL1        0.1713
     10 C          17.1376   70.9119   -3.4724 C.3     1  UNL1        0.1764
     11 O          17.5476   71.3701   -4.7721 O.3     1  UNL1       -0.3308
     12 O          15.3430   69.2704   -3.2205 O.3     1  UNL1       -0.3794
     13 H          15.8578   67.4901   -5.2036 H       1  UNL1        0.2106
     14 H          15.1152   68.3468   -3.3913 H       1  UNL1        0.2105
     15 N          17.5299   70.5963   -7.0340 N.ar    1  UNL1       -0.2551
     16 C          16.8197   70.5009   -8.1714 C.ar    1  UNL1        0.3323
     17 N          17.4275   70.5255   -9.3723 N.ar    1  UNL1       -0.2743
     18 C          18.7687   70.6377   -9.4528 C.ar    1  UNL1        0.2626
     19 C          19.5292   70.7329   -8.2631 C.ar    1  UNL1        0.0795
     20 C          18.8935   70.7112   -7.0720 C.ar    1  UNL1        0.0869
     21 O          15.6092   70.3993   -8.1152 O.2     1  UNL1       -0.2464
     22 O          19.3198   70.6551  -10.5379 O.2     1  UNL1       -0.2670
     23 H          16.8991   70.4603  -10.1827 H       1  UNL1        0.1734
     24 O          21.7994   70.7465   -2.0733 O.3     1  UNL1       -0.2703
     25 P          23.0503   71.7223   -2.3429 P.3     1  UNL1        0.2208
     26 O          22.6520   72.7834   -3.2938 O.2     1  UNL1       -0.5170
     27 O          24.2688   70.8742   -2.9658 O.3     1  UNL1       -0.4371
     28 O          23.5183   72.3924   -0.9564 O.3     1  UNL1       -0.2865
     29 C          22.7138   71.8168    0.0745 C.3     1  UNL1        0.2611
     30 C          21.9843   72.9310    0.8271 C.3     1  UNL1        0.1582
     31 C          23.0178   73.8943    1.4216 C.3     1  UNL1        0.1625
     32 C          24.0157   73.0871    2.2587 C.3     1  UNL1        0.1686
     33 C          24.5943   71.9629    1.3969 C.3     1  UNL1        0.1760
     34 O          22.3577   74.8530    2.2503 O.3     1  UNL1       -0.3801
     35 O          25.0706   73.9431    2.7014 O.3     1  UNL1       -0.3794
     36 O          23.5466   71.0903    0.9756 O.3     1  UNL1       -0.3263
     37 H          23.0433   75.4373    2.6022 H       1  UNL1        0.2105
     38 H          25.6749   73.3957    3.2225 H       1  UNL1        0.2105
     39 C          19.8867   74.0516    0.2993 C.2     1  UNL1        0.2231
     40 C          18.9888   74.7988   -0.6535 C.3     1  UNL1        0.0946
     41 N          21.1118   73.6572   -0.0980 N.am    1  UNL1       -0.2994
     42 O          19.5060   73.8049    1.4237 O.2     1  UNL1       -0.2751
     43 H          21.4166   73.8543   -0.9978 H       1  UNL1        0.1496
     44 C          25.6167   71.1703    2.2141 C.3     1  UNL1        0.1693
     45 O          25.0243   69.9505    2.6648 O.3     1  UNL1       -0.3794
     46 H          25.6999   69.4828    3.1743 H       1  UNL1        0.2105
@<TRIPOS>BOND
     1    29    30    1
     2    29    28    1
     3    29    36    1
     4    30    31    1
     5    30    41    1
     6    31    32    1
     7    31    34    1
     8    32    33    1
     9    32    35    1
    10    33    44    1
    11    33    36    1
    12    44    45    1
    13    39    40    1
    14    39    41   am
    15    39    42    2
    16    41    43    1
    17    28    25    1
    18    34    37    1
    19    35    38    1
    20    45    46    1
    21    15    16   ar
    22    15    20   ar
    23    15     6    1
    24    16    17   ar
    25    16    21    2
    26    17    18   ar
    27    17    23    1
    28    18    19   ar
    29    18    22    2
    30    19    20   ar
    31     6     7    1
    32     6    11    1
    33     7     8    1
    34     7     9    1
    35     8    13    1
    36     9    10    1
    37     9    12    1
    38    10    11    1
    39    10     5    1
    40    12    14    1
    41     5     4    1
    42     4     1    1
    43     1     2    2
    44     1     3    1
    45     1    24    1
    46    24    25    1
    47    25    26    2
    48    25    27    1
@<TRIPOS>MOLECULE
UD1
 46 48 0 0 0
SMALL
GASTEIGER

@<TRIPOS>ATOM
      1 P          21.0686   71.4110   -1.9276 P.3     1  UNL1        0.2189
      2 O          22.1917   70.7000   -2.5771 O.2     1  UNL1       -0.5170
      3 O          20.6107   70.6030   -0.6123 O.3     1  UNL1       -0.4371
      4 O          19.8314   71.5093   -2.9536 O.3     1  UNL1       -0.3112
      5 C          18.8472   70.5759   -2.5057 C.3     1  UNL1        0.1811
      6 C          17.1257   70.4868   -5.6610 C.3     1  UNL1        0.2383
      7 C          17.0195   69.0390   -5.1198 C.3     1  UNL1        0.1895
      8 O          15.8141   68.4147   -5.5633 O.3     1  UNL1       -0.3779
      9 C          16.9933   69.2659   -3.5859 C.3     1  UNL1        0.1713
     10 C          17.6123   70.6652   -3.4038 C.3     1  UNL1        0.1764
     11 O          17.9890   71.1412   -4.7071 O.3     1  UNL1       -0.3308
     12 O          15.6498   69.2389   -3.0990 O.3     1  UNL1       -0.3794
     13 H          15.8094   67.5207   -5.1941 H       1  UNL1        0.2106
     14 H          15.2992   68.3599   -3.2954 H       1  UNL1        0.2105
     15 N          17.7269   70.4997   -6.9951 N.ar    1  UNL1       -0.2551
     16 C          16.9372   70.4586   -8.0823 C.ar    1  UNL1        0.3323
     17 N          17.4626   70.4733   -9.3216 N.ar    1  UNL1       -0.2743
     18 C          18.7992   70.5206   -9.4925 C.ar    1  UNL1        0.2626
     19 C          19.6425   70.5582   -8.3566 C.ar    1  UNL1        0.0795
     20 C          19.0888   70.5478   -7.1251 C.ar    1  UNL1        0.0869
     21 O          15.7298   70.4158   -7.9445 O.2     1  UNL1       -0.2464
     22 O          19.2755   70.5291  -10.6125 O.2     1  UNL1       -0.2670
     23 H          16.8778   70.4479  -10.0946 H       1  UNL1        0.1734
     24 O          21.5396   72.8923   -1.5119 O.3     1  UNL1       -0.2703
     25 P          22.6560   72.7205   -0.3657 P.3     1  UNL1        0.2208
     26 O          23.7012   73.7535   -0.5367 O.2     1  UNL1       -0.5170
     27 O          23.3227   71.2595   -0.4796 O.3     1  UNL1       -0.4371
     28 O          21.9709   72.8848    1.0814 O.3     1  UNL1       -0.2865
     29 C          22.6764   73.9267    1.7581 C.3     1  UNL1        0.2611
     30 C          23.1698   73.4072    3.1097 C.3     1  UNL1        0.1582
     31 C          21.9664   72.9423    3.9376 C.3     1  UNL1        0.1625
     32 C          20.9501   74.0868    4.0105 C.3     1  UNL1        0.1686
     33 C          20.6218   74.5529    2.5905 C.3     1  UNL1        0.1760
     34 O          22.3970   72.5952    5.2550 O.3     1  UNL1       -0.3801
     35 O          19.7586   73.6277    4.6518 O.3     1  UNL1       -0.3794
     36 O          21.8048   75.0377    1.9566 O.3     1  UNL1       -0.3263
     37 H          21.6105   72.3090    5.7396 H       1  UNL1        0.2105
     38 H          19.1472   74.3774    4.6758 H       1  UNL1        0.2105
     39 C          25.3884   72.5108    2.6533 C.2     1  UNL1        0.2231
     40 C          26.3288   71.3530    2.4353 C.3     1  UNL1        0.0946
     41 N          24.0837   72.2828    2.8983 N.am    1  UNL1       -0.2994
     42 O          25.8063   73.6481    2.6074 O.2     1  UNL1       -0.2751
     43 H          23.7491   71.3727    2.9349 H       1  UNL1        0.1496
     44 C          19.5826   75.6744    2.6507 C.3     1  UNL1        0.1693
     45 O          18.9502   75.8072    1.3762 O.3     1  UNL1       -0.3794
     46 H          18.3048   76.5225    1.4572 H       1  UNL1        0.2105
@<TRIPOS>BOND
     1    29    30    1
     2    29    28    1
     3    29    36    1
     4    30    31    1
     5    30    41    1
     6    31    32    1
     7    31    34    1
     8    32    33    1
     9    32    35    1
    10    33    44    1
    11    33    36    1
    12    44    45    1
    13    39    40    1
    14    39    41   am
    15    39    42    2
    16    41    43    1
    17    28    25    1
    18    34    37    1
    19    35    38    1
    20    45    46    1
    21    15    16   ar
    22    15    20   ar
    23    15     6    1
    24    16    17   ar
    25    16    21    2
    26    17    18   ar
    27    17    23    1
    28    18    19   ar
    29    18    22    2
    30    19    20   ar
    31     6     7    1
    32     6    11    1
    33     7     8    1
    34     7     9    1
    35     8    13    1
    36     9    10    1
    37     9    12    1
    38    10    11    1
    39    10     5    1
    40    12    14    1
    41     5     4    1
    42     4     1    1
    43     1     2    2
    44     1     3    1
    45     1    24    1
    46    24    25    1
    47    25    26    2
    48    25    27    1
@<TRIPOS>MOLECULE
UD1
 46 48 0 0 0
SMALL
GASTEIGER

@<TRIPOS>ATOM
      1 P          20.3727   70.9794   -1.8970 P.3     1  UNL1        0.2189
      2 O          20.3106   70.6627   -0.4532 O.2     1  UNL1       -0.5170
      3 O          20.4353   72.5762   -2.0941 O.3     1  UNL1       -0.4371
      4 O          19.0610   70.4002   -2.6298 O.3     1  UNL1       -0.3112
      5 C          18.0641   71.4209   -2.5615 C.3     1  UNL1        0.1811
      6 C          16.7459   70.5545   -5.7924 C.3     1  UNL1        0.2383
      7 C          16.9177   69.1967   -5.0664 C.3     1  UNL1        0.1895
      8 O          15.9397   68.2541   -5.5071 O.3     1  UNL1       -0.3779
      9 C          16.6811   69.5876   -3.5844 C.3     1  UNL1        0.1713
     10 C          16.9417   71.1060   -3.5516 C.3     1  UNL1        0.1764
     11 O          17.3329   71.5035   -4.8768 O.3     1  UNL1       -0.3308
     12 O          15.3362   69.2958   -3.1985 O.3     1  UNL1       -0.3794
     13 H          16.1011   67.4343   -5.0198 H       1  UNL1        0.2106
     14 H          15.2182   68.3417   -3.2973 H       1  UNL1        0.2105
     15 N          17.4635   70.5560   -7.0678 N.ar    1  UNL1       -0.2551
     16 C          16.7726   70.5601   -8.2210 C.ar    1  UNL1        0.3323
     17 N          17.4064   70.5656   -9.4087 N.ar    1  UNL1       -0.2743
     18 C          18.7537   70.5576   -9.4599 C.ar    1  UNL1        0.2626
     19 C          19.4934   70.5472   -8.2535 C.ar    1  UNL1        0.0795
     20 C          18.8323   70.5474   -7.0760 C.ar    1  UNL1        0.0869
     21 O          15.5570   70.5674   -8.1912 O.2     1  UNL1       -0.2464
     22 O          19.3277   70.5577  -10.5332 O.2     1  UNL1       -0.2670
     23 H          16.8922   70.5733  -10.2307 H       1  UNL1        0.1734
     24 O          21.6863   70.3067   -2.5380 O.3     1  UNL1       -0.2703
     25 P          22.8097   71.4565   -2.6093 P.3     1  UNL1        0.2208
     26 O          24.0722   70.8812   -3.1232 O.2     1  UNL1       -0.5170
     27 O          23.0558   72.0593   -1.1368 O.3     1  UNL1       -0.4371
     28 O          22.3158   72.6310   -3.5927 O.3     1  UNL1       -0.2865
     29 C          23.4848   73.1764   -4.2068 C.3     1  UNL1        0.2611
     30 C          23.5307   74.6845   -3.9548 C.3     1  UNL1        0.1582
     31 C          22.2653   75.3281   -4.5330 C.3     1  UNL1        0.1625
     32 C          22.1340   74.9164   -6.0031 C.3     1  UNL1        0.1686
     33 C          22.1904   73.3903   -6.1003 C.3     1  UNL1        0.1760
     34 O          22.3650   76.7502   -4.4376 O.3     1  UNL1       -0.3801
     35 O          20.8870   75.3838   -6.5208 O.3     1  UNL1       -0.3794
     36 O          23.4458   72.9221   -5.6093 O.3     1  UNL1       -0.3263
     37 H          21.5501   77.1130   -4.8113 H       1  UNL1        0.2105
     38 H          20.8452   75.1030   -7.4459 H       1  UNL1        0.2105
     39 C          24.6986   75.4951   -1.9766 C.2     1  UNL1        0.2231
     40 C          24.7655   75.7561   -0.4935 C.3     1  UNL1        0.0946
     41 N          23.5960   74.9387   -2.5142 N.am    1  UNL1       -0.2994
     42 O          25.6379   75.7854   -2.6863 O.2     1  UNL1       -0.2751
     43 H          22.8442   74.7061   -1.9464 H       1  UNL1        0.1496
     44 C          22.0274   72.9672   -7.5616 C.3     1  UNL1        0.1693
     45 O          23.2100   73.3032   -8.2900 O.3     1  UNL1       -0.3794
     46 H          23.0659   73.0208   -9.2033 H       1  UNL1        0.2105
@<TRIPOS>BOND
     1    29    30    1
     2    29    28    1
     3    29    36    1
     4    30    31    1
     5    30    41    1
     6    31    32    1
     7    31    34    1
     8    32    33    1
     9    32    35    1
    10    33    44    1
    11    33    36    1
    12    44    45    1
    13    39    40    1
    14    39    41   am
    15    39    42    2
    16    41    43    1
    17    28    25    1
    18    34    37    1
    19    35    38    1
    20    45    46    1
    21    15    16   ar
    22    15    20   ar
    23    15     6    1
    24    16    17   ar
    25    16    21    2
    26    17    18   ar
    27    17    23    1
    28    18    19   ar
    29    18    22    2
    30    19    20   ar
    31     6     7    1
    32     6    11    1
    33     7     8    1
    34     7     9    1
    35     8    13    1
    36     9    10    1
    37     9    12    1
    38    10    11    1
    39    10     5    1
    40    12    14    1
    41     5     4    1
    42     4     1    1
    43     1     2    2
    44     1     3    1
    45     1    24    1
    46    24    25    1
    47    25    26    2
    48    25    27    1
@<TRIPOS>MOLECULE
UD1
 46 48 0 0 0
SMALL
GASTEIGER

@<TRIPOS>ATOM
      1 P          20.2077   71.2282   -2.8289 P.3     1  UNL1        0.2189
      2 O          20.0069   72.6899   -2.7200 O.2     1  UNL1       -0.5170
      3 O          20.7961   70.8742   -4.2853 O.3     1  UNL1       -0.4371
      4 O          18.7985   70.4767   -2.6234 O.3     1  UNL1       -0.3112
      5 C          17.7869   71.4851   -2.6299 C.3     1  UNL1        0.1811
      6 C          16.6315   70.5282   -5.8974 C.3     1  UNL1        0.2383
      7 C          16.7964   69.1889   -5.1363 C.3     1  UNL1        0.1895
      8 O          15.8572   68.2184   -5.6003 O.3     1  UNL1       -0.3779
      9 C          16.4863   69.6045   -3.6748 C.3     1  UNL1        0.1713
     10 C          16.7162   71.1282   -3.6620 C.3     1  UNL1        0.1764
     11 O          17.1588   71.5069   -4.9766 O.3     1  UNL1       -0.3308
     12 O          15.1312   69.2937   -3.3430 O.3     1  UNL1       -0.3794
     13 H          16.0122   67.4119   -5.0893 H       1  UNL1        0.2106
     14 H          15.0359   68.3356   -3.4270 H       1  UNL1        0.2105
     15 N          17.4054   70.5186   -7.1393 N.ar    1  UNL1       -0.2551
     16 C          16.7677   70.5592   -8.3221 C.ar    1  UNL1        0.3323
     17 N          17.4540   70.5555   -9.4802 N.ar    1  UNL1       -0.2743
     18 C          18.8012   70.5012   -9.4714 C.ar    1  UNL1        0.2626
     19 C          19.4851   70.4521   -8.2334 C.ar    1  UNL1        0.0795
     20 C          18.7721   70.4624   -7.0867 C.ar    1  UNL1        0.0869
     21 O          15.5529   70.6084   -8.3464 O.2     1  UNL1       -0.2464
     22 O          19.4226   70.4930  -10.5179 O.2     1  UNL1       -0.2670
     23 H          16.9779   70.5900  -10.3241 H       1  UNL1        0.1734
     24 O          21.2442   70.7431   -1.6978 O.3     1  UNL1       -0.2703
     25 P          20.9287   71.6065   -0.3771 P.3     1  UNL1        0.2208
     26 O          21.1908   70.7837    0.8242 O.2     1  UNL1       -0.5170
     27 O          19.3843   72.0613   -0.3887 O.3     1  UNL1       -0.4371
     28 O          21.8706   72.9113   -0.3497 O.3     1  UNL1       -0.2865
     29 C          23.2169   72.4482   -0.2306 C.3     1  UNL1        0.2611
     30 C          23.9890   73.3763    0.7088 C.3     1  UNL1        0.1582
     31 C          23.9548   74.8014    0.1452 C.3     1  UNL1        0.1625
     32 C          24.4613   74.7689   -1.3007 C.3     1  UNL1        0.1686
     33 C          23.6513   73.7377   -2.0893 C.3     1  UNL1        0.1760
     34 O          24.7955   75.6477    0.9316 O.3     1  UNL1       -0.3801
     35 O          24.3002   76.0593   -1.8926 O.3     1  UNL1       -0.3794
     36 O          23.8318   72.4429   -1.5171 O.3     1  UNL1       -0.3263
     37 H          24.7440   76.5317    0.5429 H       1  UNL1        0.2105
     38 H          24.6299   75.9939   -2.8001 H       1  UNL1        0.2105
     39 C          23.5490   72.3014    2.8501 C.2     1  UNL1        0.2231
     40 C          22.9091   72.2831    4.2149 C.3     1  UNL1        0.0946
     41 N          23.3680   73.3582    2.0349 N.am    1  UNL1       -0.2994
     42 O          24.2264   71.3643    2.4855 O.2     1  UNL1       -0.2751
     43 H          22.8257   74.1083    2.3264 H       1  UNL1        0.1496
     44 C          24.1277   73.7206   -3.5433 C.3     1  UNL1        0.1693
     45 O          24.1794   72.3717   -4.0122 O.3     1  UNL1       -0.3794
     46 H          24.4835   72.4057   -4.9292 H       1  UNL1        0.2105
@<TRIPOS>BOND
     1    29    30    1
     2    29    28    1
     3    29    36    1
     4    30    31    1
     5    30    41    1
     6    31    32    1
     7    31    34    1
     8    32    33    1
     9    32    35    1
    10    33    44    1
    11    33    36    1
    12    44    45    1
    13    39    40    1
    14    39    41   am
    15    39    42    2
    16    41    43    1
    17    28    25    1
    18    34    37    1
    19    35    38    1
    20    45    46    1
    21    15    16   ar
    22    15    20   ar
    23    15     6    1
    24    16    17   ar
    25    16    21    2
    26    17    18   ar
    27    17    23    1
    28    18    19   ar
    29    18    22    2
    30    19    20   ar
    31     6     7    1
    32     6    11    1
    33     7     8    1
    34     7     9    1
    35     8    13    1
    36     9    10    1
    37     9    12    1
    38    10    11    1
    39    10     5    1
    40    12    14    1
    41     5     4    1
    42     4     1    1
    43     1     2    2
    44     1     3    1
    45     1    24    1
    46    24    25    1
    47    25    26    2
    48    25    27    1
@<TRIPOS>MOLECULE
UD1
 46 48 0 0 0
SMALL
GASTEIGER

@<TRIPOS>ATOM
      1 P          20.8010   71.2680   -0.9461 P.3     1  UNL1        0.2189
      2 O          21.7218   70.6395   -1.9186 O.2     1  UNL1       -0.5170
      3 O          21.0282   70.6146    0.5079 O.3     1  UNL1       -0.4371
      4 O          19.2794   71.0219   -1.4121 O.3     1  UNL1       -0.3112
      5 C          19.3350   70.2847   -2.6343 C.3     1  UNL1        0.1811
      6 C          17.4021   70.4711   -5.6603 C.3     1  UNL1        0.2383
      7 C          17.1695   69.0308   -5.1391 C.3     1  UNL1        0.1895
      8 O          15.8734   68.5572   -5.5069 O.3     1  UNL1       -0.3779
      9 C          17.2745   69.2192   -3.6034 C.3     1  UNL1        0.1713
     10 C          18.0596   70.5351   -3.4405 C.3     1  UNL1        0.1764
     11 O          18.3976   70.9997   -4.7585 O.3     1  UNL1       -0.3308
     12 O          15.9733   69.3303   -3.0227 O.3     1  UNL1       -0.3794
     13 H          15.7925   67.6601   -5.1546 H       1  UNL1        0.2106
     14 H          15.5124   68.5015   -3.2095 H       1  UNL1        0.2105
     15 N          17.9080   70.4513   -7.0333 N.ar    1  UNL1       -0.2551
     16 C          17.0427   70.4459   -8.0621 C.ar    1  UNL1        0.3323
     17 N          17.4797   70.4317   -9.3353 N.ar    1  UNL1       -0.2743
     18 C          18.8017   70.4133   -9.5998 C.ar    1  UNL1        0.2626
     19 C          19.7236   70.4127   -8.5260 C.ar    1  UNL1        0.0795
     20 C          19.2580   70.4325   -7.2587 C.ar    1  UNL1        0.0869
     21 O          15.8473   70.4624   -7.8397 O.2     1  UNL1       -0.2464
     22 O          19.1979   70.3957  -10.7505 O.2     1  UNL1       -0.2670
     23 H          16.8414   70.4329  -10.0653 H       1  UNL1        0.1734
     24 O          21.0916   72.8490   -0.8764 O.3     1  UNL1       -0.2703
     25 P          22.6757   73.0211   -0.6525 P.3     1  UNL1        0.2208
     26 O          23.3182   73.3855   -1.9345 O.2     1  UNL1       -0.5170
     27 O          23.2964   71.6354   -0.1169 O.3     1  UNL1       -0.4371
     28 O          22.9431   74.1813    0.4305 O.3     1  UNL1       -0.2865
     29 C          21.9855   74.0015    1.4754 C.3     1  UNL1        0.2611
     30 C          21.2572   75.3232    1.7259 C.3     1  UNL1        0.1582
     31 C          22.2827   76.3956    2.1103 C.3     1  UNL1        0.1625
     32 C          23.1162   75.8773    3.2871 C.3     1  UNL1        0.1686
     33 C          23.7069   74.5150    2.9175 C.3     1  UNL1        0.1760
     34 O          21.6032   77.5933    2.4914 O.3     1  UNL1       -0.3801
     35 O          24.1726   76.7979    3.5667 O.3     1  UNL1       -0.3794
     36 O          22.6540   73.5856    2.6644 O.3     1  UNL1       -0.3263
     37 H          22.2844   78.2391    2.7242 H       1  UNL1        0.2105
     38 H          24.6715   76.4333    4.3114 H       1  UNL1        0.2105
     39 C          21.1397   76.5784   -0.3586 C.2     1  UNL1        0.2231
     40 C          20.4133   76.9996   -1.6105 C.3     1  UNL1        0.0946
     41 N          20.5522   75.7323    0.5093 N.am    1  UNL1       -0.2994
     42 O          22.2530   77.0018   -0.1321 O.2     1  UNL1       -0.2751
     43 H          19.6611   75.3935    0.3284 H       1  UNL1        0.1496
     44 C          24.5680   74.0032    4.0742 C.3     1  UNL1        0.1693
     45 O          25.8923   74.5257    3.9502 O.3     1  UNL1       -0.3794
     46 H          26.4006   74.1797    4.6961 H       1  UNL1        0.2105
@<TRIPOS>BOND
     1    29    30    1
     2    29    28    1
     3    29    36    1
     4    30    31    1
     5    30    41    1
     6    31    32    1
     7    31    34    1
     8    32    33    1
     9    32    35    1
    10    33    44    1
    11    33    36    1
    12    44    45    1
    13    39    40    1
    14    39    41   am
    15    39    42    2
    16    41    43    1
    17    28    25    1
    18    34    37    1
    19    35    38    1
    20    45    46    1
    21    15    16   ar
    22    15    20   ar
    23    15     6    1
    24    16    17   ar
    25    16    21    2
    26    17    18   ar
    27    17    23    1
    28    18    19   ar
    29    18    22    2
    30    19    20   ar
    31     6     7    1
    32     6    11    1
    33     7     8    1
    34     7     9    1
    35     8    13    1
    36     9    10    1
    37     9    12    1
    38    10    11    1
    39    10     5    1
    40    12    14    1
    41     5     4    1
    42     4     1    1
    43     1     2    2
    44     1     3    1
    45     1    24    1
    46    24    25    1
    47    25    26    2
    48    25    27    1
@<TRIPOS>MOLECULE
UD1
 46 48 0 0 0
SMALL
GASTEIGER

@<TRIPOS>ATOM
      1 P          22.5261   71.5997   -2.7530 P.3     1  UNL1        0.2189
      2 O          23.4511   71.8032   -3.8895 O.2     1  UNL1       -0.5170
      3 O          21.6505   72.9321   -2.5285 O.3     1  UNL1       -0.4371
      4 O          23.3744   71.2854   -1.4210 O.3     1  UNL1       -0.3112
      5 C          22.4310   71.0798   -0.3683 C.3     1  UNL1        0.1811
      6 C          24.3717   72.9121    2.0408 C.3     1  UNL1        0.2383
      7 C          24.4539   73.7625    0.7484 C.3     1  UNL1        0.1895
      8 O          24.5782   75.1511    1.0574 O.3     1  UNL1       -0.3779
      9 C          23.0886   73.4653    0.0756 C.3     1  UNL1        0.1713
     10 C          22.6365   72.1387    0.7161 C.3     1  UNL1        0.1764
     11 O          23.6760   71.7204    1.6170 O.3     1  UNL1       -0.3308
     12 O          22.1538   74.5089    0.3583 O.3     1  UNL1       -0.3794
     13 H          24.6248   75.6227    0.2142 H       1  UNL1        0.2106
     14 H          22.5209   75.3213   -0.0150 H       1  UNL1        0.2105
     15 N          25.7103   72.5815    2.5310 N.ar    1  UNL1       -0.2551
     16 C          26.2581   71.3931    2.2229 C.ar    1  UNL1        0.3323
     17 N          27.4892   71.0639    2.6568 N.ar    1  UNL1       -0.2743
     18 C          28.1929   71.9238    3.4204 C.ar    1  UNL1        0.2626
     19 C          27.6258   73.1759    3.7574 C.ar    1  UNL1        0.0795
     20 C          26.3913   73.4827    3.3043 C.ar    1  UNL1        0.0869
     21 O          25.6358   70.6069    1.5349 O.2     1  UNL1       -0.2464
     22 O          29.3042   71.6253    3.8173 O.2     1  UNL1       -0.2670
     23 H          27.8708   70.2043    2.4209 H       1  UNL1        0.1734
     24 O          21.5490   70.3616   -3.0713 O.3     1  UNL1       -0.2703
     25 P          20.0459   70.9347   -3.0366 P.3     1  UNL1        0.2208
     26 O          20.0829   72.4094   -2.9235 O.2     1  UNL1       -0.5170
     27 O          19.2654   70.3196   -1.7698 O.3     1  UNL1       -0.4371
     28 O          19.2804   70.5194   -4.3901 O.3     1  UNL1       -0.2865
     29 C          18.7201   71.7161   -4.9333 C.3     1  UNL1        0.2611
     30 C          17.2466   71.4774   -5.2678 C.3     1  UNL1        0.1582
     31 C          17.1412   70.3255   -6.2736 C.3     1  UNL1        0.1625
     32 C          18.0398   70.6396   -7.4744 C.3     1  UNL1        0.1686
     33 C          19.4544   70.9386   -6.9735 C.3     1  UNL1        0.1760
     34 O          15.7865   70.1910   -6.7073 O.3     1  UNL1       -0.3801
     35 O          18.0709   69.5149   -8.3552 O.3     1  UNL1       -0.3794
     36 O          19.4311   72.0783   -6.1151 O.3     1  UNL1       -0.3263
     37 H          15.7662   69.4570   -7.3367 H       1  UNL1        0.2105
     38 H          18.6469   69.7547   -9.0949 H       1  UNL1        0.2105
     39 C          16.3168   69.8381   -3.7242 C.2     1  UNL1        0.2231
     40 C          15.5652   69.4816   -2.4671 C.3     1  UNL1        0.0946
     41 N          16.5170   71.1305   -4.0464 N.am    1  UNL1       -0.2994
     42 O          16.7411   68.9613   -4.4463 O.2     1  UNL1       -0.2751
     43 H          16.1774   71.8325   -3.4689 H       1  UNL1        0.1496
     44 C          20.3677   71.2218   -8.1680 C.3     1  UNL1        0.1693
     45 O          20.9994   72.4919   -7.9946 O.3     1  UNL1       -0.3794
     46 H          21.5640   72.6313   -8.7668 H       1  UNL1        0.2105
@<TRIPOS>BOND
     1    29    30    1
     2    29    28    1
     3    29    36    1
     4    30    31    1
     5    30    41    1
     6    31    32    1
     7    31    34    1
     8    32    33    1
     9    32    35    1
    10    33    44    1
    11    33    36    1
    12    44    45    1
    13    39    40    1
    14    39    41   am
    15    39    42    2
    16    41    43    1
    17    28    25    1
    18    34    37    1
    19    35    38    1
    20    45    46    1
    21    15    16   ar
    22    15    20   ar
    23    15     6    1
    24    16    17   ar
    25    16    21    2
    26    17    18   ar
    27    17    23    1
    28    18    19   ar
    29    18    22    2
    30    19    20   ar
    31     6     7    1
    32     6    11    1
    33     7     8    1
    34     7     9    1
    35     8    13    1
    36     9    10    1
    37     9    12    1
    38    10    11    1
    39    10     5    1
    40    12    14    1
    41     5     4    1
    42     4     1    1
    43     1     2    2
    44     1     3    1
    45     1    24    1
    46    24    25    1
    47    25    26    2
    48    25    27    1
@<TRIPOS>MOLECULE
UD1
 46 48 0 0 0
SMALL
GASTEIGER

@<TRIPOS>ATOM
      1 P          23.4812   72.1532   -3.0689 P.3     1  UNL1        0.2189
      2 O          24.1254   70.8224   -3.1199 O.2     1  UNL1       -0.5170
      3 O          24.5550   73.2849   -3.4675 O.3     1  UNL1       -0.4371
      4 O          22.9398   72.4299   -1.5779 O.3     1  UNL1       -0.3112
      5 C          23.9554   71.9818   -0.6790 C.3     1  UNL1        0.1811
      6 C          22.9061   71.9084    2.7592 C.3     1  UNL1        0.2383
      7 C          21.6720   72.4397    1.9880 C.3     1  UNL1        0.1895
      8 O          20.4593   72.0545    2.6363 O.3     1  UNL1       -0.3779
      9 C          21.8153   71.7308    0.6161 C.3     1  UNL1        0.1713
     10 C          23.3051   71.3428    0.5491 C.3     1  UNL1        0.1764
     11 O          23.9315   71.8351    1.7459 O.3     1  UNL1       -0.3308
     12 O          20.9860   70.5679    0.5647 O.3     1  UNL1       -0.3794
     13 H          19.7330   72.4150    2.1091 H       1  UNL1        0.2106
     14 H          20.0742   70.8702    0.6714 H       1  UNL1        0.2105
     15 N          23.2949   72.8378    3.8206 N.ar    1  UNL1       -0.2551
     16 C          24.2657   73.7397    3.5940 C.ar    1  UNL1        0.3323
     17 N          24.6410   74.6094    4.5506 N.ar    1  UNL1       -0.2743
     18 C          24.0508   74.5826    5.7626 C.ar    1  UNL1        0.2626
     19 C          23.0315   73.6343    6.0167 C.ar    1  UNL1        0.0795
     20 C          22.6709   72.7773    5.0375 C.ar    1  UNL1        0.0869
     21 O          24.8074   73.7763    2.5059 O.2     1  UNL1       -0.2464
     22 O          24.3926   75.3653    6.6298 O.2     1  UNL1       -0.2670
     23 H          25.3397   75.2564    4.3681 H       1  UNL1        0.1734
     24 O          22.2492   72.1931   -4.1030 O.3     1  UNL1       -0.2703
     25 P          20.9177   71.8904   -3.2517 P.3     1  UNL1        0.2208
     26 O          20.7063   72.9728   -2.2655 O.2     1  UNL1       -0.5170
     27 O          21.0807   70.4867   -2.4801 O.3     1  UNL1       -0.4371
     28 O          19.6518   71.8126   -4.2426 O.3     1  UNL1       -0.2865
     29 C          19.7800   70.5983   -4.9843 C.3     1  UNL1        0.2611
     30 C          19.6898   70.9080   -6.4796 C.3     1  UNL1        0.1582
     31 C          18.3439   71.5810   -6.7718 C.3     1  UNL1        0.1625
     32 C          17.2225   70.6939   -6.2208 C.3     1  UNL1        0.1686
     33 C          17.4974   70.4028   -4.7440 C.3     1  UNL1        0.1760
     34 O          18.1841   71.7395   -8.1827 O.3     1  UNL1       -0.3801
     35 O          15.9705   71.3700   -6.3512 O.3     1  UNL1       -0.3794
     36 O          18.7342   69.7032   -4.6125 O.3     1  UNL1       -0.3263
     37 H          17.3270   72.1657   -8.3207 H       1  UNL1        0.2105
     38 H          15.2942   70.7780   -5.9925 H       1  UNL1        0.2105
     39 C          20.5849   73.1400   -6.8686 C.2     1  UNL1        0.2231
     40 C          21.7083   74.0654   -7.2611 C.3     1  UNL1        0.0946
     41 N          20.7809   71.8074   -6.8604 N.am    1  UNL1       -0.2994
     42 O          19.5041   73.5951   -6.5607 O.2     1  UNL1       -0.2751
     43 H          21.6457   71.4430   -7.1070 H       1  UNL1        0.1496
     44 C          16.3659   69.5440   -4.1755 C.3     1  UNL1        0.1693
     45 O          15.8840   68.6589   -5.1887 O.3     1  UNL1       -0.3794
     46 H          15.1739   68.1377   -4.7903 H       1  UNL1        0.2105
@<TRIPOS>BOND
     1    29    30    1
     2    29    28    1
     3    29    36    1
     4    30    31    1
     5    30    41    1
     6    31    32    1
     7    31    34    1
     8    32    33    1
     9    32    35    1
    10    33    44    1
    11    33    36    1
    12    44    45    1
    13    39    40    1
    14    39    41   am
    15    39    42    2
    16    41    43    1
    17    28    25    1
    18    34    37    1
    19    35    38    1
    20    45    46    1
    21    15    16   ar
    22    15    20   ar
    23    15     6    1
    24    16    17   ar
    25    16    21    2
    26    17    18   ar
    27    17    23    1
    28    18    19   ar
    29    18    22    2
    30    19    20   ar
    31     6     7    1
    32     6    11    1
    33     7     8    1
    34     7     9    1
    35     8    13    1
    36     9    10    1
    37     9    12    1
    38    10    11    1
    39    10     5    1
    40    12    14    1
    41     5     4    1
    42     4     1    1
    43     1     2    2
    44     1     3    1
    45     1    24    1
    46    24    25    1
    47    25    26    2
    48    25    27    1
@<TRIPOS>MOLECULE
UD1
 46 48 0 0 0
SMALL
GASTEIGER

@<TRIPOS>ATOM
      1 P          19.8371   72.1458   -1.1811 P.3     1  UNL1        0.2189
      2 O          18.7350   73.0832   -1.4902 O.2     1  UNL1       -0.5170
      3 O          21.0462   72.3783   -2.2187 O.3     1  UNL1       -0.4371
      4 O          19.3048   70.6316   -1.3095 O.3     1  UNL1       -0.3112
      5 C          19.4874   70.2427   -2.6718 C.3     1  UNL1        0.1811
      6 C          17.4971   70.4349   -5.6599 C.3     1  UNL1        0.2383
      7 C          17.2675   68.9964   -5.1325 C.3     1  UNL1        0.1895
      8 O          15.9622   68.5289   -5.4744 O.3     1  UNL1       -0.3779
      9 C          17.4032   69.1862   -3.5992 C.3     1  UNL1        0.1713
     10 C          18.1978   70.4984   -3.4534 C.3     1  UNL1        0.1764
     11 O          18.5124   70.9597   -4.7783 O.3     1  UNL1       -0.3308
     12 O          16.1141   69.3045   -2.9936 O.3     1  UNL1       -0.3794
     13 H          15.8838   67.6326   -5.1194 H       1  UNL1        0.2106
     14 H          15.6456   68.4778   -3.1703 H       1  UNL1        0.2105
     15 N          17.9760   70.4109   -7.0425 N.ar    1  UNL1       -0.2551
     16 C          17.0909   70.4055   -8.0543 C.ar    1  UNL1        0.3323
     17 N          17.5030   70.3875   -9.3357 N.ar    1  UNL1       -0.2743
     18 C          18.8196   70.3652   -9.6258 C.ar    1  UNL1        0.2626
     19 C          19.7622   70.3647   -8.5702 C.ar    1  UNL1        0.0795
     20 C          19.3214   70.3883   -7.2941 C.ar    1  UNL1        0.0869
     21 O          15.9001   70.4254   -7.8087 O.2     1  UNL1       -0.2464
     22 O          19.1933   70.3442  -10.7839 O.2     1  UNL1       -0.2670
     23 H          16.8507   70.3887  -10.0531 H       1  UNL1        0.1734
     24 O          20.3582   72.4059    0.3188 O.3     1  UNL1       -0.2703
     25 P          21.7649   71.6378    0.4619 P.3     1  UNL1        0.2208
     26 O          22.3843   71.4901   -0.8735 O.2     1  UNL1       -0.5170
     27 O          21.5191   70.1813    1.1026 O.3     1  UNL1       -0.4371
     28 O          22.7452   72.4843    1.4174 O.3     1  UNL1       -0.2865
     29 C          22.8729   71.7492    2.6358 C.3     1  UNL1        0.2611
     30 C          22.4044   72.6203    3.8027 C.3     1  UNL1        0.1582
     31 C          23.2535   73.8957    3.8486 C.3     1  UNL1        0.1625
     32 C          24.7330   73.4984    3.8845 C.3     1  UNL1        0.1686
     33 C          25.0266   72.5633    2.7094 C.3     1  UNL1        0.1760
     34 O          22.9273   74.6462    5.0198 O.3     1  UNL1       -0.3801
     35 O          25.5450   74.6694    3.7796 O.3     1  UNL1       -0.3794
     36 O          24.2371   71.3802    2.8259 O.3     1  UNL1       -0.3263
     37 H          23.4828   75.4377    5.0081 H       1  UNL1        0.2105
     38 H          26.4663   74.3742    3.8054 H       1  UNL1        0.2105
     39 C          20.6666   74.1588    3.0629 C.2     1  UNL1        0.2231
     40 C          19.2168   74.5238    2.8701 C.3     1  UNL1        0.0946
     41 N          20.9961   72.9751    3.6146 N.am    1  UNL1       -0.2994
     42 O          21.5367   74.9313    2.7221 O.2     1  UNL1       -0.2751
     43 H          20.2999   72.3568    3.8877 H       1  UNL1        0.1496
     44 C          26.5095   72.1863    2.7173 C.3     1  UNL1        0.1693
     45 O          26.6661   70.8568    2.2176 O.3     1  UNL1       -0.3794
     46 H          27.6122   70.6592    2.2396 H       1  UNL1        0.2105
@<TRIPOS>BOND
     1    29    30    1
     2    29    28    1
     3    29    36    1
     4    30    31    1
     5    30    41    1
     6    31    32    1
     7    31    34    1
     8    32    33    1
     9    32    35    1
    10    33    44    1
    11    33    36    1
    12    44    45    1
    13    39    40    1
    14    39    41   am
    15    39    42    2
    16    41    43    1
    17    28    25    1
    18    34    37    1
    19    35    38    1
    20    45    46    1
    21    15    16   ar
    22    15    20   ar
    23    15     6    1
    24    16    17   ar
    25    16    21    2
    26    17    18   ar
    27    17    23    1
    28    18    19   ar
    29    18    22    2
    30    19    20   ar
    31     6     7    1
    32     6    11    1
    33     7     8    1
    34     7     9    1
    35     8    13    1
    36     9    10    1
    37     9    12    1
    38    10    11    1
    39    10     5    1
    40    12    14    1
    41     5     4    1
    42     4     1    1
    43     1     2    2
    44     1     3    1
    45     1    24    1
    46    24    25    1
    47    25    26    2
    48    25    27    1
@<TRIPOS>MOLECULE
UD1
 46 48 0 0 0
SMALL
GASTEIGER

@<TRIPOS>ATOM
      1 P          20.9933   71.2077   -0.8890 P.3     1  UNL1        0.2189
      2 O          21.9118   70.6171   -1.8872 O.2     1  UNL1       -0.5170
      3 O          21.1891   70.4651    0.5261 O.3     1  UNL1       -0.4371
      4 O          19.4724   71.0234   -1.3848 O.3     1  UNL1       -0.3112
      5 C          19.5245   70.3213   -2.6277 C.3     1  UNL1        0.1811
      6 C          17.5041   70.4648   -5.5983 C.3     1  UNL1        0.2383
      7 C          17.3065   69.0242   -5.0637 C.3     1  UNL1        0.1895
      8 O          16.0072   68.5308   -5.3921 O.3     1  UNL1       -0.3779
      9 C          17.4524   69.2222   -3.5324 C.3     1  UNL1        0.1713
     10 C          18.2234   70.5497   -3.3985 C.3     1  UNL1        0.1764
     11 O          18.5173   71.0119   -4.7278 O.3     1  UNL1       -0.3308
     12 O          16.1667   69.3185   -2.9156 O.3     1  UNL1       -0.3794
     13 H          15.9489   67.6346   -5.0332 H       1  UNL1        0.2106
     14 H          15.7124   68.4824   -3.0851 H       1  UNL1        0.2105
     15 N          17.9710   70.4446   -6.9850 N.ar    1  UNL1       -0.2551
     16 C          17.0772   70.4064   -7.9885 C.ar    1  UNL1        0.3323
     17 N          17.4781   70.3911   -9.2736 N.ar    1  UNL1       -0.2743
     18 C          18.7920   70.4047   -9.5757 C.ar    1  UNL1        0.2626
     19 C          19.7438   70.4389   -8.5289 C.ar    1  UNL1        0.0795
     20 C          19.3141   70.4590   -7.2490 C.ar    1  UNL1        0.0869
     21 O          15.8887   70.3939   -7.7321 O.2     1  UNL1       -0.2464
     22 O          19.1557   70.3860  -10.7371 O.2     1  UNL1       -0.2670
     23 H          16.8195   70.3683   -9.9849 H       1  UNL1        0.1734
     24 O          21.3171   72.7750   -0.7231 O.3     1  UNL1       -0.2703
     25 P          22.8723   72.8889   -0.3257 P.3     1  UNL1        0.2208
     26 O          23.4388   71.5326   -0.1572 O.2     1  UNL1       -0.5170
     27 O          23.0158   73.7049    1.0548 O.3     1  UNL1       -0.4371
     28 O          23.6698   73.6626   -1.4901 O.3     1  UNL1       -0.2865
     29 C          22.9355   74.8549   -1.7736 C.3     1  UNL1        0.2611
     30 C          22.8651   75.0565   -3.2884 C.3     1  UNL1        0.1582
     31 C          24.2889   75.1519   -3.8480 C.3     1  UNL1        0.1625
     32 C          25.0456   76.2406   -3.0798 C.3     1  UNL1        0.1686
     33 C          24.9541   75.9479   -1.5807 C.3     1  UNL1        0.1760
     34 O          24.2365   75.4888   -5.2355 O.3     1  UNL1       -0.3801
     35 O          26.4160   76.2462   -3.4843 O.3     1  UNL1       -0.3794
     36 O          23.5882   75.9687   -1.1680 O.3     1  UNL1       -0.3263
     37 H          25.1511   75.5378   -5.5459 H       1  UNL1        0.2105
     38 H          26.8546   76.9440   -2.9770 H       1  UNL1        0.2105
     39 C          22.8784   72.8910   -4.4041 C.2     1  UNL1        0.2231
     40 C          22.1642   71.7236   -5.0360 C.3     1  UNL1        0.0946
     41 N          22.1718   73.9220   -3.9019 N.am    1  UNL1       -0.2994
     42 O          24.0896   72.9027   -4.3482 O.2     1  UNL1       -0.2751
     43 H          21.2025   73.9130   -3.9467 H       1  UNL1        0.1496
     44 C          25.7343   77.0119   -0.8060 C.3     1  UNL1        0.1693
     45 O          25.6544   78.2598   -1.4978 O.3     1  UNL1       -0.3794
     46 H          26.1579   78.9007   -0.9778 H       1  UNL1        0.2105
@<TRIPOS>BOND
     1    29    30    1
     2    29    28    1
     3    29    36    1
     4    30    31    1
     5    30    41    1
     6    31    32    1
     7    31    34    1
     8    32    33    1
     9    32    35    1
    10    33    44    1
    11    33    36    1
    12    44    45    1
    13    39    40    1
    14    39    41   am
    15    39    42    2
    16    41    43    1
    17    28    25    1
    18    34    37    1
    19    35    38    1
    20    45    46    1
    21    15    16   ar
    22    15    20   ar
    23    15     6    1
    24    16    17   ar
    25    16    21    2
    26    17    18   ar
    27    17    23    1
    28    18    19   ar
    29    18    22    2
    30    19    20   ar
    31     6     7    1
    32     6    11    1
    33     7     8    1
    34     7     9    1
    35     8    13    1
    36     9    10    1
    37     9    12    1
    38    10    11    1
    39    10     5    1
    40    12    14    1
    41     5     4    1
    42     4     1    1
    43     1     2    2
    44     1     3    1
    45     1    24    1
    46    24    25    1
    47    25    26    2
    48    25    27    1
@<TRIPOS>MOLECULE
UD1
 46 48 0 0 0
SMALL
GASTEIGER

@<TRIPOS>ATOM
      1 P          22.9228   71.8906   -1.2190 P.3     1  UNL1        0.2189
      2 O          23.5295   73.2219   -1.4388 O.2     1  UNL1       -0.5170
      3 O          23.8992   71.0013   -0.2978 O.3     1  UNL1       -0.4371
      4 O          22.7098   71.1578   -2.6369 O.3     1  UNL1       -0.3112
      5 C          21.6120   71.8087   -3.2784 C.3     1  UNL1        0.1811
      6 C          20.4894   71.7032   -6.6924 C.3     1  UNL1        0.2383
      7 C          20.6503   73.2127   -6.3832 C.3     1  UNL1        0.1895
      8 O          21.0113   73.9395   -7.5583 O.3     1  UNL1       -0.3779
      9 C          21.8108   73.2124   -5.3544 C.3     1  UNL1        0.1713
     10 C          21.8140   71.7770   -4.7941 C.3     1  UNL1        0.1764
     11 O          20.7282   71.0701   -5.4174 O.3     1  UNL1       -0.3308
     12 O          23.0516   73.5073   -5.9997 O.3     1  UNL1       -0.3794
     13 H          21.0949   74.8676   -7.2990 H       1  UNL1        0.2106
     14 H          22.9654   74.3917   -6.3798 H       1  UNL1        0.2105
     15 N          19.1365   71.4118   -7.1681 N.ar    1  UNL1       -0.2551
     16 C          18.9418   71.0661   -8.4526 C.ar    1  UNL1        0.3323
     17 N          17.7089   70.7888   -8.9165 N.ar    1  UNL1       -0.2743
     18 C          16.6415   70.8631   -8.0961 C.ar    1  UNL1        0.2626
     19 C          16.8314   71.2317   -6.7430 C.ar    1  UNL1        0.0795
     20 C          18.0795   71.4993   -6.3026 C.ar    1  UNL1        0.0869
     21 O          19.8945   70.9947   -9.2048 O.2     1  UNL1       -0.2464
     22 O          15.5258   70.6173   -8.5157 O.2     1  UNL1       -0.2670
     23 H          17.5875   70.5365   -9.8448 H       1  UNL1        0.1734
     24 O          21.5012   72.0631   -0.4854 O.3     1  UNL1       -0.2703
     25 P          21.7289   71.6898    1.0632 P.3     1  UNL1        0.2208
     26 O          21.9684   70.2353    1.1898 O.2     1  UNL1       -0.5170
     27 O          20.4211   72.0934    1.9112 O.3     1  UNL1       -0.4371
     28 O          23.0029   72.4945    1.6288 O.3     1  UNL1       -0.2865
     29 C          23.2206   72.0393    2.9655 C.3     1  UNL1        0.2611
     30 C          23.2237   73.2397    3.9136 C.3     1  UNL1        0.1582
     31 C          24.3284   74.2129    3.4866 C.3     1  UNL1        0.1625
     32 C          25.6519   73.4453    3.4022 C.3     1  UNL1        0.1686
     33 C          25.4664   72.2309    2.4900 C.3     1  UNL1        0.1760
     34 O          24.4403   75.2625    4.4495 O.3     1  UNL1       -0.3801
     35 O          26.6653   74.2977    2.8654 O.3     1  UNL1       -0.3794
     36 O          24.4743   71.3636    3.0377 O.3     1  UNL1       -0.3263
     37 H          25.1444   75.8498    4.1420 H       1  UNL1        0.2105
     38 H          27.4794   73.7757    2.8289 H       1  UNL1        0.2105
     39 C          21.7588   74.9872    3.0564 C.2     1  UNL1        0.2231
     40 C          20.4224   75.6818    2.9956 C.3     1  UNL1        0.0946
     41 N          21.9254   73.9146    3.8538 N.am    1  UNL1       -0.2994
     42 O          22.6847   75.3945    2.3878 O.2     1  UNL1       -0.2751
     43 H          21.1847   73.5886    4.3892 H       1  UNL1        0.1496
     44 C          26.7918   71.4753    2.3730 C.3     1  UNL1        0.1693
     45 O          27.6539   71.8558    3.4473 O.3     1  UNL1       -0.3794
     46 H          28.4756   71.3586    3.3362 H       1  UNL1        0.2105
@<TRIPOS>BOND
     1    29    30    1
     2    29    28    1
     3    29    36    1
     4    30    31    1
     5    30    41    1
     6    31    32    1
     7    31    34    1
     8    32    33    1
     9    32    35    1
    10    33    44    1
    11    33    36    1
    12    44    45    1
    13    39    40    1
    14    39    41   am
    15    39    42    2
    16    41    43    1
    17    28    25    1
    18    34    37    1
    19    35    38    1
    20    45    46    1
    21    15    16   ar
    22    15    20   ar
    23    15     6    1
    24    16    17   ar
    25    16    21    2
    26    17    18   ar
    27    17    23    1
    28    18    19   ar
    29    18    22    2
    30    19    20   ar
    31     6     7    1
    32     6    11    1
    33     7     8    1
    34     7     9    1
    35     8    13    1
    36     9    10    1
    37     9    12    1
    38    10    11    1
    39    10     5    1
    40    12    14    1
    41     5     4    1
    42     4     1    1
    43     1     2    2
    44     1     3    1
    45     1    24    1
    46    24    25    1
    47    25    26    2
    48    25    27    1
@<TRIPOS>MOLECULE
UD1
 46 48 0 0 0
SMALL
GASTEIGER

@<TRIPOS>ATOM
      1 P          16.1134   69.8230   -2.7376 P.3     1  UNL1        0.2189
      2 O          15.8820   69.1884   -4.0538 O.2     1  UNL1       -0.5170
      3 O          16.7047   68.7317   -1.7120 O.3     1  UNL1       -0.4371
      4 O          14.7210   70.3956   -2.1663 O.3     1  UNL1       -0.3112
      5 C          14.5420   69.8285   -0.8676 C.3     1  UNL1        0.1811
      6 C          12.1192   67.6545    0.6593 C.3     1  UNL1        0.2383
      7 C          11.5652   69.0815    0.8979 C.3     1  UNL1        0.1895
      8 O          10.1377   69.0757    0.9365 O.3     1  UNL1       -0.3779
      9 C          12.0820   69.8443   -0.3496 C.3     1  UNL1        0.1713
     10 C          13.2632   68.9896   -0.8482 C.3     1  UNL1        0.1764
     11 O          13.4138   67.8899    0.0656 O.3     1  UNL1       -0.3308
     12 O          11.0598   69.9259   -1.3452 O.3     1  UNL1       -0.3794
     13 H           9.8578   69.9891    1.0876 H       1  UNL1        0.2106
     14 H          10.3269   70.4193   -0.9531 H       1  UNL1        0.2105
     15 N          12.2553   66.9318    1.9244 N.ar    1  UNL1       -0.2551
     16 C          13.4726   66.7691    2.4713 C.ar    1  UNL1        0.3323
     17 N          13.6270   66.1122    3.6361 N.ar    1  UNL1       -0.2743
     18 C          12.5562   65.5956    4.2720 C.ar    1  UNL1        0.2626
     19 C          11.2695   65.7543    3.7044 C.ar    1  UNL1        0.0795
     20 C          11.1426   66.4223    2.5378 C.ar    1  UNL1        0.0869
     21 O          14.4480   67.2294    1.9098 O.2     1  UNL1       -0.2464
     22 O          12.6952   64.9973    5.3228 O.2     1  UNL1       -0.2670
     23 H          14.5120   66.0084    4.0186 H       1  UNL1        0.1734
     24 O          17.1633   71.0312   -2.9014 O.3     1  UNL1       -0.2703
     25 P          18.6047   70.3630   -3.1568 P.3     1  UNL1        0.2208
     26 O          18.4264   68.9909   -3.6806 O.2     1  UNL1       -0.5170
     27 O          19.4234   70.3056   -1.7716 O.3     1  UNL1       -0.4371
     28 O          19.4239   71.2434   -4.2265 O.3     1  UNL1       -0.2865
     29 C          20.5211   70.4425   -4.6691 C.3     1  UNL1        0.2611
     30 C          21.8216   71.2299   -4.5004 C.3     1  UNL1        0.1582
     31 C          21.7330   72.5246   -5.3161 C.3     1  UNL1        0.1625
     32 C          21.3688   72.1693   -6.7615 C.3     1  UNL1        0.1686
     33 C          20.1004   71.3134   -6.7598 C.3     1  UNL1        0.1760
     34 O          22.9941   73.1957   -5.2878 O.3     1  UNL1       -0.3801
     35 O          21.1373   73.3677   -7.5045 O.3     1  UNL1       -0.3794
     36 O          20.3366   70.1030   -6.0417 O.3     1  UNL1       -0.3263
     37 H          22.8932   74.0024   -5.8115 H       1  UNL1        0.2105
     38 H          20.9108   73.0986   -8.4060 H       1  UNL1        0.2105
     39 C          23.2216   71.3639   -2.5114 C.2     1  UNL1        0.2231
     40 C          23.4234   71.6969   -1.0551 C.3     1  UNL1        0.0946
     41 N          22.0183   71.5538   -3.0859 N.am    1  UNL1       -0.2994
     42 O          24.1427   70.9241   -3.1660 O.2     1  UNL1       -0.2751
     43 H          21.2810   71.9054   -2.5622 H       1  UNL1        0.1496
     44 C          19.7096   70.9802   -8.2011 C.3     1  UNL1        0.1693
     45 O          18.6067   71.7980   -8.5973 O.3     1  UNL1       -0.3794
     46 H          18.3926   71.5567   -9.5086 H       1  UNL1        0.2105
@<TRIPOS>BOND
     1    29    30    1
     2    29    28    1
     3    29    36    1
     4    30    31    1
     5    30    41    1
     6    31    32    1
     7    31    34    1
     8    32    33    1
     9    32    35    1
    10    33    44    1
    11    33    36    1
    12    44    45    1
    13    39    40    1
    14    39    41   am
    15    39    42    2
    16    41    43    1
    17    28    25    1
    18    34    37    1
    19    35    38    1
    20    45    46    1
    21    15    16   ar
    22    15    20   ar
    23    15     6    1
    24    16    17   ar
    25    16    21    2
    26    17    18   ar
    27    17    23    1
    28    18    19   ar
    29    18    22    2
    30    19    20   ar
    31     6     7    1
    32     6    11    1
    33     7     8    1
    34     7     9    1
    35     8    13    1
    36     9    10    1
    37     9    12    1
    38    10    11    1
    39    10     5    1
    40    12    14    1
    41     5     4    1
    42     4     1    1
    43     1     2    2
    44     1     3    1
    45     1    24    1
    46    24    25    1
    47    25    26    2
    48    25    27    1
@<TRIPOS>MOLECULE
UD1
 46 48 0 0 0
SMALL
GASTEIGER

@<TRIPOS>ATOM
      1 P          20.7329   71.3437   -1.0699 P.3     1  UNL1        0.2189
      2 O          20.9973   72.7841   -0.8600 O.2     1  UNL1       -0.5170
      3 O          21.6767   70.7915   -2.2518 O.3     1  UNL1       -0.4371
      4 O          19.1887   71.1357   -1.4761 O.3     1  UNL1       -0.3112
      5 C          19.1697   70.2308   -2.5811 C.3     1  UNL1        0.1811
      6 C          17.3099   70.4307   -5.6517 C.3     1  UNL1        0.2383
      7 C          17.0944   68.9769   -5.1613 C.3     1  UNL1        0.1895
      8 O          15.8182   68.4835   -5.5700 O.3     1  UNL1       -0.3779
      9 C          17.1569   69.1405   -3.6203 C.3     1  UNL1        0.1713
     10 C          17.9100   70.4691   -3.4151 C.3     1  UNL1        0.1764
     11 O          18.2712   70.9636   -4.7160 O.3     1  UNL1       -0.3308
     12 O          15.8395   69.2147   -3.0712 O.3     1  UNL1       -0.3794
     13 H          15.7473   67.5789   -5.2352 H       1  UNL1        0.2106
     14 H          15.4009   68.3800   -3.2838 H       1  UNL1        0.2105
     15 N          17.8504   70.4454   -7.0115 N.ar    1  UNL1       -0.2551
     16 C          17.0115   70.4399   -8.0620 C.ar    1  UNL1        0.3323
     17 N          17.4805   70.4571   -9.3237 N.ar    1  UNL1       -0.2743
     18 C          18.8088   70.4709   -9.5547 C.ar    1  UNL1        0.2626
     19 C          19.7033   70.4708   -8.4580 C.ar    1  UNL1        0.0795
     20 C          19.2057   70.4587   -7.2028 C.ar    1  UNL1        0.0869
     21 O          15.8108   70.4276   -7.8699 O.2     1  UNL1       -0.2464
     22 O          19.2341   70.4816  -10.6951 O.2     1  UNL1       -0.2670
     23 H          16.8609   70.4576  -10.0695 H       1  UNL1        0.1734
     24 O          21.0438   70.5376    0.2874 O.3     1  UNL1       -0.2703
     25 P          22.3395   71.2246    0.9497 P.3     1  UNL1        0.2208
     26 O          22.8926   72.2333    0.0194 O.2     1  UNL1       -0.5170
     27 O          23.4529   70.0996    1.2442 O.3     1  UNL1       -0.4371
     28 O          21.9228   71.9394    2.3303 O.3     1  UNL1       -0.2865
     29 C          22.2692   73.3197    2.2034 C.3     1  UNL1        0.2611
     30 C          23.3319   73.6716    3.2459 C.3     1  UNL1        0.1582
     31 C          22.7779   73.3791    4.6449 C.3     1  UNL1        0.1625
     32 C          21.4404   74.1096    4.8050 C.3     1  UNL1        0.1686
     33 C          20.5192   73.7222    3.6463 C.3     1  UNL1        0.1760
     34 O          23.7013   73.8420    5.6320 O.3     1  UNL1       -0.3801
     35 O          20.8360   73.7340    6.0440 O.3     1  UNL1       -0.3794
     36 O          21.1074   74.1206    2.4087 O.3     1  UNL1       -0.3263
     37 H          23.3139   73.6381    6.4944 H       1  UNL1        0.2105
     38 H          19.9984   74.2150    6.1038 H       1  UNL1        0.2105
     39 C          25.7527   73.4098    3.1721 C.2     1  UNL1        0.2231
     40 C          26.9872   72.5783    2.9333 C.3     1  UNL1        0.0946
     41 N          24.5314   72.8641    3.0146 N.am    1  UNL1       -0.2994
     42 O          25.8588   74.5708    3.5053 O.2     1  UNL1       -0.2751
     43 H          24.4462   71.9351    2.7477 H       1  UNL1        0.1496
     44 C          19.1686   74.4215    3.8144 C.3     1  UNL1        0.1693
     45 O          18.3568   73.6778    4.7254 O.3     1  UNL1       -0.3794
     46 H          17.5174   74.1510    4.8026 H       1  UNL1        0.2105
@<TRIPOS>BOND
     1    29    30    1
     2    29    28    1
     3    29    36    1
     4    30    31    1
     5    30    41    1
     6    31    32    1
     7    31    34    1
     8    32    33    1
     9    32    35    1
    10    33    44    1
    11    33    36    1
    12    44    45    1
    13    39    40    1
    14    39    41   am
    15    39    42    2
    16    41    43    1
    17    28    25    1
    18    34    37    1
    19    35    38    1
    20    45    46    1
    21    15    16   ar
    22    15    20   ar
    23    15     6    1
    24    16    17   ar
    25    16    21    2
    26    17    18   ar
    27    17    23    1
    28    18    19   ar
    29    18    22    2
    30    19    20   ar
    31     6     7    1
    32     6    11    1
    33     7     8    1
    34     7     9    1
    35     8    13    1
    36     9    10    1
    37     9    12    1
    38    10    11    1
    39    10     5    1
    40    12    14    1
    41     5     4    1
    42     4     1    1
    43     1     2    2
    44     1     3    1
    45     1    24    1
    46    24    25    1
    47    25    26    2
    48    25    27    1
@<TRIPOS>MOLECULE
UD1
 46 48 0 0 0
SMALL
GASTEIGER

@<TRIPOS>ATOM
      1 P          16.1873   69.7812   -2.8325 P.3     1  UNL1        0.2189
      2 O          15.8703   69.1186   -4.1167 O.2     1  UNL1       -0.5170
      3 O          16.7031   68.6825   -1.7745 O.3     1  UNL1       -0.4371
      4 O          14.8646   70.4981   -2.2583 O.3     1  UNL1       -0.3112
      5 C          14.4812   69.7801   -1.0845 C.3     1  UNL1        0.1811
      6 C          10.9896   68.9645   -0.8181 C.3     1  UNL1        0.2383
      7 C          11.5697   68.6502    0.5837 C.3     1  UNL1        0.1895
      8 O          10.5885   68.8553    1.6007 O.3     1  UNL1       -0.3779
      9 C          12.7152   69.6889    0.7024 C.3     1  UNL1        0.1713
     10 C          13.0178   70.0809   -0.7568 C.3     1  UNL1        0.1764
     11 O          12.1568   69.2965   -1.5998 O.3     1  UNL1       -0.3308
     12 O          12.2839   70.8258    1.4535 O.3     1  UNL1       -0.3794
     13 H          11.0109   68.6430    2.4445 H       1  UNL1        0.2106
     14 H          12.0531   70.5063    2.3360 H       1  UNL1        0.2105
     15 N          10.3120   67.7928   -1.3744 N.ar    1  UNL1       -0.2551
     16 C           9.2419   67.9578   -2.1713 C.ar    1  UNL1        0.3323
     17 N           8.6015   66.8984   -2.7001 N.ar    1  UNL1       -0.2743
     18 C           9.0211   65.6460   -2.4291 C.ar    1  UNL1        0.2626
     19 C          10.1428   65.4577   -1.5868 C.ar    1  UNL1        0.0795
     20 C          10.7697   66.5381   -1.0741 C.ar    1  UNL1        0.0869
     21 O           8.8515   69.0811   -2.4251 O.2     1  UNL1       -0.2464
     22 O           8.4400   64.6873   -2.9028 O.2     1  UNL1       -0.2670
     23 H           7.8342   67.0361   -3.2767 H       1  UNL1        0.1734
     24 O          17.3361   70.8832   -3.0663 O.3     1  UNL1       -0.2703
     25 P          18.7414   70.0996   -3.0541 P.3     1  UNL1        0.2208
     26 O          18.5097   68.6670   -3.3421 O.2     1  UNL1       -0.5170
     27 O          19.4285   70.2508   -1.6060 O.3     1  UNL1       -0.4371
     28 O          19.7140   70.7217   -4.1755 O.3     1  UNL1       -0.2865
     29 C          19.5025   72.1347   -4.1700 C.3     1  UNL1        0.2611
     30 C          19.3065   72.6217   -5.6068 C.3     1  UNL1        0.1582
     31 C          20.5483   72.2637   -6.4311 C.3     1  UNL1        0.1625
     32 C          21.7864   72.8176   -5.7180 C.3     1  UNL1        0.1686
     33 C          21.7968   72.3132   -4.2734 C.3     1  UNL1        0.1760
     34 O          20.4423   72.8429   -7.7329 O.3     1  UNL1       -0.3801
     35 O          22.9652   72.3705   -6.3903 O.3     1  UNL1       -0.3794
     36 O          20.6340   72.7810   -3.5910 O.3     1  UNL1       -0.3263
     37 H          21.2419   72.5929   -8.2159 H       1  UNL1        0.2105
     38 H          23.7190   72.7405   -5.9092 H       1  UNL1        0.2105
     39 C          18.2637   70.8297   -6.8857 C.2     1  UNL1        0.2231
     40 C          17.0510   70.1633   -7.4837 C.3     1  UNL1        0.0946
     41 N          18.1287   71.9736   -6.1874 N.am    1  UNL1       -0.2994
     42 O          19.3614   70.3365   -7.0338 O.2     1  UNL1       -0.2751
     43 H          17.2504   72.3687   -6.0690 H       1  UNL1        0.1496
     44 C          23.0468   72.8345   -3.5615 C.3     1  UNL1        0.1693
     45 O          24.2087   72.2341   -4.1373 O.3     1  UNL1       -0.3794
     46 H          24.9719   72.5883   -3.6612 H       1  UNL1        0.2105
@<TRIPOS>BOND
     1    29    30    1
     2    29    28    1
     3    29    36    1
     4    30    31    1
     5    30    41    1
     6    31    32    1
     7    31    34    1
     8    32    33    1
     9    32    35    1
    10    33    44    1
    11    33    36    1
    12    44    45    1
    13    39    40    1
    14    39    41   am
    15    39    42    2
    16    41    43    1
    17    28    25    1
    18    34    37    1
    19    35    38    1
    20    45    46    1
    21    15    16   ar
    22    15    20   ar
    23    15     6    1
    24    16    17   ar
    25    16    21    2
    26    17    18   ar
    27    17    23    1
    28    18    19   ar
    29    18    22    2
    30    19    20   ar
    31     6     7    1
    32     6    11    1
    33     7     8    1
    34     7     9    1
    35     8    13    1
    36     9    10    1
    37     9    12    1
    38    10    11    1
    39    10     5    1
    40    12    14    1
    41     5     4    1
    42     4     1    1
    43     1     2    2
    44     1     3    1
    45     1    24    1
    46    24    25    1
    47    25    26    2
    48    25    27    1
@<TRIPOS>MOLECULE
UD1
 46 48 0 0 0
SMALL
GASTEIGER

@<TRIPOS>ATOM
      1 P          21.6626   72.7031   -6.4556 P.3     1  UNL1        0.2189
      2 O          20.8869   73.6898   -7.2389 O.2     1  UNL1       -0.5170
      3 O          23.2355   73.0077   -6.6158 O.3     1  UNL1       -0.4371
      4 O          21.3462   71.2203   -6.9977 O.3     1  UNL1       -0.3112
      5 C          20.6212   71.3720   -8.2191 C.3     1  UNL1        0.1811
      6 C          17.5003   70.0961   -6.9703 C.3     1  UNL1        0.2383
      7 C          17.0930   71.1256   -8.0541 C.3     1  UNL1        0.1895
      8 O          15.8650   70.7507   -8.6793 O.3     1  UNL1       -0.3779
      9 C          18.2747   71.0305   -9.0540 C.3     1  UNL1        0.1713
     10 C          19.4211   70.4238   -8.2221 C.3     1  UNL1        0.1764
     11 O          18.9329   70.2489   -6.8811 O.3     1  UNL1       -0.3308
     12 O          17.9361   70.1764  -10.1489 O.3     1  UNL1       -0.3794
     13 H          15.6684   71.4293   -9.3398 H       1  UNL1        0.2106
     14 H          17.1773   70.5784  -10.5924 H       1  UNL1        0.2105
     15 N          16.8668   70.4121   -5.6896 N.ar    1  UNL1       -0.2551
     16 C          16.4239   69.4169   -4.9017 C.ar    1  UNL1        0.3323
     17 N          15.8408   69.6780   -3.7168 N.ar    1  UNL1       -0.2743
     18 C          15.6827   70.9516   -3.3034 C.ar    1  UNL1        0.2626
     19 C          16.1389   72.0092   -4.1256 C.ar    1  UNL1        0.0795
     20 C          16.7250   71.7188   -5.3069 C.ar    1  UNL1        0.0869
     21 O          16.5595   68.2630   -5.2608 O.2     1  UNL1       -0.2464
     22 O          15.1513   71.1890   -2.2344 O.2     1  UNL1       -0.2670
     23 H          15.5316   68.9476   -3.1591 H       1  UNL1        0.1734
     24 O          21.2503   72.8062   -4.9037 O.3     1  UNL1       -0.2703
     25 P          22.5426   73.3509   -4.1147 P.3     1  UNL1        0.2208
     26 O          22.8510   74.7265   -4.5636 O.2     1  UNL1       -0.5170
     27 O          23.8008   72.3934   -4.4184 O.3     1  UNL1       -0.4371
     28 O          22.2442   73.3569   -2.5331 O.3     1  UNL1       -0.2865
     29 C          23.2303   72.5229   -1.9221 C.3     1  UNL1        0.2611
     30 C          22.5426   71.3216   -1.2710 C.3     1  UNL1        0.1582
     31 C          21.5374   71.8239   -0.2284 C.3     1  UNL1        0.1625
     32 C          22.2638   72.7632    0.7401 C.3     1  UNL1        0.1686
     33 C          22.9700   73.8577   -0.0627 C.3     1  UNL1        0.1760
     34 O          20.9980   70.7132    0.4905 O.3     1  UNL1       -0.3801
     35 O          21.3170   73.3571    1.6303 O.3     1  UNL1       -0.3794
     36 O          23.9359   73.2699   -0.9334 O.3     1  UNL1       -0.3263
     37 H          20.3721   71.0740    1.1336 H       1  UNL1        0.2105
     38 H          21.8154   73.9399    2.2206 H       1  UNL1        0.2105
     39 C          20.5231   70.7343   -2.5002 C.2     1  UNL1        0.2231
     40 C          19.8010   69.9339   -3.5539 C.3     1  UNL1        0.0946
     41 N          21.8407   70.5447   -2.2947 N.am    1  UNL1       -0.2994
     42 O          19.9178   71.5489   -1.8367 O.2     1  UNL1       -0.2751
     43 H          22.3254   69.8927   -2.8254 H       1  UNL1        0.1496
     44 C          23.6719   74.8203    0.8974 C.3     1  UNL1        0.1693
     45 O          24.6866   74.1188    1.6188 O.3     1  UNL1       -0.3794
     46 H          25.1028   74.7596    2.2109 H       1  UNL1        0.2105
@<TRIPOS>BOND
     1    29    30    1
     2    29    28    1
     3    29    36    1
     4    30    31    1
     5    30    41    1
     6    31    32    1
     7    31    34    1
     8    32    33    1
     9    32    35    1
    10    33    44    1
    11    33    36    1
    12    44    45    1
    13    39    40    1
    14    39    41   am
    15    39    42    2
    16    41    43    1
    17    28    25    1
    18    34    37    1
    19    35    38    1
    20    45    46    1
    21    15    16   ar
    22    15    20   ar
    23    15     6    1
    24    16    17   ar
    25    16    21    2
    26    17    18   ar
    27    17    23    1
    28    18    19   ar
    29    18    22    2
    30    19    20   ar
    31     6     7    1
    32     6    11    1
    33     7     8    1
    34     7     9    1
    35     8    13    1
    36     9    10    1
    37     9    12    1
    38    10    11    1
    39    10     5    1
    40    12    14    1
    41     5     4    1
    42     4     1    1
    43     1     2    2
    44     1     3    1
    45     1    24    1
    46    24    25    1
    47    25    26    2
    48    25    27    1
@<TRIPOS>MOLECULE
UD1
 46 48 0 0 0
SMALL
GASTEIGER

@<TRIPOS>ATOM
      1 P          20.7563   71.3357   -0.4878 P.3     1  UNL1        0.2189
      2 O          19.8950   72.4619   -0.0650 O.2     1  UNL1       -0.5170
      3 O          21.0432   70.3766    0.7733 O.3     1  UNL1       -0.4371
      4 O          22.1508   71.9099   -1.0523 O.3     1  UNL1       -0.3112
      5 C          22.5460   72.9691   -0.1792 C.3     1  UNL1        0.1811
      6 C          25.2336   73.0151    2.2087 C.3     1  UNL1        0.2383
      7 C          24.6443   71.5863    2.3151 C.3     1  UNL1        0.1895
      8 O          25.6536   70.6426    2.6754 O.3     1  UNL1       -0.3779
      9 C          24.1408   71.3333    0.8702 C.3     1  UNL1        0.1713
     10 C          23.9898   72.7461    0.2736 C.3     1  UNL1        0.1764
     11 O          24.3291   73.6870    1.3065 O.3     1  UNL1       -0.3308
     12 O          25.0991   70.5716    0.1325 O.3     1  UNL1       -0.3794
     13 H          25.2236   69.7777    2.7251 H       1  UNL1        0.2106
     14 H          25.1929   69.7244    0.5883 H       1  UNL1        0.2105
     15 N          25.2413   73.6724    3.5161 N.ar    1  UNL1       -0.2551
     16 C          26.4116   74.0104    4.0850 C.ar    1  UNL1        0.3323
     17 N          26.4486   74.6194    5.2850 N.ar    1  UNL1       -0.2743
     18 C          25.3044   74.8934    5.9436 C.ar    1  UNL1        0.2626
     19 C          24.0657   74.5376    5.3589 C.ar    1  UNL1        0.0795
     20 C          24.0572   73.9324    4.1518 C.ar    1  UNL1        0.0869
     21 O          27.4520   73.7700    3.5034 O.2     1  UNL1       -0.2464
     22 O          25.3369   75.4397    7.0307 O.2     1  UNL1       -0.2670
     23 H          27.3015   74.8604    5.6784 H       1  UNL1        0.1734
     24 O          20.0144   70.4971   -1.6433 O.3     1  UNL1       -0.2703
     25 P          20.3411   71.2346   -3.0356 P.3     1  UNL1        0.2208
     26 O          21.7433   70.9623   -3.4208 O.2     1  UNL1       -0.5170
     27 O          20.1307   72.8217   -2.8653 O.3     1  UNL1       -0.4371
     28 O          19.3534   70.6837   -4.1808 O.3     1  UNL1       -0.2865
     29 C          18.7654   71.8260   -4.8058 C.3     1  UNL1        0.2611
     30 C          17.3243   71.4993   -5.2015 C.3     1  UNL1        0.1582
     31 C          17.3264   70.3008   -6.1571 C.3     1  UNL1        0.1625
     32 C          18.2699   70.6068   -7.3251 C.3     1  UNL1        0.1686
     33 C          19.6408   70.9979   -6.7691 C.3     1  UNL1        0.1760
     34 O          16.0040   70.0797   -6.6508 O.3     1  UNL1       -0.3801
     35 O          18.4004   69.4478   -8.1505 O.3     1  UNL1       -0.3794
     36 O          19.5185   72.1714   -5.9663 O.3     1  UNL1       -0.3263
     37 H          16.0515   69.3188   -7.2460 H       1  UNL1        0.2105
     38 H          19.0018   69.6837   -8.8709 H       1  UNL1        0.2105
     39 C          16.4103   69.8856   -3.6221 C.2     1  UNL1        0.2231
     40 C          15.6125   69.5470   -2.3887 C.3     1  UNL1        0.0946
     41 N          16.5498   71.1699   -4.0032 N.am    1  UNL1       -0.2994
     42 O          16.9262   69.0015   -4.2720 O.2     1  UNL1       -0.2751
     43 H          16.1368   71.8775   -3.4834 H       1  UNL1        0.1496
     44 C          20.6001   71.2742   -7.9285 C.3     1  UNL1        0.1693
     45 O          19.8496   71.5587   -9.1109 O.3     1  UNL1       -0.3794
     46 H          20.4902   71.7262   -9.8154 H       1  UNL1        0.2105
@<TRIPOS>BOND
     1    29    30    1
     2    29    28    1
     3    29    36    1
     4    30    31    1
     5    30    41    1
     6    31    32    1
     7    31    34    1
     8    32    33    1
     9    32    35    1
    10    33    44    1
    11    33    36    1
    12    44    45    1
    13    39    40    1
    14    39    41   am
    15    39    42    2
    16    41    43    1
    17    28    25    1
    18    34    37    1
    19    35    38    1
    20    45    46    1
    21    15    16   ar
    22    15    20   ar
    23    15     6    1
    24    16    17   ar
    25    16    21    2
    26    17    18   ar
    27    17    23    1
    28    18    19   ar
    29    18    22    2
    30    19    20   ar
    31     6     7    1
    32     6    11    1
    33     7     8    1
    34     7     9    1
    35     8    13    1
    36     9    10    1
    37     9    12    1
    38    10    11    1
    39    10     5    1
    40    12    14    1
    41     5     4    1
    42     4     1    1
    43     1     2    2
    44     1     3    1
    45     1    24    1
    46    24    25    1
    47    25    26    2
    48    25    27    1
@<TRIPOS>MOLECULE
UD1
 46 48 0 0 0
SMALL
GASTEIGER

@<TRIPOS>ATOM
      1 P          22.7760   71.4163   -3.0052 P.3     1  UNL1        0.2189
      2 O          24.1488   70.8649   -2.9959 O.2     1  UNL1       -0.5170
      3 O          22.6052   72.4099   -4.2606 O.3     1  UNL1       -0.4371
      4 O          22.5154   72.2289   -1.6397 O.3     1  UNL1       -0.3112
      5 C          23.6643   72.0307   -0.8144 C.3     1  UNL1        0.1811
      6 C          23.0144   72.1085    2.7210 C.3     1  UNL1        0.2383
      7 C          21.6477   72.4334    2.0678 C.3     1  UNL1        0.1895
      8 O          20.5695   71.9645    2.8783 O.3     1  UNL1       -0.3779
      9 C          21.7256   71.6399    0.7376 C.3     1  UNL1        0.1713
     10 C          23.2353   71.4202    0.5207 C.3     1  UNL1        0.1764
     11 O          23.9240   72.0731    1.6007 O.3     1  UNL1       -0.3308
     12 O          21.0441   70.3896    0.8601 O.3     1  UNL1       -0.3794
     13 H          19.7512   72.1974    2.4182 H       1  UNL1        0.2106
     14 H          20.1194   70.5934    1.0538 H       1  UNL1        0.2105
     15 N          23.4005   73.1565    3.6665 N.ar    1  UNL1       -0.2551
     16 C          24.1725   74.1762    3.2522 C.ar    1  UNL1        0.3323
     17 N          24.5397   75.1561    4.0990 N.ar    1  UNL1       -0.2743
     18 C          24.1433   75.1247    5.3874 C.ar    1  UNL1        0.2626
     19 C          23.3353   74.0539    5.8383 C.ar    1  UNL1        0.0795
     20 C          22.9772   73.0870    4.9664 C.ar    1  UNL1        0.0869
     21 O          24.5379   74.2186    2.0932 O.2     1  UNL1       -0.2464
     22 O          24.4787   76.0076    6.1551 O.2     1  UNL1       -0.2670
     23 H          25.0929   75.8866    3.7819 H       1  UNL1        0.1734
     24 O          21.7150   70.2126   -3.1240 O.3     1  UNL1       -0.2703
     25 P          20.2526   70.8643   -2.9621 P.3     1  UNL1        0.2208
     26 O          20.3725   72.3380   -2.9098 O.2     1  UNL1       -0.5170
     27 O          19.5752   70.3331   -1.6016 O.3     1  UNL1       -0.4371
     28 O          19.3350   70.4448   -4.2161 O.3     1  UNL1       -0.2865
     29 C          18.8358   71.6552   -4.7878 C.3     1  UNL1        0.2611
     30 C          17.3651   71.4670   -5.1642 C.3     1  UNL1        0.1582
     31 C          17.2472   70.3089   -6.1613 C.3     1  UNL1        0.1625
     32 C          18.1921   70.5766   -7.3375 C.3     1  UNL1        0.1686
     33 C          19.6013   70.8290   -6.7972 C.3     1  UNL1        0.1760
     34 O          15.9019   70.2194   -6.6343 O.3     1  UNL1       -0.3801
     35 O          18.2078   69.4420   -8.2058 O.3     1  UNL1       -0.3794
     36 O          19.5946   71.9781   -5.9511 O.3     1  UNL1       -0.3263
     37 H          15.8733   69.4798   -7.2568 H       1  UNL1        0.2105
     38 H          18.8141   69.6524   -8.9301 H       1  UNL1        0.2105
     39 C          16.3823   69.8796   -3.5994 C.2     1  UNL1        0.2231
     40 C          15.5809   69.5647   -2.3621 C.3     1  UNL1        0.0946
     41 N          16.5871   71.1606   -3.9620 N.am    1  UNL1       -0.2994
     42 O          16.8425   68.9797   -4.2691 O.2     1  UNL1       -0.2751
     43 H          16.2187   71.8810   -3.4264 H       1  UNL1        0.1496
     44 C          20.5597   71.0654   -7.9663 C.3     1  UNL1        0.1693
     45 O          19.8114   71.4104   -9.1338 O.3     1  UNL1       -0.3794
     46 H          20.4512   71.5503   -9.8450 H       1  UNL1        0.2105
@<TRIPOS>BOND
     1    29    30    1
     2    29    28    1
     3    29    36    1
     4    30    31    1
     5    30    41    1
     6    31    32    1
     7    31    34    1
     8    32    33    1
     9    32    35    1
    10    33    44    1
    11    33    36    1
    12    44    45    1
    13    39    40    1
    14    39    41   am
    15    39    42    2
    16    41    43    1
    17    28    25    1
    18    34    37    1
    19    35    38    1
    20    45    46    1
    21    15    16   ar
    22    15    20   ar
    23    15     6    1
    24    16    17   ar
    25    16    21    2
    26    17    18   ar
    27    17    23    1
    28    18    19   ar
    29    18    22    2
    30    19    20   ar
    31     6     7    1
    32     6    11    1
    33     7     8    1
    34     7     9    1
    35     8    13    1
    36     9    10    1
    37     9    12    1
    38    10    11    1
    39    10     5    1
    40    12    14    1
    41     5     4    1
    42     4     1    1
    43     1     2    2
    44     1     3    1
    45     1    24    1
    46    24    25    1
    47    25    26    2
    48    25    27    1
@<TRIPOS>MOLECULE
UD1
 46 48 0 0 0
SMALL
GASTEIGER

@<TRIPOS>ATOM
      1 P          22.0823   72.8911   -4.9780 P.3     1  UNL1        0.2189
      2 O          22.0888   74.3064   -4.5474 O.2     1  UNL1       -0.5170
      3 O          23.3801   72.6002   -5.8855 O.3     1  UNL1       -0.4371
      4 O          20.7518   72.5980   -5.8363 O.3     1  UNL1       -0.3112
      5 C          21.0931   71.6021   -6.8017 C.3     1  UNL1        0.1811
      6 C          17.8260   70.2837   -6.0839 C.3     1  UNL1        0.2383
      7 C          17.6844   70.9306   -7.4844 C.3     1  UNL1        0.1895
      8 O          16.7091   70.2431   -8.2688 O.3     1  UNL1       -0.3779
      9 C          19.1051   70.7400   -8.0764 C.3     1  UNL1        0.1713
     10 C          20.0010   70.5320   -6.8400 C.3     1  UNL1        0.1764
     11 O          19.1626   70.6473   -5.6777 O.3     1  UNL1       -0.3308
     12 O          19.1425   69.5927   -8.9280 O.3     1  UNL1       -0.3794
     13 H          16.6692   70.6933   -9.1239 H       1  UNL1        0.2106
     14 H          18.5191   69.7587   -9.6476 H       1  UNL1        0.2105
     15 N          16.8371   70.8330   -5.1556 N.ar    1  UNL1       -0.2551
     16 C          16.3926   70.0810   -4.1337 C.ar    1  UNL1        0.3323
     17 N          15.4861   70.5617   -3.2623 N.ar    1  UNL1       -0.2743
     18 C          14.9998   71.8109   -3.4076 C.ar    1  UNL1        0.2626
     19 C          15.4546   72.6113   -4.4825 C.ar    1  UNL1        0.0795
     20 C          16.3683   72.1060   -5.3388 C.ar    1  UNL1        0.0869
     21 O          16.8218   68.9525   -3.9893 O.2     1  UNL1       -0.2464
     22 O          14.1766   72.2448   -2.6231 O.2     1  UNL1       -0.2670
     23 H          15.1802   70.0071   -2.5282 H       1  UNL1        0.1734
     24 O          22.1066   71.9361   -3.6833 O.3     1  UNL1       -0.2703
     25 P          23.5638   72.0911   -3.0186 P.3     1  UNL1        0.2208
     26 O          24.3313   73.1242   -3.7483 O.2     1  UNL1       -0.5170
     27 O          24.3444   70.6854   -3.1011 O.3     1  UNL1       -0.4371
     28 O          23.4083   72.5272   -1.4771 O.3     1  UNL1       -0.2865
     29 C          22.7498   71.4512   -0.8064 C.3     1  UNL1        0.2611
     30 C          21.5255   71.9918   -0.0655 C.3     1  UNL1        0.1582
     31 C          21.9775   73.0590    0.9377 C.3     1  UNL1        0.1625
     32 C          23.0689   72.4606    1.8315 C.3     1  UNL1        0.1686
     33 C          24.1784   71.8874    0.9473 C.3     1  UNL1        0.1760
     34 O          20.8662   73.4640    1.7392 O.3     1  UNL1       -0.3801
     35 O          23.6073   73.4798    2.6758 O.3     1  UNL1       -0.3794
     36 O          23.6497   70.8500    0.1221 O.3     1  UNL1       -0.3263
     37 H          21.1947   74.1342    2.3541 H       1  UNL1        0.2105
     38 H          24.2895   73.0611    3.2196 H       1  UNL1        0.2105
     39 C          19.6424   71.8247   -1.6018 C.2     1  UNL1        0.2231
     40 C          18.6838   72.4360   -2.5916 C.3     1  UNL1        0.0946
     41 N          20.5937   72.5852   -1.0267 N.am    1  UNL1       -0.2994
     42 O          19.5578   70.6476   -1.3235 O.2     1  UNL1       -0.2751
     43 H          20.6618   73.5272   -1.2494 H       1  UNL1        0.1496
     44 C          25.2891   71.3161    1.8310 C.3     1  UNL1        0.1693
     45 O          24.9776   69.9642    2.1741 O.3     1  UNL1       -0.3794
     46 H          25.7005   69.6429    2.7299 H       1  UNL1        0.2105
@<TRIPOS>BOND
     1    29    30    1
     2    29    28    1
     3    29    36    1
     4    30    31    1
     5    30    41    1
     6    31    32    1
     7    31    34    1
     8    32    33    1
     9    32    35    1
    10    33    44    1
    11    33    36    1
    12    44    45    1
    13    39    40    1
    14    39    41   am
    15    39    42    2
    16    41    43    1
    17    28    25    1
    18    34    37    1
    19    35    38    1
    20    45    46    1
    21    15    16   ar
    22    15    20   ar
    23    15     6    1
    24    16    17   ar
    25    16    21    2
    26    17    18   ar
    27    17    23    1
    28    18    19   ar
    29    18    22    2
    30    19    20   ar
    31     6     7    1
    32     6    11    1
    33     7     8    1
    34     7     9    1
    35     8    13    1
    36     9    10    1
    37     9    12    1
    38    10    11    1
    39    10     5    1
    40    12    14    1
    41     5     4    1
    42     4     1    1
    43     1     2    2
    44     1     3    1
    45     1    24    1
    46    24    25    1
    47    25    26    2
    48    25    27    1
@<TRIPOS>MOLECULE
UD1
 46 48 0 0 0
SMALL
GASTEIGER

@<TRIPOS>ATOM
      1 P          23.7020   73.4837   -3.8303 P.3     1  UNL1        0.2189
      2 O          24.8257   74.4376   -3.7034 O.2     1  UNL1       -0.5170
      3 O          24.2634   71.9775   -3.7370 O.3     1  UNL1       -0.4371
      4 O          22.9752   73.6974   -5.2512 O.3     1  UNL1       -0.3112
      5 C          21.5846   73.8813   -4.9813 C.3     1  UNL1        0.1811
      6 C          18.9588   72.3198   -6.8771 C.3     1  UNL1        0.2383
      7 C          18.3444   73.6562   -6.3907 C.3     1  UNL1        0.1895
      8 O          17.3832   74.1472   -7.3257 O.3     1  UNL1       -0.3779
      9 C          19.5858   74.5840   -6.3345 C.3     1  UNL1        0.1713
     10 C          20.7774   73.6104   -6.2518 C.3     1  UNL1        0.1764
     11 O          20.2409   72.2769   -6.2152 O.3     1  UNL1       -0.3308
     12 O          19.6663   75.3842   -7.5159 O.3     1  UNL1       -0.3794
     13 H          17.0400   74.9765   -6.9653 H       1  UNL1        0.2106
     14 H          18.8665   75.9263   -7.5411 H       1  UNL1        0.2105
     15 N          18.1283   71.1867   -6.4674 N.ar    1  UNL1       -0.2551
     16 C          17.2043   70.6978   -7.3127 C.ar    1  UNL1        0.3323
     17 N          16.4291   69.6539   -6.9639 N.ar    1  UNL1       -0.2743
     18 C          16.5624   69.0845   -5.7490 C.ar    1  UNL1        0.2626
     19 C          17.5272   69.5931   -4.8471 C.ar    1  UNL1        0.0795
     20 C          18.2951   70.6376   -5.2246 C.ar    1  UNL1        0.0869
     21 O          17.0722   71.2006   -8.4119 O.2     1  UNL1       -0.2464
     22 O          15.8588   68.1437   -5.4309 O.2     1  UNL1       -0.2670
     23 H          15.7709   69.3111   -7.5880 H       1  UNL1        0.1734
     24 O          22.6454   73.7381   -2.6437 O.3     1  UNL1       -0.2703
     25 P          23.4021   74.6167   -1.5280 P.3     1  UNL1        0.2208
     26 O          22.9291   76.0168   -1.5986 O.2     1  UNL1       -0.5170
     27 O          24.9892   74.5732   -1.7950 O.3     1  UNL1       -0.4371
     28 O          23.0884   74.0174   -0.0676 O.3     1  UNL1       -0.2865
     29 C          23.0101   72.5980   -0.2101 C.3     1  UNL1        0.2611
     30 C          21.7245   72.0945    0.4486 C.3     1  UNL1        0.1582
     31 C          21.7318   72.4901    1.9294 C.3     1  UNL1        0.1625
     32 C          23.0313   71.9849    2.5653 C.3     1  UNL1        0.1686
     33 C          24.2186   72.4993    1.7486 C.3     1  UNL1        0.1760
     34 O          20.6107   71.8985    2.5887 O.3     1  UNL1       -0.3801
     35 O          23.1266   72.4684    3.9064 O.3     1  UNL1       -0.3794
     36 O          24.1411   71.9958    0.4155 O.3     1  UNL1       -0.3263
     37 H          20.6544   72.1731    3.5150 H       1  UNL1        0.2105
     38 H          23.9573   72.1283    4.2680 H       1  UNL1        0.2105
     39 C          19.7643   71.9416   -0.9897 C.2     1  UNL1        0.2231
     40 C          18.5722   72.5623   -1.6723 C.3     1  UNL1        0.0946
     41 N          20.5660   72.6969   -0.2144 N.am    1  UNL1       -0.2994
     42 O          20.0023   70.7621   -1.1389 O.2     1  UNL1       -0.2751
     43 H          20.3759   73.6409   -0.0950 H       1  UNL1        0.1496
     44 C          25.5229   72.0271    2.3942 C.3     1  UNL1        0.1693
     45 O          25.4710   70.6132    2.5948 O.3     1  UNL1       -0.3794
     46 H          26.3094   70.3574    3.0025 H       1  UNL1        0.2105
@<TRIPOS>BOND
     1    29    30    1
     2    29    28    1
     3    29    36    1
     4    30    31    1
     5    30    41    1
     6    31    32    1
     7    31    34    1
     8    32    33    1
     9    32    35    1
    10    33    44    1
    11    33    36    1
    12    44    45    1
    13    39    40    1
    14    39    41   am
    15    39    42    2
    16    41    43    1
    17    28    25    1
    18    34    37    1
    19    35    38    1
    20    45    46    1
    21    15    16   ar
    22    15    20   ar
    23    15     6    1
    24    16    17   ar
    25    16    21    2
    26    17    18   ar
    27    17    23    1
    28    18    19   ar
    29    18    22    2
    30    19    20   ar
    31     6     7    1
    32     6    11    1
    33     7     8    1
    34     7     9    1
    35     8    13    1
    36     9    10    1
    37     9    12    1
    38    10    11    1
    39    10     5    1
    40    12    14    1
    41     5     4    1
    42     4     1    1
    43     1     2    2
    44     1     3    1
    45     1    24    1
    46    24    25    1
    47    25    26    2
    48    25    27    1
@<TRIPOS>MOLECULE
UD1
 46 48 0 0 0
SMALL
GASTEIGER

@<TRIPOS>ATOM
      1 P          22.8878   72.6070   -1.2268 P.3     1  UNL1        0.2189
      2 O          23.9542   73.5255   -0.7706 O.2     1  UNL1       -0.5170
      3 O          23.5168   71.1516   -1.5074 O.3     1  UNL1       -0.4371
      4 O          22.2324   73.1778   -2.5824 O.3     1  UNL1       -0.3112
      5 C          21.1792   72.2823   -2.9418 C.3     1  UNL1        0.1811
      6 C          20.3798   71.1137   -6.2468 C.3     1  UNL1        0.2383
      7 C          20.9060   72.5550   -6.4614 C.3     1  UNL1        0.1895
      8 O          21.5503   72.6804   -7.7296 O.3     1  UNL1       -0.3779
      9 C          21.9278   72.7042   -5.3043 C.3     1  UNL1        0.1713
     10 C          21.5009   71.6288   -4.2867 C.3     1  UNL1        0.1764
     11 O          20.3272   70.9839   -4.8101 O.3     1  UNL1       -0.3308
     12 O          23.2551   72.4587   -5.7743 O.3     1  UNL1       -0.3794
     13 H          21.8528   73.5963   -7.8008 H       1  UNL1        0.2106
     14 H          23.4404   73.1257   -6.4487 H       1  UNL1        0.2105
     15 N          19.0464   70.9555   -6.8285 N.ar    1  UNL1       -0.2551
     16 C          18.9110   70.3897   -8.0404 C.ar    1  UNL1        0.3323
     17 N          17.6965   70.2279   -8.5981 N.ar    1  UNL1       -0.2743
     18 C          16.5900   70.6424   -7.9488 C.ar    1  UNL1        0.2626
     19 C          16.7186   71.2452   -6.6748 C.ar    1  UNL1        0.0795
     20 C          17.9483   71.3903   -6.1364 C.ar    1  UNL1        0.0869
     21 O          19.8996   70.0107   -8.6385 O.2     1  UNL1       -0.2464
     22 O          15.4918   70.5011   -8.4541 O.2     1  UNL1       -0.2670
     23 H          17.6171   69.8134   -9.4711 H       1  UNL1        0.1734
     24 O          21.7550   72.4930   -0.0899 O.3     1  UNL1       -0.2703
     25 P          22.3432   71.5304    1.0576 P.3     1  UNL1        0.2208
     26 O          23.8068   71.3975    0.8874 O.2     1  UNL1       -0.5170
     27 O          21.6565   70.0785    0.9451 O.3     1  UNL1       -0.4371
     28 O          22.0263   72.1616    2.5039 O.3     1  UNL1       -0.2865
     29 C          22.3146   73.5584    2.4187 C.3     1  UNL1        0.2611
     30 C          23.3460   73.9272    3.4865 C.3     1  UNL1        0.1582
     31 C          22.7850   73.5738    4.8685 C.3     1  UNL1        0.1625
     32 C          21.4151   74.2419    5.0268 C.3     1  UNL1        0.1686
     33 C          20.5282   73.8467    3.8442 C.3     1  UNL1        0.1760
     34 O          23.6732   74.0491    5.8817 O.3     1  UNL1       -0.3801
     35 O          20.8097   73.8076    6.2461 O.3     1  UNL1       -0.3794
     36 O          21.1165   74.3031    2.6268 O.3     1  UNL1       -0.3263
     37 H          23.2827   73.8056    6.7323 H       1  UNL1        0.2105
     38 H          19.9513   74.2505    6.3054 H       1  UNL1        0.2105
     39 C          25.7766   73.7789    3.4188 C.2     1  UNL1        0.2231
     40 C          27.0491   73.0076    3.1776 C.3     1  UNL1        0.0946
     41 N          24.5824   73.1783    3.2527 N.am    1  UNL1       -0.2994
     42 O          25.8276   74.9407    3.7618 O.2     1  UNL1       -0.2751
     43 H          24.5413   72.2485    2.9780 H       1  UNL1        0.1496
     44 C          19.1465   74.4828    4.0095 C.3     1  UNL1        0.1693
     45 O          18.3342   73.6495    4.8389 O.3     1  UNL1       -0.3794
     46 H          17.4747   74.0853    4.9171 H       1  UNL1        0.2105
@<TRIPOS>BOND
     1    29    30    1
     2    29    28    1
     3    29    36    1
     4    30    31    1
     5    30    41    1
     6    31    32    1
     7    31    34    1
     8    32    33    1
     9    32    35    1
    10    33    44    1
    11    33    36    1
    12    44    45    1
    13    39    40    1
    14    39    41   am
    15    39    42    2
    16    41    43    1
    17    28    25    1
    18    34    37    1
    19    35    38    1
    20    45    46    1
    21    15    16   ar
    22    15    20   ar
    23    15     6    1
    24    16    17   ar
    25    16    21    2
    26    17    18   ar
    27    17    23    1
    28    18    19   ar
    29    18    22    2
    30    19    20   ar
    31     6     7    1
    32     6    11    1
    33     7     8    1
    34     7     9    1
    35     8    13    1
    36     9    10    1
    37     9    12    1
    38    10    11    1
    39    10     5    1
    40    12    14    1
    41     5     4    1
    42     4     1    1
    43     1     2    2
    44     1     3    1
    45     1    24    1
    46    24    25    1
    47    25    26    2
    48    25    27    1
@<TRIPOS>MOLECULE
UD1
 46 48 0 0 0
SMALL
GASTEIGER

@<TRIPOS>ATOM
      1 P          22.7849   72.2848   -3.1303 P.3     1  UNL1        0.2189
      2 O          24.0164   71.5362   -3.4643 O.2     1  UNL1       -0.5170
      3 O          22.9242   73.8041   -3.6448 O.3     1  UNL1       -0.4371
      4 O          22.5690   72.2773   -1.5346 O.3     1  UNL1       -0.3112
      5 C          23.0952   71.0403   -1.0516 C.3     1  UNL1        0.1811
      6 C          23.9662   71.8411    2.3436 C.3     1  UNL1        0.2383
      7 C          22.9057   72.9014    1.9545 C.3     1  UNL1        0.1895
      8 O          22.1456   73.3060    3.0937 O.3     1  UNL1       -0.3779
      9 C          22.0207   72.1223    0.9471 C.3     1  UNL1        0.1713
     10 C          22.9251   70.9708    0.4668 C.3     1  UNL1        0.1764
     11 O          24.2013   71.1301    1.1096 O.3     1  UNL1       -0.3308
     12 O          20.8535   71.6130    1.5960 O.3     1  UNL1       -0.3794
     13 H          21.5070   73.9637    2.7852 H       1  UNL1        0.2106
     14 H          20.3614   72.3768    1.9254 H       1  UNL1        0.2105
     15 N          25.1951   72.4831    2.8116 N.ar    1  UNL1       -0.2551
     16 C          26.3604   71.8155    2.7507 C.ar    1  UNL1        0.3323
     17 N          27.5069   72.3826    3.1704 N.ar    1  UNL1       -0.2743
     18 C          27.5023   73.6347    3.6704 C.ar    1  UNL1        0.2626
     19 C          26.2816   74.3467    3.7458 C.ar    1  UNL1        0.0795
     20 C          25.1472   73.7559    3.3129 C.ar    1  UNL1        0.0869
     21 O          26.3808   70.6854    2.3021 O.2     1  UNL1       -0.2464
     22 O          28.5375   74.1467    4.0546 O.2     1  UNL1       -0.2670
     23 H          28.3392   71.8882    3.1147 H       1  UNL1        0.1734
     24 O          21.5230   71.5885   -3.8456 O.3     1  UNL1       -0.2703
     25 P          20.2049   72.3038   -3.2622 P.3     1  UNL1        0.2208
     26 O          20.5324   73.6897   -2.8612 O.2     1  UNL1       -0.5170
     27 O          19.6726   71.4868   -1.9810 O.3     1  UNL1       -0.4371
     28 O          19.0608   72.3288   -4.3940 O.3     1  UNL1       -0.2865
     29 C          19.4990   71.4666   -5.4455 C.3     1  UNL1        0.2611
     30 C          19.2020   72.1239   -6.7945 C.3     1  UNL1        0.1582
     31 C          17.6959   72.3872   -6.9030 C.3     1  UNL1        0.1625
     32 C          16.9487   71.0759   -6.6380 C.3     1  UNL1        0.1686
     33 C          17.4136   70.4992   -5.2991 C.3     1  UNL1        0.1760
     34 O          17.3860   72.8622   -8.2144 O.3     1  UNL1       -0.3801
     35 O          15.5431   71.3282   -6.5891 O.3     1  UNL1       -0.3794
     36 O          18.8121   70.2204   -5.3538 O.3     1  UNL1       -0.3263
     37 H          16.4313   73.0147   -8.2379 H       1  UNL1        0.2105
     38 H          15.1121   70.4784   -6.4200 H       1  UNL1        0.2105
     39 C          21.2696   73.3898   -7.0328 C.2     1  UNL1        0.2231
     40 C          22.0185   74.6942   -7.1336 C.3     1  UNL1        0.0946
     41 N          19.9299   73.3907   -6.8931 N.am    1  UNL1       -0.2994
     42 O          21.8732   72.3392   -7.0766 O.2     1  UNL1       -0.2751
     43 H          19.4466   74.2313   -6.8577 H       1  UNL1        0.1496
     44 C          16.6494   69.2056   -5.0095 C.3     1  UNL1        0.1693
     45 O          17.3584   68.4418   -4.0318 O.3     1  UNL1       -0.3794
     46 H          16.8446   67.6372   -3.8788 H       1  UNL1        0.2105
@<TRIPOS>BOND
     1    29    30    1
     2    29    28    1
     3    29    36    1
     4    30    31    1
     5    30    41    1
     6    31    32    1
     7    31    34    1
     8    32    33    1
     9    32    35    1
    10    33    44    1
    11    33    36    1
    12    44    45    1
    13    39    40    1
    14    39    41   am
    15    39    42    2
    16    41    43    1
    17    28    25    1
    18    34    37    1
    19    35    38    1
    20    45    46    1
    21    15    16   ar
    22    15    20   ar
    23    15     6    1
    24    16    17   ar
    25    16    21    2
    26    17    18   ar
    27    17    23    1
    28    18    19   ar
    29    18    22    2
    30    19    20   ar
    31     6     7    1
    32     6    11    1
    33     7     8    1
    34     7     9    1
    35     8    13    1
    36     9    10    1
    37     9    12    1
    38    10    11    1
    39    10     5    1
    40    12    14    1
    41     5     4    1
    42     4     1    1
    43     1     2    2
    44     1     3    1
    45     1    24    1
    46    24    25    1
    47    25    26    2
    48    25    27    1
