@<TRIPOS>MOLECULE
*****
 43 45 0 0 0
SMALL
GASTEIGER

@<TRIPOS>ATOM
      1 P          22.8323   71.9143   -2.4408 P.3     1  UNL1        0.2189
      2 O          23.2533   73.3194   -1.7584 O.co2   1  UNL1       -0.4371
      3 O          23.4899   71.6276   -3.7587 O.2     1  UNL1       -0.5170
      4 O          21.2150   71.9600   -2.4578 O.3     1  UNL1       -0.3112
      5 C          20.5366   71.4653   -3.5993 C.3     1  UNL1        0.1811
      6 O          18.5986   72.2601   -4.7766 O.3     1  UNL1       -0.3308
      7 O          16.9883   71.0971   -2.5305 O.3     1  UNL1       -0.3794
      8 O          16.7309   69.2123   -4.4844 O.3     1  UNL1       -0.3779
      9 C          18.1880   70.6081   -3.1280 C.3     1  UNL1        0.1713
     10 C          17.8933   70.0157   -4.4902 C.3     1  UNL1        0.1895
     11 C          19.0575   71.8075   -3.4840 C.3     1  UNL1        0.1764
     12 C          17.7397   71.2600   -5.3484 C.3     1  UNL1        0.2383
     13 H          16.4168   70.3491   -2.2941 H       1  UNL1        0.2105
     14 H          16.8785   68.4338   -3.9251 H       1  UNL1        0.2106
     15 O          15.9955   70.3519   -7.3760 O.2     1  UNL1       -0.2464
     16 O          19.3410   70.4350  -10.5450 O.2     1  UNL1       -0.2670
     17 N          18.1283   71.0360   -6.7123 N.ar    1  UNL1       -0.2551
     18 N          17.6627   70.3942   -8.9523 N.ar    1  UNL1       -0.2743
     19 C          17.1755   70.5783   -7.6520 C.ar    1  UNL1        0.3323
     20 C          19.4412   71.2702   -7.1061 C.ar    1  UNL1        0.0869
     21 C          19.8902   71.0885   -8.3498 C.ar    1  UNL1        0.0795
     22 C          18.9587   70.6119   -9.3924 C.ar    1  UNL1        0.2626
     23 H          17.0169   70.0754   -9.6239 H       1  UNL1        0.1734
     24 O          23.1531   70.8359   -1.2802 O.3     1  UNL1       -0.2703
     25 P          22.3877   70.5084    0.1055 P.3     1  UNL1        0.2208
     26 O          23.4721   69.6367    0.9312 O.co2   1  UNL1       -0.4371
     27 O          21.0571   69.8357   -0.0706 O.2     1  UNL1       -0.5170
     28 O          22.3250   71.9221    0.8816 O.3     1  UNL1       -0.2858
     29 O          21.2186   72.2020    2.9586 O.3     1  UNL1       -0.3258
     30 O          20.9781   76.0780    1.5553 O.3     1  UNL1       -0.3794
     31 O          22.7816   75.4567    3.7023 O.3     1  UNL1       -0.3794
     32 O          20.6531   73.8576   -0.2732 O.3     1  UNL1       -0.3775
     33 C          21.5816   74.7950    1.7419 C.3     1  UNL1        0.1715
     34 C          21.7682   74.5664    3.2431 C.3     1  UNL1        0.1694
     35 C          20.6717   73.7236    1.1439 C.3     1  UNL1        0.1967
     36 C          22.1608   73.1124    3.5375 C.3     1  UNL1        0.1761
     37 C          21.1225   72.3158    1.5375 C.3     1  UNL1        0.2704
     38 H          21.5511   76.7629    1.9324 H       1  UNL1        0.2105
     39 H          22.5216   76.3713    3.5099 H       1  UNL1        0.2105
     40 H          20.3658   74.7529   -0.5095 H       1  UNL1        0.2106
     41 O          20.9278   73.1228    5.5841 O.3     1  UNL1       -0.3794
     42 C          22.1983   72.8224    5.0364 C.3     1  UNL1        0.1693
     43 H          20.9367   72.9427    6.5376 H       1  UNL1        0.2105
@<TRIPOS>UNITY_ATOM_ATTR
2 1
charge -1
26 1
charge -1
@<TRIPOS>BOND
     1    25    28    1
     2    25    24    1
     3    25    26    1
     4    25    27    2
     5     1     4    1
     6     1    24    1
     7     1     2    1
     8     1     3    2
     9     6    11    1
    10     6    12    1
    11    29    36    1
    12    29    37    1
    13     7     9    1
    14     7    13    1
    15     8    10    1
    16     8    14    1
    17    28    37    1
    18     4     5    1
    19    30    33    1
    20    30    38    1
    21    31    34    1
    22    31    39    1
    23    32    35    1
    24    32    40    1
    25    41    42    1
    26    41    43    1
    27    15    19    2
    28    16    22    2
    29    17    12    1
    30    17    19   ar
    31    17    20   ar
    32    18    19   ar
    33    18    22   ar
    34    18    23    1
    35     9    10    1
    36     9    11    1
    37    10    12    1
    38    11     5    1
    39    33    34    1
    40    33    35    1
    41    34    36    1
    42    35    37    1
    43    36    42    1
    44    20    21   ar
    45    21    22   ar
@<TRIPOS>MOLECULE
*****
 43 45 0 0 0
SMALL
GASTEIGER

@<TRIPOS>ATOM
      1 P          22.7325   72.2085   -2.4183 P.3     1  UNL1        0.2189
      2 O          23.2042   73.6498   -1.8546 O.co2   1  UNL1       -0.4371
      3 O          23.4274   71.7593   -3.6700 O.2     1  UNL1       -0.5170
      4 O          21.1227   72.3376   -2.5160 O.3     1  UNL1       -0.3112
      5 C          20.4619   71.7382   -3.6169 C.3     1  UNL1        0.1811
      6 O          18.4910   72.4102   -4.8159 O.3     1  UNL1       -0.3308
      7 O          16.9330   71.2433   -2.5351 O.3     1  UNL1       -0.3794
      8 O          16.7615   69.2918   -4.4322 O.3     1  UNL1       -0.3779
      9 C          18.1537   70.7911   -3.1187 C.3     1  UNL1        0.1713
     10 C          17.8868   70.1459   -4.4627 C.3     1  UNL1        0.1895
     11 C          18.9689   72.0171   -3.5108 C.3     1  UNL1        0.1764
     12 C          17.6781   71.3561   -5.3572 C.3     1  UNL1        0.2383
     13 H          16.3955   70.4778   -2.2763 H       1  UNL1        0.2105
     14 H          16.9435   68.5376   -3.8501 H       1  UNL1        0.2106
     15 O          15.9931   70.2613   -7.3422 O.2     1  UNL1       -0.2464
     16 O          19.3172   70.4527  -10.5289 O.2     1  UNL1       -0.2670
     17 N          18.0772   71.1095   -6.7141 N.ar    1  UNL1       -0.2551
     18 N          17.6496   70.3577   -8.9273 N.ar    1  UNL1       -0.2743
     19 C          17.1546   70.5557   -7.6320 C.ar    1  UNL1        0.3323
     20 C          19.3705   71.4162   -7.1227 C.ar    1  UNL1        0.0869
     21 C          19.8274   71.2201   -8.3613 C.ar    1  UNL1        0.0795
     22 C          18.9270   70.6452   -9.3815 C.ar    1  UNL1        0.2626
     23 H          17.0247   69.9725   -9.5838 H       1  UNL1        0.1734
     24 O          22.9424   71.2341   -1.1457 O.3     1  UNL1       -0.2703
     25 P          21.8876   70.3416   -0.3069 P.3     1  UNL1        0.2208
     26 O          22.8367   69.3268    0.5219 O.co2   1  UNL1       -0.4371
     27 O          20.8457   69.6655   -1.1504 O.2     1  UNL1       -0.5170
     28 O          21.2960   71.3482    0.8075 O.3     1  UNL1       -0.2858
     29 O          21.4308   73.6817    1.1986 O.3     1  UNL1       -0.3258
     30 O          22.0469   72.3303    5.0515 O.3     1  UNL1       -0.3794
     31 O          19.5489   73.5707    4.3664 O.3     1  UNL1       -0.3794
     32 O          23.2025   70.8983    2.8169 O.3     1  UNL1       -0.3775
     33 C          21.4813   72.3091    3.7381 C.3     1  UNL1        0.1715
     34 C          20.7021   73.6092    3.5304 C.3     1  UNL1        0.1694
     35 C          22.6064   72.1867    2.7120 C.3     1  UNL1        0.1967
     36 C          20.2918   73.7806    2.0615 C.3     1  UNL1        0.1761
     37 C          22.1001   72.4224    1.2879 C.3     1  UNL1        0.2704
     38 H          21.3378   72.4074    5.7077 H       1  UNL1        0.2105
     39 H          19.8218   73.4618    5.2909 H       1  UNL1        0.2105
     40 H          23.5193   70.7615    3.7229 H       1  UNL1        0.2106
     41 O          20.0880   76.0425    2.8038 O.3     1  UNL1       -0.3794
     42 C          19.6521   75.1427    1.8016 C.3     1  UNL1        0.1693
     43 H          19.6890   76.9138    2.6510 H       1  UNL1        0.2105
@<TRIPOS>UNITY_ATOM_ATTR
2 1
charge -1
26 1
charge -1
@<TRIPOS>BOND
     1    25    28    1
     2    25    24    1
     3    25    26    1
     4    25    27    2
     5     1     4    1
     6     1    24    1
     7     1     2    1
     8     1     3    2
     9     6    11    1
    10     6    12    1
    11    29    36    1
    12    29    37    1
    13     7     9    1
    14     7    13    1
    15     8    10    1
    16     8    14    1
    17    28    37    1
    18     4     5    1
    19    30    33    1
    20    30    38    1
    21    31    34    1
    22    31    39    1
    23    32    35    1
    24    32    40    1
    25    41    42    1
    26    41    43    1
    27    15    19    2
    28    16    22    2
    29    17    12    1
    30    17    19   ar
    31    17    20   ar
    32    18    19   ar
    33    18    22   ar
    34    18    23    1
    35     9    10    1
    36     9    11    1
    37    10    12    1
    38    11     5    1
    39    33    34    1
    40    33    35    1
    41    34    36    1
    42    35    37    1
    43    36    42    1
    44    20    21   ar
    45    21    22   ar
@<TRIPOS>MOLECULE
*****
 43 45 0 0 0
SMALL
GASTEIGER

@<TRIPOS>ATOM
      1 P          22.0294   70.8489   -1.4342 P.3     1  UNL1        0.2189
      2 O          23.0591   70.0233   -0.4986 O.co2   1  UNL1       -0.4371
      3 O          21.0821   71.7473   -0.6947 O.2     1  UNL1       -0.5170
      4 O          21.3427   69.7097   -2.3554 O.3     1  UNL1       -0.3112
      5 C          20.8048   70.0884   -3.6103 C.3     1  UNL1        0.1811
      6 O          19.1611   71.5438   -4.5870 O.3     1  UNL1       -0.3308
      7 O          17.3028   70.5769   -2.4417 O.3     1  UNL1       -0.3794
      8 O          16.5137   69.1244   -4.6105 O.3     1  UNL1       -0.3779
      9 C          18.3129   69.8609   -3.1504 C.3     1  UNL1        0.1713
     10 C          17.8551   69.5663   -4.5637 C.3     1  UNL1        0.1895
     11 C          19.4823   70.8087   -3.3859 C.3     1  UNL1        0.1764
     12 C          18.0522   70.9098   -5.2451 C.3     1  UNL1        0.2383
     13 H          16.5456   69.9920   -2.2793 H       1  UNL1        0.2105
     14 H          16.4401   68.2664   -4.1643 H       1  UNL1        0.2106
     15 O          16.1198   70.4858   -7.2610 O.2     1  UNL1       -0.2464
     16 O          19.3244   70.4106  -10.5726 O.2     1  UNL1       -0.2670
     17 N          18.3536   70.7761   -6.6425 N.ar    1  UNL1       -0.2551
     18 N          17.7170   70.4489   -8.9083 N.ar    1  UNL1       -0.2743
     19 C          17.3098   70.5645   -7.5731 C.ar    1  UNL1        0.3323
     20 C          19.6721   70.8554   -7.0776 C.ar    1  UNL1        0.0869
     21 C          20.0439   70.7417   -8.3544 C.ar    1  UNL1        0.0795
     22 C          19.0145   70.5193   -9.3902 C.ar    1  UNL1        0.2626
     23 H          17.0069   70.3007   -9.5744 H       1  UNL1        0.1734
     24 O          23.0097   71.6110   -2.4692 O.3     1  UNL1       -0.2703
     25 P          23.1096   73.1699   -2.8845 P.3     1  UNL1        0.2208
     26 O          24.1216   73.1535   -4.1468 O.co2   1  UNL1       -0.4371
     27 O          23.5295   74.0791   -1.7660 O.2     1  UNL1       -0.5170
     28 O          21.6680   73.5160   -3.5224 O.3     1  UNL1       -0.2858
     29 O          21.3205   75.8321   -3.1597 O.3     1  UNL1       -0.3258
     30 O          24.7437   76.0308   -5.4603 O.3     1  UNL1       -0.3794
     31 O          24.8893   76.6012   -2.6494 O.3     1  UNL1       -0.3794
     32 O          22.7057   74.0677   -6.0707 O.3     1  UNL1       -0.3775
     33 C          23.8586   75.4695   -4.4872 C.3     1  UNL1        0.1715
     34 C          23.6638   76.4946   -3.3683 C.3     1  UNL1        0.1694
     35 C          22.5244   75.1430   -5.1556 C.3     1  UNL1        0.1967
     36 C          22.5263   76.0772   -2.4265 C.3     1  UNL1        0.1761
     37 C          21.4493   74.7880   -4.1268 C.3     1  UNL1        0.2704
     38 H          25.5929   76.2400   -5.0426 H       1  UNL1        0.2105
     39 H          25.5994   76.8649   -3.2556 H       1  UNL1        0.2105
     40 H          23.3885   74.3048   -6.7168 H       1  UNL1        0.2106
     41 O          21.5422   78.2221   -2.0524 O.3     1  UNL1       -0.3794
     42 C          22.2100   77.1598   -1.3969 C.3     1  UNL1        0.1693
     43 H          21.3343   78.9184   -1.4093 H       1  UNL1        0.2105
@<TRIPOS>UNITY_ATOM_ATTR
2 1
charge -1
26 1
charge -1
@<TRIPOS>BOND
     1    25    28    1
     2    25    24    1
     3    25    26    1
     4    25    27    2
     5     1     4    1
     6     1    24    1
     7     1     2    1
     8     1     3    2
     9     6    11    1
    10     6    12    1
    11    29    36    1
    12    29    37    1
    13     7     9    1
    14     7    13    1
    15     8    10    1
    16     8    14    1
    17    28    37    1
    18     4     5    1
    19    30    33    1
    20    30    38    1
    21    31    34    1
    22    31    39    1
    23    32    35    1
    24    32    40    1
    25    41    42    1
    26    41    43    1
    27    15    19    2
    28    16    22    2
    29    17    12    1
    30    17    19   ar
    31    17    20   ar
    32    18    19   ar
    33    18    22   ar
    34    18    23    1
    35     9    10    1
    36     9    11    1
    37    10    12    1
    38    11     5    1
    39    33    34    1
    40    33    35    1
    41    34    36    1
    42    35    37    1
    43    36    42    1
    44    20    21   ar
    45    21    22   ar
@<TRIPOS>MOLECULE
*****
 43 45 0 0 0
SMALL
GASTEIGER

@<TRIPOS>ATOM
      1 P          22.8718   72.0475   -3.0784 P.3     1  UNL1        0.2189
      2 O          23.6312   70.6261   -3.2211 O.co2   1  UNL1       -0.4371
      3 O          22.7126   72.5425   -1.6709 O.2     1  UNL1       -0.5170
      4 O          21.4992   71.8397   -3.9095 O.3     1  UNL1       -0.3112
      5 C          20.6542   70.7574   -3.5598 C.3     1  UNL1        0.1811
      6 O          18.8332   71.8734   -4.6608 O.3     1  UNL1       -0.3308
      7 O          17.0842   70.7500   -2.4999 O.3     1  UNL1       -0.3794
      8 O          16.6018   69.0665   -4.5903 O.3     1  UNL1       -0.3779
      9 C          18.2161   70.1636   -3.1405 C.3     1  UNL1        0.1713
     10 C          17.8547   69.7182   -4.5421 C.3     1  UNL1        0.1895
     11 C          19.2285   71.2700   -3.4094 C.3     1  UNL1        0.1764
     12 C          17.8590   71.0338   -5.3018 C.3     1  UNL1        0.2383
     13 H          16.4238   70.0625   -2.3177 H       1  UNL1        0.2105
     14 H          16.6502   68.2352   -4.0930 H       1  UNL1        0.2106
     15 O          16.0262   70.4756   -7.3772 O.2     1  UNL1       -0.2464
     16 O          19.3624   70.4189  -10.5564 O.2     1  UNL1       -0.2670
     17 N          18.2213   70.8686   -6.6812 N.ar    1  UNL1       -0.2551
     18 N          17.6889   70.4480   -8.9585 N.ar    1  UNL1       -0.2743
     19 C          17.2242   70.5894   -7.6447 C.ar    1  UNL1        0.3323
     20 C          19.5525   70.9840   -7.0668 C.ar    1  UNL1        0.0869
     21 C          19.9794   70.8451   -8.3236 C.ar    1  UNL1        0.0795
     22 C          19.0013   70.5523   -9.3912 C.ar    1  UNL1        0.2626
     23 H          17.0121   70.2528   -9.6468 H       1  UNL1        0.1734
     24 O          23.7351   73.0190   -4.0396 O.3     1  UNL1       -0.2703
     25 P          23.8894   74.6279   -4.0601 P.3     1  UNL1        0.2208
     26 O          25.4903   74.8482   -3.9817 O.co2   1  UNL1       -0.4371
     27 O          23.1138   75.3342   -2.9860 O.2     1  UNL1       -0.5170
     28 O          23.4920   75.0573   -5.5643 O.3     1  UNL1       -0.2858
     29 O          21.5653   76.0639   -6.5082 O.3     1  UNL1       -0.3258
     30 O          22.3347   73.2464   -9.4271 O.3     1  UNL1       -0.3794
     31 O          22.8566   76.0196   -9.9607 O.3     1  UNL1       -0.3794
     32 O          22.7270   72.5798   -6.6376 O.3     1  UNL1       -0.3775
     33 C          22.6711   74.2017   -8.4174 C.3     1  UNL1        0.1715
     34 C          22.1092   75.5614   -8.8374 C.3     1  UNL1        0.1694
     35 C          22.0650   73.7570   -7.0877 C.3     1  UNL1        0.1967
     36 C          22.1954   76.5752   -7.6886 C.3     1  UNL1        0.1761
     37 C          22.1594   74.8563   -6.0281 C.3     1  UNL1        0.2704
     38 H          22.7170   73.5226  -10.2739 H       1  UNL1        0.2105
     39 H          22.7943   75.3703  -10.6787 H       1  UNL1        0.2105
     40 H          22.6598   71.8914   -7.3170 H       1  UNL1        0.2106
     41 O          20.5600   77.6446   -9.0636 O.3     1  UNL1       -0.3794
     42 C          21.4986   77.8899   -8.0325 C.3     1  UNL1        0.1693
     43 H          20.1085   78.4726   -9.2926 H       1  UNL1        0.2105
@<TRIPOS>UNITY_ATOM_ATTR
2 1
charge -1
26 1
charge -1
@<TRIPOS>BOND
     1    25    28    1
     2    25    24    1
     3    25    26    1
     4    25    27    2
     5     1     4    1
     6     1    24    1
     7     1     2    1
     8     1     3    2
     9     6    11    1
    10     6    12    1
    11    29    36    1
    12    29    37    1
    13     7     9    1
    14     7    13    1
    15     8    10    1
    16     8    14    1
    17    28    37    1
    18     4     5    1
    19    30    33    1
    20    30    38    1
    21    31    34    1
    22    31    39    1
    23    32    35    1
    24    32    40    1
    25    41    42    1
    26    41    43    1
    27    15    19    2
    28    16    22    2
    29    17    12    1
    30    17    19   ar
    31    17    20   ar
    32    18    19   ar
    33    18    22   ar
    34    18    23    1
    35     9    10    1
    36     9    11    1
    37    10    12    1
    38    11     5    1
    39    33    34    1
    40    33    35    1
    41    34    36    1
    42    35    37    1
    43    36    42    1
    44    20    21   ar
    45    21    22   ar
@<TRIPOS>MOLECULE
*****
 43 45 0 0 0
SMALL
GASTEIGER

@<TRIPOS>ATOM
      1 P          22.5810   72.5798   -4.0542 P.3     1  UNL1        0.2189
      2 O          23.1109   73.1732   -5.4629 O.co2   1  UNL1       -0.4371
      3 O          23.5521   71.6895   -3.3360 O.2     1  UNL1       -0.5170
      4 O          21.1561   71.9096   -4.4264 O.3     1  UNL1       -0.3112
      5 C          20.5358   71.0660   -3.4718 C.3     1  UNL1        0.1811
      6 O          18.6441   72.0282   -4.5984 O.3     1  UNL1       -0.3308
      7 O          16.9641   70.7603   -2.4628 O.3     1  UNL1       -0.3794
      8 O          16.6531   69.0453   -4.5601 O.3     1  UNL1       -0.3779
      9 C          18.1498   70.2709   -3.0873 C.3     1  UNL1        0.1713
     10 C          17.8467   69.7988   -4.4940 C.3     1  UNL1        0.1895
     11 C          19.0704   71.4580   -3.3416 C.3     1  UNL1        0.1764
     12 C          17.7523   71.1113   -5.2534 C.3     1  UNL1        0.2383
     13 H          16.3607   70.0200   -2.2901 H       1  UNL1        0.2105
     14 H          16.7634   68.2203   -4.0623 H       1  UNL1        0.2106
     15 O          16.0186   70.3327   -7.3428 O.2     1  UNL1       -0.2464
     16 O          19.3750   70.6344  -10.4868 O.2     1  UNL1       -0.2670
     17 N          18.1465   70.9786   -6.6275 N.ar    1  UNL1       -0.2551
     18 N          17.6912   70.4837   -8.9066 N.ar    1  UNL1       -0.2743
     19 C          17.1987   70.5805   -7.5989 C.ar    1  UNL1        0.3323
     20 C          19.4601   71.2424   -7.0002 C.ar    1  UNL1        0.0869
     21 C          19.9142   71.1441   -8.2513 C.ar    1  UNL1        0.0795
     22 C          18.9880   70.7340   -9.3265 C.ar    1  UNL1        0.2626
     23 H          17.0489   70.2076   -9.6001 H       1  UNL1        0.1734
     24 O          22.1553   73.9082   -3.2373 O.3     1  UNL1       -0.2703
     25 P          22.9644   74.7922   -2.1526 P.3     1  UNL1        0.2208
     26 O          22.1249   76.1742   -2.0997 O.co2   1  UNL1       -0.4371
     27 O          24.4228   74.9651   -2.4643 O.2     1  UNL1       -0.5170
     28 O          22.6632   74.0779   -0.7370 O.3     1  UNL1       -0.2858
     29 O          21.7670   71.9256   -0.3111 O.3     1  UNL1       -0.3258
     30 O          20.0981   73.9749    2.8616 O.3     1  UNL1       -0.3794
     31 O          22.2344   72.1162    3.3405 O.3     1  UNL1       -0.3794
     32 O          20.3253   75.2548    0.2751 O.3     1  UNL1       -0.3775
     33 C          21.1101   73.6606    1.9012 C.3     1  UNL1        0.1715
     34 C          21.5291   72.2034    2.1055 C.3     1  UNL1        0.1694
     35 C          20.5462   73.8660    0.4965 C.3     1  UNL1        0.1967
     36 C          22.4124   71.7138    0.9500 C.3     1  UNL1        0.1761
     37 C          21.4798   73.3002   -0.5752 C.3     1  UNL1        0.2704
     38 H          20.4498   73.8470    3.7557 H       1  UNL1        0.2105
     39 H          21.6657   72.4288    4.0617 H       1  UNL1        0.2105
     40 H          19.7327   75.6010    0.9598 H       1  UNL1        0.2106
     41 O          21.5971   69.5029    0.5549 O.3     1  UNL1       -0.3794
     42 C          22.7119   70.2198    1.0524 C.3     1  UNL1        0.1693
     43 H          21.7736   68.5504    0.6136 H       1  UNL1        0.2105
@<TRIPOS>UNITY_ATOM_ATTR
2 1
charge -1
26 1
charge -1
@<TRIPOS>BOND
     1    25    28    1
     2    25    24    1
     3    25    26    1
     4    25    27    2
     5     1     4    1
     6     1    24    1
     7     1     2    1
     8     1     3    2
     9     6    11    1
    10     6    12    1
    11    29    36    1
    12    29    37    1
    13     7     9    1
    14     7    13    1
    15     8    10    1
    16     8    14    1
    17    28    37    1
    18     4     5    1
    19    30    33    1
    20    30    38    1
    21    31    34    1
    22    31    39    1
    23    32    35    1
    24    32    40    1
    25    41    42    1
    26    41    43    1
    27    15    19    2
    28    16    22    2
    29    17    12    1
    30    17    19   ar
    31    17    20   ar
    32    18    19   ar
    33    18    22   ar
    34    18    23    1
    35     9    10    1
    36     9    11    1
    37    10    12    1
    38    11     5    1
    39    33    34    1
    40    33    35    1
    41    34    36    1
    42    35    37    1
    43    36    42    1
    44    20    21   ar
    45    21    22   ar
@<TRIPOS>MOLECULE
*****
 43 45 0 0 0
SMALL
GASTEIGER

@<TRIPOS>ATOM
      1 P          22.0113   70.8491   -1.4437 P.3     1  UNL1        0.2189
      2 O          23.0390   70.0461   -0.4865 O.co2   1  UNL1       -0.4371
      3 O          21.0677   71.7708   -0.7285 O.2     1  UNL1       -0.5170
      4 O          21.3200   69.6873   -2.3326 O.3     1  UNL1       -0.3112
      5 C          20.7623   70.0375   -3.5873 C.3     1  UNL1        0.1811
      6 O          19.1266   71.5095   -4.5525 O.3     1  UNL1       -0.3308
      7 O          17.2589   70.5261   -2.4228 O.3     1  UNL1       -0.3794
      8 O          16.4705   69.1001   -4.6094 O.3     1  UNL1       -0.3779
      9 C          18.2683   69.8141   -3.1365 C.3     1  UNL1        0.1713
     10 C          17.8133   69.5367   -4.5541 C.3     1  UNL1        0.1895
     11 C          19.4418   70.7601   -3.3585 C.3     1  UNL1        0.1764
     12 C          18.0171   70.8867   -5.2204 C.3     1  UNL1        0.2383
     13 H          16.4991   69.9422   -2.2688 H       1  UNL1        0.2105
     14 H          16.3925   68.2376   -4.1727 H       1  UNL1        0.2106
     15 O          16.0924   70.4551   -7.2421 O.2     1  UNL1       -0.2464
     16 O          19.3018   70.4427  -10.5497 O.2     1  UNL1       -0.2670
     17 N          18.3219   70.7671   -6.6183 N.ar    1  UNL1       -0.2551
     18 N          17.6920   70.4495   -8.8874 N.ar    1  UNL1       -0.2743
     19 C          17.2818   70.5503   -7.5519 C.ar    1  UNL1        0.3323
     20 C          19.6399   70.8652   -7.0511 C.ar    1  UNL1        0.0869
     21 C          20.0146   70.7656   -8.3282 C.ar    1  UNL1        0.0795
     22 C          18.9892   70.5389   -9.3670 C.ar    1  UNL1        0.2626
     23 H          16.9846   70.2980   -9.5555 H       1  UNL1        0.1734
     24 O          22.9933   71.5790   -2.5000 O.3     1  UNL1       -0.2703
     25 P          23.1129   73.1293   -2.9422 P.3     1  UNL1        0.2208
     26 O          24.1901   73.0890   -4.1486 O.co2   1  UNL1       -0.4371
     27 O          23.4718   74.0626   -1.8224 O.2     1  UNL1       -0.5170
     28 O          21.7064   73.4583   -3.6624 O.3     1  UNL1       -0.2858
     29 O          22.1627   75.4868   -4.7997 O.3     1  UNL1       -0.3258
     30 O          18.3072   74.8382   -6.1284 O.3     1  UNL1       -0.3794
     31 O          20.5107   74.4606   -7.9312 O.3     1  UNL1       -0.3794
     32 O          19.0165   74.2109   -3.3929 O.3     1  UNL1       -0.3775
     33 C          19.6221   74.4614   -5.7106 C.3     1  UNL1        0.1715
     34 C          20.6309   75.1032   -6.6652 C.3     1  UNL1        0.1694
     35 C          19.8501   74.9480   -4.2807 C.3     1  UNL1        0.1967
     36 C          22.0631   74.9673   -6.1308 C.3     1  UNL1        0.1761
     37 C          21.3163   74.8139   -3.8655 C.3     1  UNL1        0.2704
     38 H          18.1558   74.5317   -7.0354 H       1  UNL1        0.2105
     39 H          19.6016   74.5534   -8.2572 H       1  UNL1        0.2105
     40 H          18.0910   74.3041   -3.6662 H       1  UNL1        0.2106
     41 O          24.2465   75.9330   -6.2267 O.3     1  UNL1       -0.3794
     42 C          23.0679   75.7361   -6.9860 C.3     1  UNL1        0.1693
     43 H          24.8952   76.4208   -6.7585 H       1  UNL1        0.2105
@<TRIPOS>UNITY_ATOM_ATTR
2 1
charge -1
26 1
charge -1
@<TRIPOS>BOND
     1    25    28    1
     2    25    24    1
     3    25    26    1
     4    25    27    2
     5     1     4    1
     6     1    24    1
     7     1     2    1
     8     1     3    2
     9     6    11    1
    10     6    12    1
    11    29    36    1
    12    29    37    1
    13     7     9    1
    14     7    13    1
    15     8    10    1
    16     8    14    1
    17    28    37    1
    18     4     5    1
    19    30    33    1
    20    30    38    1
    21    31    34    1
    22    31    39    1
    23    32    35    1
    24    32    40    1
    25    41    42    1
    26    41    43    1
    27    15    19    2
    28    16    22    2
    29    17    12    1
    30    17    19   ar
    31    17    20   ar
    32    18    19   ar
    33    18    22   ar
    34    18    23    1
    35     9    10    1
    36     9    11    1
    37    10    12    1
    38    11     5    1
    39    33    34    1
    40    33    35    1
    41    34    36    1
    42    35    37    1
    43    36    42    1
    44    20    21   ar
    45    21    22   ar
@<TRIPOS>MOLECULE
*****
 43 45 0 0 0
SMALL
GASTEIGER

@<TRIPOS>ATOM
      1 P          22.4028   72.8055   -4.1715 P.3     1  UNL1        0.2189
      2 O          23.7170   72.0011   -3.6783 O.co2   1  UNL1       -0.4371
      3 O          21.8805   73.8225   -3.1998 O.2     1  UNL1       -0.5170
      4 O          21.3659   71.6360   -4.5898 O.3     1  UNL1       -0.3112
      5 C          20.7301   70.8966   -3.5618 C.3     1  UNL1        0.1811
      6 O          18.8835   71.9717   -4.6608 O.3     1  UNL1       -0.3308
      7 O          17.1733   70.8683   -2.4588 O.3     1  UNL1       -0.3794
      8 O          16.6854   69.1416   -4.5124 O.3     1  UNL1       -0.3779
      9 C          18.3041   70.2831   -3.1023 C.3     1  UNL1        0.1713
     10 C          17.9313   69.8081   -4.4912 C.3     1  UNL1        0.1895
     11 C          19.3005   71.3957   -3.4035 C.3     1  UNL1        0.1764
     12 C          17.9115   71.1096   -5.2746 C.3     1  UNL1        0.2383
     13 H          16.5230   70.1769   -2.2563 H       1  UNL1        0.2105
     14 H          16.7493   68.3201   -4.0006 H       1  UNL1        0.2106
     15 O          16.0699   70.4344   -7.3070 O.2     1  UNL1       -0.2464
     16 O          19.3589   70.4187  -10.5355 O.2     1  UNL1       -0.2670
     17 N          18.2592   70.9232   -6.6551 N.ar    1  UNL1       -0.2551
     18 N          17.7090   70.4273   -8.9129 N.ar    1  UNL1       -0.2743
     19 C          17.2588   70.5845   -7.5958 C.ar    1  UNL1        0.3323
     20 C          19.5795   71.0768   -7.0640 C.ar    1  UNL1        0.0869
     21 C          19.9926   70.9221   -8.3236 C.ar    1  UNL1        0.0795
     22 C          19.0103   70.5679   -9.3684 C.ar    1  UNL1        0.2626
     23 H          17.0298   70.1908   -9.5856 H       1  UNL1        0.1734
     24 O          22.8617   73.4116   -5.5981 O.3     1  UNL1       -0.2703
     25 P          22.2600   74.6265   -6.4783 P.3     1  UNL1        0.2208
     26 O          22.6186   75.9356   -5.5979 O.co2   1  UNL1       -0.4371
     27 O          20.8027   74.4833   -6.8098 O.2     1  UNL1       -0.5170
     28 O          23.2321   74.7205   -7.7632 O.3     1  UNL1       -0.2858
     29 O          22.0002   76.0877   -9.2565 O.3     1  UNL1       -0.3258
     30 O          25.4555   75.6374  -11.4721 O.3     1  UNL1       -0.3794
     31 O          24.8888   78.1623  -10.2264 O.3     1  UNL1       -0.3794
     32 O          24.4217   73.4092   -9.9405 O.3     1  UNL1       -0.3775
     33 C          24.6835   75.7798  -10.2767 C.3     1  UNL1        0.1715
     34 C          23.9337   77.1116  -10.3458 C.3     1  UNL1        0.1694
     35 C          23.7012   74.6144  -10.1749 C.3     1  UNL1        0.1967
     36 C          22.8838   77.2148   -9.2313 C.3     1  UNL1        0.1761
     37 C          22.6702   74.8398   -9.0676 C.3     1  UNL1        0.2704
     38 H          26.0815   76.3740  -11.5425 H       1  UNL1        0.2105
     39 H          25.5462   78.0854  -10.9357 H       1  UNL1        0.2105
     40 H          25.0709   73.2778  -10.6484 H       1  UNL1        0.2106
     41 O          21.9791   78.8289  -10.7428 O.3     1  UNL1       -0.3794
     42 C          22.0174   78.4641   -9.3755 C.3     1  UNL1        0.1693
     43 H          21.4309   79.6225  -10.8498 H       1  UNL1        0.2105
@<TRIPOS>UNITY_ATOM_ATTR
2 1
charge -1
26 1
charge -1
@<TRIPOS>BOND
     1    25    28    1
     2    25    24    1
     3    25    26    1
     4    25    27    2
     5     1     4    1
     6     1    24    1
     7     1     2    1
     8     1     3    2
     9     6    11    1
    10     6    12    1
    11    29    36    1
    12    29    37    1
    13     7     9    1
    14     7    13    1
    15     8    10    1
    16     8    14    1
    17    28    37    1
    18     4     5    1
    19    30    33    1
    20    30    38    1
    21    31    34    1
    22    31    39    1
    23    32    35    1
    24    32    40    1
    25    41    42    1
    26    41    43    1
    27    15    19    2
    28    16    22    2
    29    17    12    1
    30    17    19   ar
    31    17    20   ar
    32    18    19   ar
    33    18    22   ar
    34    18    23    1
    35     9    10    1
    36     9    11    1
    37    10    12    1
    38    11     5    1
    39    33    34    1
    40    33    35    1
    41    34    36    1
    42    35    37    1
    43    36    42    1
    44    20    21   ar
    45    21    22   ar
@<TRIPOS>MOLECULE
*****
 43 45 0 0 0
SMALL
GASTEIGER

@<TRIPOS>ATOM
      1 P          22.9098   71.9284   -2.9926 P.3     1  UNL1        0.2189
      2 O          23.5132   70.4371   -3.1635 O.co2   1  UNL1       -0.4371
      3 O          22.8390   72.4252   -1.5785 O.2     1  UNL1       -0.5170
      4 O          21.5024   71.8716   -3.7887 O.3     1  UNL1       -0.3112
      5 C          20.6415   70.7692   -3.5621 C.3     1  UNL1        0.1811
      6 O          18.8209   71.8849   -4.6641 O.3     1  UNL1       -0.3308
      7 O          17.0682   70.7474   -2.5135 O.3     1  UNL1       -0.3794
      8 O          16.5970   69.0716   -4.6127 O.3     1  UNL1       -0.3779
      9 C          18.2037   70.1669   -3.1531 C.3     1  UNL1        0.1713
     10 C          17.8480   69.7265   -4.5577 C.3     1  UNL1        0.1895
     11 C          19.2139   71.2772   -3.4140 C.3     1  UNL1        0.1764
     12 C          17.8510   71.0454   -5.3117 C.3     1  UNL1        0.2383
     13 H          16.4091   70.0573   -2.3364 H       1  UNL1        0.2105
     14 H          16.6462   68.2383   -4.1187 H       1  UNL1        0.2106
     15 O          16.0275   70.4825   -7.3939 O.2     1  UNL1       -0.2464
     16 O          19.3726   70.4577  -10.5642 O.2     1  UNL1       -0.2670
     17 N          18.2181   70.8871   -6.6907 N.ar    1  UNL1       -0.2551
     18 N          17.6945   70.4708   -8.9708 N.ar    1  UNL1       -0.2743
     19 C          17.2254   70.6048   -7.6578 C.ar    1  UNL1        0.3323
     20 C          19.5495   71.0123   -7.0722 C.ar    1  UNL1        0.0869
     21 C          19.9807   70.8803   -8.3283 C.ar    1  UNL1        0.0795
     22 C          19.0075   70.5849   -9.3996 C.ar    1  UNL1        0.2626
     23 H          17.0209   70.2736   -9.6616 H       1  UNL1        0.1734
     24 O          23.8449   72.8131   -3.9704 O.3     1  UNL1       -0.2703
     25 P          24.1865   74.3930   -3.9692 P.3     1  UNL1        0.2208
     26 O          23.6461   74.8884   -2.5269 O.co2   1  UNL1       -0.4371
     27 O          23.6169   75.1467   -5.1360 O.2     1  UNL1       -0.5170
     28 O          25.7944   74.4632   -3.8481 O.3     1  UNL1       -0.2858
     29 O          26.3235   76.5289   -4.8823 O.3     1  UNL1       -0.3258
     30 O          24.2160   77.9425   -1.6248 O.3     1  UNL1       -0.3794
     31 O          23.0272   78.0478   -4.2371 O.3     1  UNL1       -0.3794
     32 O          25.9886   75.6738   -1.3239 O.3     1  UNL1       -0.3775
     33 C          24.5262   77.0262   -2.6781 C.3     1  UNL1        0.1715
     34 C          24.4060   77.7685   -4.0105 C.3     1  UNL1        0.1694
     35 C          25.9473   76.5018   -2.4811 C.3     1  UNL1        0.1967
     36 C          24.9785   76.9333   -5.1636 C.3     1  UNL1        0.1761
     37 C          26.4381   75.7267   -3.7053 C.3     1  UNL1        0.2704
     38 H          23.3148   78.2789   -1.7437 H       1  UNL1        0.2105
     39 H          22.6778   78.5752   -3.5016 H       1  UNL1        0.2105
     40 H          25.6758   76.1760   -0.5559 H       1  UNL1        0.2106
     41 O          24.9797   76.7946   -7.5489 O.3     1  UNL1       -0.3794
     42 C          25.0130   77.7159   -6.4745 C.3     1  UNL1        0.1693
     43 H          25.0008   77.2785   -8.3898 H       1  UNL1        0.2105
@<TRIPOS>UNITY_ATOM_ATTR
2 1
charge -1
26 1
charge -1
@<TRIPOS>BOND
     1    25    28    1
     2    25    24    1
     3    25    26    1
     4    25    27    2
     5     1     4    1
     6     1    24    1
     7     1     2    1
     8     1     3    2
     9     6    11    1
    10     6    12    1
    11    29    36    1
    12    29    37    1
    13     7     9    1
    14     7    13    1
    15     8    10    1
    16     8    14    1
    17    28    37    1
    18     4     5    1
    19    30    33    1
    20    30    38    1
    21    31    34    1
    22    31    39    1
    23    32    35    1
    24    32    40    1
    25    41    42    1
    26    41    43    1
    27    15    19    2
    28    16    22    2
    29    17    12    1
    30    17    19   ar
    31    17    20   ar
    32    18    19   ar
    33    18    22   ar
    34    18    23    1
    35     9    10    1
    36     9    11    1
    37    10    12    1
    38    11     5    1
    39    33    34    1
    40    33    35    1
    41    34    36    1
    42    35    37    1
    43    36    42    1
    44    20    21   ar
    45    21    22   ar
@<TRIPOS>MOLECULE
*****
 43 45 0 0 0
SMALL
GASTEIGER

@<TRIPOS>ATOM
      1 P          22.4323   73.0709   -4.5794 P.3     1  UNL1        0.2189
      2 O          22.6466   73.7517   -6.0313 O.co2   1  UNL1       -0.4371
      3 O          23.6672   72.4742   -3.9708 O.2     1  UNL1       -0.5170
      4 O          21.1977   72.0503   -4.8073 O.3     1  UNL1       -0.3112
      5 C          20.6734   71.3620   -3.6851 C.3     1  UNL1        0.1811
      6 O          18.7135   72.1858   -4.8048 O.3     1  UNL1       -0.3308
      7 O          17.1508   71.0215   -2.5260 O.3     1  UNL1       -0.3794
      8 O          16.8226   69.1549   -4.4868 O.3     1  UNL1       -0.3779
      9 C          18.3292   70.5251   -3.1586 C.3     1  UNL1        0.1713
     10 C          17.9927   69.9465   -4.5172 C.3     1  UNL1        0.1895
     11 C          19.2015   71.7183   -3.5283 C.3     1  UNL1        0.1764
     12 C          17.8295   71.1990   -5.3614 C.3     1  UNL1        0.2383
     13 H          16.5780   70.2775   -2.2804 H       1  UNL1        0.2105
     14 H          16.9768   68.3706   -3.9375 H       1  UNL1        0.2106
     15 O          16.0193   70.3420   -7.3530 O.2     1  UNL1       -0.2464
     16 O          19.2852   70.3981  -10.6044 O.2     1  UNL1       -0.2670
     17 N          18.1798   70.9819   -6.7367 N.ar    1  UNL1       -0.2551
     18 N          17.6469   70.3708   -8.9703 N.ar    1  UNL1       -0.2743
     19 C          17.1957   70.5504   -7.6565 C.ar    1  UNL1        0.3323
     20 C          19.4864   71.1970   -7.1613 C.ar    1  UNL1        0.0869
     21 C          19.9008   71.0199   -8.4176 C.ar    1  UNL1        0.0795
     22 C          18.9351   70.5701   -9.4409 C.ar    1  UNL1        0.2626
     23 H          16.9789   70.0701   -9.6285 H       1  UNL1        0.1734
     24 O          21.7642   74.2619   -3.7145 O.3     1  UNL1       -0.2703
     25 P          22.0980   74.8136   -2.2322 P.3     1  UNL1        0.2208
     26 O          20.8231   75.7485   -1.8884 O.co2   1  UNL1       -0.4371
     27 O          23.4240   75.5083   -2.1184 O.2     1  UNL1       -0.5170
     28 O          21.9317   73.5279   -1.2708 O.3     1  UNL1       -0.2858
     29 O          23.2026   73.7425    0.7180 O.3     1  UNL1       -0.3258
     30 O          22.0876   69.7823    1.0715 O.3     1  UNL1       -0.3794
     31 O          20.8836   71.7522    2.7796 O.3     1  UNL1       -0.3794
     32 O          22.7737   70.8630   -1.5248 O.3     1  UNL1       -0.3775
     33 C          21.9206   71.1555    0.7085 C.3     1  UNL1        0.1715
     34 C          22.0335   72.0039    1.9767 C.3     1  UNL1        0.1694
     35 C          23.0052   71.5420   -0.2953 C.3     1  UNL1        0.1967
     36 C          22.1317   73.4973    1.6372 C.3     1  UNL1        0.1761
     37 C          23.0496   73.0538   -0.5247 C.3     1  UNL1        0.2704
     38 H          21.4017   69.5304    1.7083 H       1  UNL1        0.2105
     39 H          20.8331   70.8057    2.9865 H       1  UNL1        0.2105
     40 H          22.7481   69.9069   -1.3662 H       1  UNL1        0.2106
     41 O          23.7948   74.3333    3.1353 O.3     1  UNL1       -0.3794
     42 C          22.4031   74.3487    2.8756 C.3     1  UNL1        0.1693
     43 H          23.9824   74.8714    3.9208 H       1  UNL1        0.2105
@<TRIPOS>UNITY_ATOM_ATTR
2 1
charge -1
26 1
charge -1
@<TRIPOS>BOND
     1    25    28    1
     2    25    24    1
     3    25    26    1
     4    25    27    2
     5     1     4    1
     6     1    24    1
     7     1     2    1
     8     1     3    2
     9     6    11    1
    10     6    12    1
    11    29    36    1
    12    29    37    1
    13     7     9    1
    14     7    13    1
    15     8    10    1
    16     8    14    1
    17    28    37    1
    18     4     5    1
    19    30    33    1
    20    30    38    1
    21    31    34    1
    22    31    39    1
    23    32    35    1
    24    32    40    1
    25    41    42    1
    26    41    43    1
    27    15    19    2
    28    16    22    2
    29    17    12    1
    30    17    19   ar
    31    17    20   ar
    32    18    19   ar
    33    18    22   ar
    34    18    23    1
    35     9    10    1
    36     9    11    1
    37    10    12    1
    38    11     5    1
    39    33    34    1
    40    33    35    1
    41    34    36    1
    42    35    37    1
    43    36    42    1
    44    20    21   ar
    45    21    22   ar
@<TRIPOS>MOLECULE
*****
 43 45 0 0 0
SMALL
GASTEIGER

@<TRIPOS>ATOM
      1 P          22.4642   73.2102   -4.3792 P.3     1  UNL1        0.2189
      2 O          21.8326   74.3239   -3.3902 O.co2   1  UNL1       -0.4371
      3 O          23.9491   73.0285   -4.2629 O.2     1  UNL1       -0.5170
      4 O          21.9210   73.6371   -5.8422 O.3     1  UNL1       -0.3112
      5 C          21.4787   74.9692   -6.0371 C.3     1  UNL1        0.1811
      6 O          20.8459   74.0501   -8.1651 O.3     1  UNL1       -0.3308
      7 O          20.7347   76.8819   -9.1446 O.3     1  UNL1       -0.3794
      8 O          18.1054   76.2957   -8.7210 O.3     1  UNL1       -0.3779
      9 C          20.3810   76.3546   -7.8670 C.3     1  UNL1        0.1713
     10 C          19.0687   75.6035   -7.9532 C.3     1  UNL1        0.1895
     11 C          21.3639   75.2400   -7.5309 C.3     1  UNL1        0.1764
     12 C          19.4965   74.2943   -8.5943 C.3     1  UNL1        0.2383
     13 H          20.1211   77.5957   -9.3807 H       1  UNL1        0.2105
     14 H          17.8658   77.1212   -8.2716 H       1  UNL1        0.2106
     15 O          19.0177   71.9982  -10.1680 O.2     1  UNL1       -0.2464
     16 O          16.3134   70.1253   -6.9400 O.2     1  UNL1       -0.2670
     17 N          18.6716   73.1910   -8.1895 N.ar    1  UNL1       -0.2551
     18 N          17.6717   71.0674   -8.5594 N.ar    1  UNL1       -0.2743
     19 C          18.4953   72.0863   -9.0549 C.ar    1  UNL1        0.3323
     20 C          18.0479   73.2115   -6.9468 C.ar    1  UNL1        0.0869
     21 C          17.2645   72.2324   -6.4896 C.ar    1  UNL1        0.0795
     22 C          17.0286   71.0422   -7.3320 C.ar    1  UNL1        0.2626
     23 H          17.5341   70.2878   -9.1451 H       1  UNL1        0.1734
     24 O          21.5963   71.8892   -4.0406 O.3     1  UNL1       -0.2703
     25 P          21.8306   70.7145   -2.9552 P.3     1  UNL1        0.2208
     26 O          23.4234   70.4434   -3.0399 O.co2   1  UNL1       -0.4371
     27 O          20.9824   69.4955   -3.1750 O.2     1  UNL1       -0.5170
     28 O          21.6146   71.4307   -1.5250 O.3     1  UNL1       -0.2858
     29 O          23.2856   72.7868   -0.5325 O.3     1  UNL1       -0.3258
     30 O          21.2318   71.6728    2.8721 O.3     1  UNL1       -0.3794
     31 O          21.0006   74.3628    1.8931 O.3     1  UNL1       -0.3794
     32 O          21.6231   69.7632    0.7321 O.3     1  UNL1       -0.3775
     33 C          21.3736   72.0339    1.4956 C.3     1  UNL1        0.1715
     34 C          21.9790   73.4373    1.4279 C.3     1  UNL1        0.1694
     35 C          22.2853   71.0212    0.8052 C.3     1  UNL1        0.1967
     36 C          22.4076   73.7873   -0.0035 C.3     1  UNL1        0.1761
     37 C          22.6917   71.4886   -0.5935 C.3     1  UNL1        0.2704
     38 H          20.6536   72.3116    3.3161 H       1  UNL1        0.2105
     39 H          20.7382   74.1303    2.7977 H       1  UNL1        0.2105
     40 H          21.3712   69.4781    1.6238 H       1  UNL1        0.2106
     41 O          24.5228   74.8510   -0.3254 O.3     1  UNL1       -0.3794
     42 C          23.1564   75.1168   -0.0675 C.3     1  UNL1        0.1693
     43 H          25.0117   75.6881   -0.3691 H       1  UNL1        0.2105
@<TRIPOS>UNITY_ATOM_ATTR
2 1
charge -1
26 1
charge -1
@<TRIPOS>BOND
     1    25    28    1
     2    25    24    1
     3    25    26    1
     4    25    27    2
     5     1     4    1
     6     1    24    1
     7     1     2    1
     8     1     3    2
     9     6    11    1
    10     6    12    1
    11    29    36    1
    12    29    37    1
    13     7     9    1
    14     7    13    1
    15     8    10    1
    16     8    14    1
    17    28    37    1
    18     4     5    1
    19    30    33    1
    20    30    38    1
    21    31    34    1
    22    31    39    1
    23    32    35    1
    24    32    40    1
    25    41    42    1
    26    41    43    1
    27    15    19    2
    28    16    22    2
    29    17    12    1
    30    17    19   ar
    31    17    20   ar
    32    18    19   ar
    33    18    22   ar
    34    18    23    1
    35     9    10    1
    36     9    11    1
    37    10    12    1
    38    11     5    1
    39    33    34    1
    40    33    35    1
    41    34    36    1
    42    35    37    1
    43    36    42    1
    44    20    21   ar
    45    21    22   ar
@<TRIPOS>MOLECULE
*****
 43 45 0 0 0
SMALL
GASTEIGER

@<TRIPOS>ATOM
      1 P          22.3017   73.3582   -5.3296 P.3     1  UNL1        0.2189
      2 O          22.7541   74.7522   -6.0149 O.co2   1  UNL1       -0.4371
      3 O          23.4167   72.5608   -4.7193 O.2     1  UNL1       -0.5170
      4 O          21.4569   72.6112   -6.4898 O.3     1  UNL1       -0.3112
      5 C          20.8584   73.3990   -7.5041 C.3     1  UNL1        0.1811
      6 O          19.9950   71.1902   -7.8907 O.3     1  UNL1       -0.3308
      7 O          18.4992   72.3818  -10.2001 O.3     1  UNL1       -0.3794
      8 O          16.5770   72.2070   -8.2737 O.3     1  UNL1       -0.3779
      9 C          18.7970   72.9527   -8.9271 C.3     1  UNL1        0.1713
     10 C          17.9209   72.3364   -7.8565 C.3     1  UNL1        0.1895
     11 C          20.1850   72.4795   -8.5136 C.3     1  UNL1        0.1764
     12 C          18.5952   70.9936   -7.6320 C.3     1  UNL1        0.2383
     13 H          17.6175   72.6701  -10.4853 H       1  UNL1        0.2105
     14 H          16.1922   73.0879   -8.4030 H       1  UNL1        0.2106
     15 O          16.2622   69.7344   -6.6578 O.2     1  UNL1       -0.2464
     16 O          18.0809   69.2064   -2.4560 O.2     1  UNL1       -0.2670
     17 N          18.4319   70.5167   -6.2876 N.ar    1  UNL1       -0.2551
     18 N          17.1697   69.4723   -4.5665 N.ar    1  UNL1       -0.2743
     19 C          17.2199   69.8996   -5.8995 C.ar    1  UNL1        0.3323
     20 C          19.4667   70.6626   -5.3701 C.ar    1  UNL1        0.0869
     21 C          19.4025   70.2509   -4.1022 C.ar    1  UNL1        0.0795
     22 C          18.1709   69.5959   -3.6162 C.ar    1  UNL1        0.2626
     23 H          16.3349   69.0399   -4.2734 H       1  UNL1        0.1734
     24 O          21.1564   73.8207   -4.2868 O.3     1  UNL1       -0.2703
     25 P          21.2602   74.3597   -2.7664 P.3     1  UNL1        0.2208
     26 O          19.7915   74.9802   -2.4916 O.co2   1  UNL1       -0.4371
     27 O          22.3914   75.3177   -2.5289 O.2     1  UNL1       -0.5170
     28 O          21.3140   73.0238   -1.8622 O.3     1  UNL1       -0.2858
     29 O          23.0021   73.3447   -0.2300 O.3     1  UNL1       -0.3258
     30 O          21.9264   69.4650    0.6873 O.3     1  UNL1       -0.3794
     31 O          21.1706   71.6009    2.4521 O.3     1  UNL1       -0.3794
     32 O          22.0312   70.3193   -2.0766 O.3     1  UNL1       -0.3775
     33 C          21.7060   70.8115    0.2587 C.3     1  UNL1        0.1715
     34 C          22.1152   71.7498    1.3958 C.3     1  UNL1        0.1694
     35 C          22.5443   71.0816   -0.9894 C.3     1  UNL1        0.1967
     36 C          22.1607   73.2084    0.9211 C.3     1  UNL1        0.1761
     37 C          22.5624   72.5690   -1.3466 C.3     1  UNL1        0.2704
     38 H          21.3966   69.2868    1.4791 H       1  UNL1        0.2105
     39 H          21.1513   70.6754    2.7422 H       1  UNL1        0.2105
     40 H          22.0252   69.3796   -1.8380 H       1  UNL1        0.2106
     41 O          21.7465   74.2842    3.0140 O.3     1  UNL1       -0.3794
     42 C          22.7177   74.1418    1.9938 C.3     1  UNL1        0.1693
     43 H          22.0875   74.8754    3.7039 H       1  UNL1        0.2105
@<TRIPOS>UNITY_ATOM_ATTR
2 1
charge -1
26 1
charge -1
@<TRIPOS>BOND
     1    25    28    1
     2    25    24    1
     3    25    26    1
     4    25    27    2
     5     1     4    1
     6     1    24    1
     7     1     2    1
     8     1     3    2
     9     6    11    1
    10     6    12    1
    11    29    36    1
    12    29    37    1
    13     7     9    1
    14     7    13    1
    15     8    10    1
    16     8    14    1
    17    28    37    1
    18     4     5    1
    19    30    33    1
    20    30    38    1
    21    31    34    1
    22    31    39    1
    23    32    35    1
    24    32    40    1
    25    41    42    1
    26    41    43    1
    27    15    19    2
    28    16    22    2
    29    17    12    1
    30    17    19   ar
    31    17    20   ar
    32    18    19   ar
    33    18    22   ar
    34    18    23    1
    35     9    10    1
    36     9    11    1
    37    10    12    1
    38    11     5    1
    39    33    34    1
    40    33    35    1
    41    34    36    1
    42    35    37    1
    43    36    42    1
    44    20    21   ar
    45    21    22   ar
@<TRIPOS>MOLECULE
*****
 43 45 0 0 0
SMALL
GASTEIGER

@<TRIPOS>ATOM
      1 P          22.9573   72.0967   -3.0507 P.3     1  UNL1        0.2189
      2 O          23.5784   70.6121   -3.2162 O.co2   1  UNL1       -0.4371
      3 O          22.9010   72.6066   -1.6406 O.2     1  UNL1       -0.5170
      4 O          21.5390   72.0129   -3.8247 O.3     1  UNL1       -0.3112
      5 C          20.7019   70.8955   -3.5831 C.3     1  UNL1        0.1811
      6 O          18.8436   71.9561   -4.6766 O.3     1  UNL1       -0.3308
      7 O          17.1447   70.8185   -2.4834 O.3     1  UNL1       -0.3794
      8 O          16.6787   69.0996   -4.5486 O.3     1  UNL1       -0.3779
      9 C          18.2828   70.2507   -3.1297 C.3     1  UNL1        0.1713
     10 C          17.9167   69.7804   -4.5220 C.3     1  UNL1        0.1895
     11 C          19.2663   71.3768   -3.4228 C.3     1  UNL1        0.1764
     12 C          17.8822   71.0867   -5.2969 C.3     1  UNL1        0.2383
     13 H          16.5024   70.1182   -2.2859 H       1  UNL1        0.2105
     14 H          16.7518   68.2756   -4.0422 H       1  UNL1        0.2106
     15 O          16.0522   70.3928   -7.3335 O.2     1  UNL1       -0.2464
     16 O          19.3417   70.4477  -10.5610 O.2     1  UNL1       -0.2670
     17 N          18.2332   70.9135   -6.6783 N.ar    1  UNL1       -0.2551
     18 N          17.6916   70.4209   -8.9389 N.ar    1  UNL1       -0.2743
     19 C          17.2387   70.5637   -7.6212 C.ar    1  UNL1        0.3323
     20 C          19.5509   71.0905   -7.0860 C.ar    1  UNL1        0.0869
     21 C          19.9668   70.9494   -8.3463 C.ar    1  UNL1        0.0795
     22 C          18.9906   70.5850   -9.3933 C.ar    1  UNL1        0.2626
     23 H          17.0164   70.1771   -9.6130 H       1  UNL1        0.1734
     24 O          23.8653   72.9842   -4.0512 O.3     1  UNL1       -0.2703
     25 P          24.3705   74.5163   -3.9488 P.3     1  UNL1        0.2208
     26 O          23.9057   74.9618   -2.4646 O.co2   1  UNL1       -0.4371
     27 O          23.8662   75.4052   -5.0486 O.2     1  UNL1       -0.5170
     28 O          25.9785   74.4110   -3.8581 O.3     1  UNL1       -0.2858
     29 O          26.9017   76.2343   -2.6581 O.3     1  UNL1       -0.3258
     30 O          30.3883   74.5725   -4.1185 O.3     1  UNL1       -0.3794
     31 O          29.7539   74.3139   -1.3294 O.3     1  UNL1       -0.3794
     32 O          28.0153   74.6376   -5.7751 O.3     1  UNL1       -0.3775
     33 C          29.0541   74.5583   -3.6035 C.3     1  UNL1        0.1715
     34 C          29.0698   75.1974   -2.2135 C.3     1  UNL1        0.1694
     35 C          28.1465   75.3453   -4.5469 C.3     1  UNL1        0.1967
     36 C          27.6446   75.4607   -1.7087 C.3     1  UNL1        0.1761
     37 C          26.7695   75.5945   -3.9289 C.3     1  UNL1        0.2704
     38 H          30.9696   74.0740   -3.5243 H       1  UNL1        0.2105
     39 H          30.6523   74.1555   -1.6598 H       1  UNL1        0.2105
     40 H          28.8937   74.4864   -6.1564 H       1  UNL1        0.2106
     41 O          28.0930   75.3848    0.6369 O.3     1  UNL1       -0.3794
     42 C          27.6379   76.2400   -0.3954 C.3     1  UNL1        0.1693
     43 H          28.0943   75.8674    1.4788 H       1  UNL1        0.2105
@<TRIPOS>UNITY_ATOM_ATTR
2 1
charge -1
26 1
charge -1
@<TRIPOS>BOND
     1    25    28    1
     2    25    24    1
     3    25    26    1
     4    25    27    2
     5     1     4    1
     6     1    24    1
     7     1     2    1
     8     1     3    2
     9     6    11    1
    10     6    12    1
    11    29    36    1
    12    29    37    1
    13     7     9    1
    14     7    13    1
    15     8    10    1
    16     8    14    1
    17    28    37    1
    18     4     5    1
    19    30    33    1
    20    30    38    1
    21    31    34    1
    22    31    39    1
    23    32    35    1
    24    32    40    1
    25    41    42    1
    26    41    43    1
    27    15    19    2
    28    16    22    2
    29    17    12    1
    30    17    19   ar
    31    17    20   ar
    32    18    19   ar
    33    18    22   ar
    34    18    23    1
    35     9    10    1
    36     9    11    1
    37    10    12    1
    38    11     5    1
    39    33    34    1
    40    33    35    1
    41    34    36    1
    42    35    37    1
    43    36    42    1
    44    20    21   ar
    45    21    22   ar
@<TRIPOS>MOLECULE
*****
 43 45 0 0 0
SMALL
GASTEIGER

@<TRIPOS>ATOM
      1 P          21.7223   73.0878   -4.6680 P.3     1  UNL1        0.2189
      2 O          22.2760   73.9387   -3.4082 O.co2   1  UNL1       -0.4371
      3 O          22.7213   72.8536   -5.7628 O.2     1  UNL1       -0.5170
      4 O          20.3742   73.8699   -5.1025 O.3     1  UNL1       -0.3112
      5 C          19.4389   74.2157   -4.0958 C.3     1  UNL1        0.1811
      6 O          18.3529   74.7455   -6.1728 O.3     1  UNL1       -0.3308
      7 O          15.9067   75.3115   -4.5337 O.3     1  UNL1       -0.3794
      8 O          15.3943   72.8240   -5.5269 O.3     1  UNL1       -0.3779
      9 C          16.9087   74.3138   -4.3443 C.3     1  UNL1        0.1713
     10 C          16.7452   73.2044   -5.3622 C.3     1  UNL1        0.1895
     11 C          18.2509   74.9152   -4.7420 C.3     1  UNL1        0.1764
     12 C          17.3314   73.8361   -6.6135 C.3     1  UNL1        0.2383
     13 H          15.0405   74.9507   -4.2859 H       1  UNL1        0.2105
     14 H          15.0673   72.4276   -4.7042 H       1  UNL1        0.2106
     15 O          17.5602   74.1498   -9.4112 O.2     1  UNL1       -0.2464
     16 O          19.6027   70.0460   -9.8884 O.2     1  UNL1       -0.2670
     17 N          17.9190   72.8655   -7.4932 N.ar    1  UNL1       -0.2551
     18 N          18.5772   72.1063   -9.6465 N.ar    1  UNL1       -0.2743
     19 C          17.9841   73.1198   -8.8830 C.ar    1  UNL1        0.3323
     20 C          18.4234   71.6771   -6.9761 C.ar    1  UNL1        0.0869
     21 C          18.9848   70.7201   -7.7179 C.ar    1  UNL1        0.0795
     22 C          19.0919   70.9073   -9.1792 C.ar    1  UNL1        0.2626
     23 H          18.6331   72.2613  -10.6174 H       1  UNL1        0.1734
     24 O          21.1545   71.7418   -3.9761 O.3     1  UNL1       -0.2703
     25 P          21.8138   70.7514   -2.8817 P.3     1  UNL1        0.2208
     26 O          23.4003   70.8833   -3.1701 O.co2   1  UNL1       -0.4371
     27 O          21.2903   69.3452   -2.9301 O.2     1  UNL1       -0.5170
     28 O          21.5928   71.4991   -1.4685 O.3     1  UNL1       -0.2858
     29 O          23.2168   72.9063   -0.4690 O.3     1  UNL1       -0.3258
     30 O          21.2156   71.6891    2.9317 O.3     1  UNL1       -0.3794
     31 O          20.8840   74.3774    1.9769 O.3     1  UNL1       -0.3794
     32 O          21.6689   69.8136    0.7738 O.3     1  UNL1       -0.3775
     33 C          21.3399   72.0671    1.5579 C.3     1  UNL1        0.1715
     34 C          21.8939   73.4920    1.5008 C.3     1  UNL1        0.1694
     35 C          22.2854   71.0940    0.8561 C.3     1  UNL1        0.1967
     36 C          22.3049   73.8697    0.0712 C.3     1  UNL1        0.1761
     37 C          22.6701   71.5879   -0.5397 C.3     1  UNL1        0.2704
     38 H          20.6162   72.3027    3.3829 H       1  UNL1        0.2105
     39 H          20.6331   74.1277    2.8802 H       1  UNL1        0.2105
     40 H          21.4304   69.5119    1.6637 H       1  UNL1        0.2106
     41 O          22.5983   75.8943   -1.1632 O.3     1  UNL1       -0.3794
     42 C          23.0048   75.2259    0.0168 C.3     1  UNL1        0.1693
     43 H          23.0356   76.7592   -1.2111 H       1  UNL1        0.2105
@<TRIPOS>UNITY_ATOM_ATTR
2 1
charge -1
26 1
charge -1
@<TRIPOS>BOND
     1    25    28    1
     2    25    24    1
     3    25    26    1
     4    25    27    2
     5     1     4    1
     6     1    24    1
     7     1     2    1
     8     1     3    2
     9     6    11    1
    10     6    12    1
    11    29    36    1
    12    29    37    1
    13     7     9    1
    14     7    13    1
    15     8    10    1
    16     8    14    1
    17    28    37    1
    18     4     5    1
    19    30    33    1
    20    30    38    1
    21    31    34    1
    22    31    39    1
    23    32    35    1
    24    32    40    1
    25    41    42    1
    26    41    43    1
    27    15    19    2
    28    16    22    2
    29    17    12    1
    30    17    19   ar
    31    17    20   ar
    32    18    19   ar
    33    18    22   ar
    34    18    23    1
    35     9    10    1
    36     9    11    1
    37    10    12    1
    38    11     5    1
    39    33    34    1
    40    33    35    1
    41    34    36    1
    42    35    37    1
    43    36    42    1
    44    20    21   ar
    45    21    22   ar
@<TRIPOS>MOLECULE
*****
 43 45 0 0 0
SMALL
GASTEIGER

@<TRIPOS>ATOM
      1 P          22.1202   71.1854   -2.8613 P.3     1  UNL1        0.2189
      2 O          22.0461   72.7404   -3.3013 O.co2   1  UNL1       -0.4371
      3 O          23.4339   70.5123   -3.1310 O.2     1  UNL1       -0.5170
      4 O          20.8297   70.5182   -3.5736 O.3     1  UNL1       -0.3112
      5 C          20.0556   71.3150   -4.4533 C.3     1  UNL1        0.1811
      6 O          17.8880   72.3511   -4.4142 O.3     1  UNL1       -0.3308
      7 O          16.7679   69.5716   -4.3110 O.3     1  UNL1       -0.3794
      8 O          16.4429   70.2463   -6.9331 O.3     1  UNL1       -0.3779
      9 C          17.9147   70.0569   -5.0072 C.3     1  UNL1        0.1713
     10 C          17.4927   70.8643   -6.2170 C.3     1  UNL1        0.1895
     11 C          18.5802   71.1144   -4.1353 C.3     1  UNL1        0.1764
     12 C          17.0741   72.1815   -5.5863 C.3     1  UNL1        0.2383
     13 H          16.3263   68.8945   -4.8481 H       1  UNL1        0.2105
     14 H          16.7588   69.4127   -7.3151 H       1  UNL1        0.2106
     15 O          15.4318   72.7983   -7.7999 O.2     1  UNL1       -0.2464
     16 O          17.9652   76.4930   -8.8827 O.2     1  UNL1       -0.2670
     17 N          17.2812   73.2991   -6.4635 N.ar    1  UNL1       -0.2551
     18 N          16.6945   74.6376   -8.3371 N.ar    1  UNL1       -0.2743
     19 C          16.3991   73.5194   -7.5469 C.ar    1  UNL1        0.3323
     20 C          18.3491   74.1627   -6.2453 C.ar    1  UNL1        0.0869
     21 C          18.6178   75.2238   -7.0089 C.ar    1  UNL1        0.0795
     22 C          17.7445   75.5249   -8.1617 C.ar    1  UNL1        0.2626
     23 H          16.0937   74.8107   -9.0979 H       1  UNL1        0.1734
     24 O          21.6935   71.2279   -1.3028 O.3     1  UNL1       -0.2703
     25 P          22.3414   70.5145   -0.0050 P.3     1  UNL1        0.2208
     26 O          23.7959   70.0391   -0.5302 O.co2   1  UNL1       -0.4371
     27 O          21.5021   69.4132    0.5751 O.2     1  UNL1       -0.5170
     28 O          22.6523   71.7264    1.0147 O.3     1  UNL1       -0.2858
     29 O          21.4220   72.5494    2.8655 O.3     1  UNL1       -0.3258
     30 O          22.8372   76.1286    1.3698 O.3     1  UNL1       -0.3794
     31 O          23.9361   75.0762    3.8055 O.3     1  UNL1       -0.3794
     32 O          22.0043   74.0334   -0.4457 O.3     1  UNL1       -0.3775
     33 C          22.8920   74.7338    1.6810 C.3     1  UNL1        0.1715
     34 C          22.7499   74.5745    3.1960 C.3     1  UNL1        0.1694
     35 C          21.7556   74.0155    0.9558 C.3     1  UNL1        0.1967
     36 C          22.5320   73.1049    3.5804 C.3     1  UNL1        0.1761
     37 C          21.5928   72.5760    1.4471 C.3     1  UNL1        0.2704
     38 H          23.5565   76.5905    1.8267 H       1  UNL1        0.2105
     39 H          24.0623   76.0048    3.5543 H       1  UNL1        0.2105
     40 H          22.1051   74.9502   -0.7444 H       1  UNL1        0.2106
     41 O          20.8456   73.1512    5.2724 O.3     1  UNL1       -0.3794
     42 C          22.2308   72.9417    5.0686 C.3     1  UNL1        0.1693
     43 H          20.6392   73.0502    6.2152 H       1  UNL1        0.2105
@<TRIPOS>UNITY_ATOM_ATTR
2 1
charge -1
26 1
charge -1
@<TRIPOS>BOND
     1    25    28    1
     2    25    24    1
     3    25    26    1
     4    25    27    2
     5     1     4    1
     6     1    24    1
     7     1     2    1
     8     1     3    2
     9     6    11    1
    10     6    12    1
    11    29    36    1
    12    29    37    1
    13     7     9    1
    14     7    13    1
    15     8    10    1
    16     8    14    1
    17    28    37    1
    18     4     5    1
    19    30    33    1
    20    30    38    1
    21    31    34    1
    22    31    39    1
    23    32    35    1
    24    32    40    1
    25    41    42    1
    26    41    43    1
    27    15    19    2
    28    16    22    2
    29    17    12    1
    30    17    19   ar
    31    17    20   ar
    32    18    19   ar
    33    18    22   ar
    34    18    23    1
    35     9    10    1
    36     9    11    1
    37    10    12    1
    38    11     5    1
    39    33    34    1
    40    33    35    1
    41    34    36    1
    42    35    37    1
    43    36    42    1
    44    20    21   ar
    45    21    22   ar
@<TRIPOS>MOLECULE
*****
 43 45 0 0 0
SMALL
GASTEIGER

@<TRIPOS>ATOM
      1 P          21.9206   74.6252   -5.6823 P.3     1  UNL1        0.2189
      2 O          21.2153   76.0414   -5.3442 O.co2   1  UNL1       -0.4371
      3 O          23.0713   74.7033   -6.6421 O.2     1  UNL1       -0.5170
      4 O          20.6904   73.6771   -6.1359 O.3     1  UNL1       -0.3112
      5 C          19.7544   74.1850   -7.0706 C.3     1  UNL1        0.1811
      6 O          19.7249   71.8343   -7.5679 O.3     1  UNL1       -0.3308
      7 O          18.1019   72.5563   -9.9836 O.3     1  UNL1       -0.3794
      8 O          16.2066   71.6579   -8.2409 O.3     1  UNL1       -0.3779
      9 C          18.0864   73.1359   -8.6801 C.3     1  UNL1        0.1713
     10 C          17.3893   72.2129   -7.7025 C.3     1  UNL1        0.1895
     11 C          19.5152   73.1391   -8.1509 C.3     1  UNL1        0.1764
     12 C          18.4590   71.1667   -7.4393 C.3     1  UNL1        0.2383
     13 H          17.2003   72.5437  -10.3424 H       1  UNL1        0.2105
     14 H          15.5574   72.3628   -8.3905 H       1  UNL1        0.2106
     15 O          16.3878   69.4433   -6.5919 O.2     1  UNL1       -0.2464
     16 O          18.1846   69.0635   -2.3648 O.2     1  UNL1       -0.2670
     17 N          18.3610   70.6024   -6.1228 N.ar    1  UNL1       -0.2551
     18 N          17.2843   69.2554   -4.4879 N.ar    1  UNL1       -0.2743
     19 C          17.2805   69.7492   -5.7987 C.ar    1  UNL1        0.3323
     20 C          19.3296   70.8960   -5.1691 C.ar    1  UNL1        0.0869
     21 C          19.3181   70.4181   -3.9231 C.ar    1  UNL1        0.0795
     22 C          18.2235   69.5192   -3.5035 C.ar    1  UNL1        0.2626
     23 H          16.5409   68.6593   -4.2393 H       1  UNL1        0.1734
     24 O          22.3019   74.0509   -4.2202 O.3     1  UNL1       -0.2703
     25 P          23.5940   74.3067   -3.2831 P.3     1  UNL1        0.2208
     26 O          23.5302   75.8963   -2.9890 O.co2   1  UNL1       -0.4371
     27 O          24.8895   73.8388   -3.8802 O.2     1  UNL1       -0.5170
     28 O          23.2192   73.6160   -1.8732 O.3     1  UNL1       -0.2858
     29 O          21.4900   72.0769   -1.3659 O.3     1  UNL1       -0.3258
     30 O          21.5218   74.2204    2.1633 O.3     1  UNL1       -0.3794
     31 O          22.5659   71.5453    2.1197 O.3     1  UNL1       -0.3794
     32 O          21.9144   75.5856   -0.3589 O.3     1  UNL1       -0.3775
     33 C          22.0962   73.6088    1.0051 C.3     1  UNL1        0.1715
     34 C          21.8002   72.1087    1.0583 C.3     1  UNL1        0.1694
     35 C          21.4820   74.2341   -0.2460 C.3     1  UNL1        0.1967
     36 C          22.1489   71.4278   -0.2721 C.3     1  UNL1        0.1761
     37 C          21.8515   73.4520   -1.5078 C.3     1  UNL1        0.2704
     38 H          21.9079   73.8283    2.9612 H       1  UNL1        0.2105
     39 H          22.3365   71.9844    2.9538 H       1  UNL1        0.2105
     40 H          21.6745   76.0701    0.4458 H       1  UNL1        0.2106
     41 O          22.7308   69.1847    0.3102 O.3     1  UNL1       -0.3794
     42 C          21.7157   69.9636   -0.2959 C.3     1  UNL1        0.1693
     43 H          22.4686   68.2504    0.3024 H       1  UNL1        0.2105
@<TRIPOS>UNITY_ATOM_ATTR
2 1
charge -1
26 1
charge -1
@<TRIPOS>BOND
     1    25    28    1
     2    25    24    1
     3    25    26    1
     4    25    27    2
     5     1     4    1
     6     1    24    1
     7     1     2    1
     8     1     3    2
     9     6    11    1
    10     6    12    1
    11    29    36    1
    12    29    37    1
    13     7     9    1
    14     7    13    1
    15     8    10    1
    16     8    14    1
    17    28    37    1
    18     4     5    1
    19    30    33    1
    20    30    38    1
    21    31    34    1
    22    31    39    1
    23    32    35    1
    24    32    40    1
    25    41    42    1
    26    41    43    1
    27    15    19    2
    28    16    22    2
    29    17    12    1
    30    17    19   ar
    31    17    20   ar
    32    18    19   ar
    33    18    22   ar
    34    18    23    1
    35     9    10    1
    36     9    11    1
    37    10    12    1
    38    11     5    1
    39    33    34    1
    40    33    35    1
    41    34    36    1
    42    35    37    1
    43    36    42    1
    44    20    21   ar
    45    21    22   ar
@<TRIPOS>MOLECULE
*****
 43 45 0 0 0
SMALL
GASTEIGER

@<TRIPOS>ATOM
      1 P          19.3773   71.6977   -4.2708 P.3     1  UNL1        0.2189
      2 O          18.6944   70.7457   -3.1551 O.co2   1  UNL1       -0.4371
      3 O          18.9705   73.1406   -4.2075 O.2     1  UNL1       -0.5170
      4 O          19.0694   70.9415   -5.6677 O.3     1  UNL1       -0.3112
      5 C          17.7266   70.6101   -5.9754 C.3     1  UNL1        0.1811
      6 O          16.2058   71.3987   -7.6604 O.3     1  UNL1       -0.3308
      7 O          18.5638   71.4209   -9.5124 O.3     1  UNL1       -0.3794
      8 O          18.3178   74.0501   -8.8320 O.3     1  UNL1       -0.3779
      9 C          18.5062   71.7326   -8.1215 C.3     1  UNL1        0.1713
     10 C          17.8539   73.0832   -7.9119 C.3     1  UNL1        0.1895
     11 C          17.5018   70.7898   -7.4705 C.3     1  UNL1        0.1764
     12 C          16.3825   72.7551   -8.1006 C.3     1  UNL1        0.2383
     13 H          19.1993   72.0100   -9.9496 H       1  UNL1        0.2105
     14 H          19.2583   74.2245   -8.6713 H       1  UNL1        0.2106
     15 O          14.2682   74.2886   -9.1758 O.2     1  UNL1       -0.2464
     16 O          13.1675   76.0049   -5.0425 O.2     1  UNL1       -0.2670
     17 N          15.5270   73.6113   -7.3282 N.ar    1  UNL1       -0.2551
     18 N          13.7217   75.1418   -7.1168 N.ar    1  UNL1       -0.2743
     19 C          14.4951   74.3391   -7.9651 C.ar    1  UNL1        0.3323
     20 C          15.7152   73.7224   -5.9548 C.ar    1  UNL1        0.0869
     21 C          14.9699   74.4932   -5.1602 C.ar    1  UNL1        0.0795
     22 C          13.8705   75.2866   -5.7465 C.ar    1  UNL1        0.2626
     23 H          12.9971   75.6584   -7.5385 H       1  UNL1        0.1734
     24 O          20.9575   71.4341   -4.0555 O.3     1  UNL1       -0.2703
     25 P          21.7560   70.6795   -2.8698 P.3     1  UNL1        0.2208
     26 O          23.3022   70.7939   -3.3324 O.co2   1  UNL1       -0.4371
     27 O          21.2897   69.2764   -2.6098 O.2     1  UNL1       -0.5170
     28 O          21.6357   71.6702   -1.6013 O.3     1  UNL1       -0.2858
     29 O          23.2493   72.9853   -0.4684 O.3     1  UNL1       -0.3258
     30 O          21.0457   71.7021    2.7794 O.3     1  UNL1       -0.3794
     31 O          20.8425   74.4344    1.9183 O.3     1  UNL1       -0.3794
     32 O          21.5496   69.8978    0.5726 O.3     1  UNL1       -0.3775
     33 C          21.2494   72.1286    1.4296 C.3     1  UNL1        0.1715
     34 C          21.8479   73.5364    1.4567 C.3     1  UNL1        0.1694
     35 C          22.1992   71.1538    0.7361 C.3     1  UNL1        0.1967
     36 C          22.3407   73.9557    0.0651 C.3     1  UNL1        0.1761
     37 C          22.6676   71.6888   -0.6184 C.3     1  UNL1        0.2704
     38 H          20.4430   72.3166    3.2253 H       1  UNL1        0.2105
     39 H          20.5396   74.1581    2.7976 H       1  UNL1        0.2105
     40 H          21.2582   69.5697    1.4371 H       1  UNL1        0.2106
     41 O          24.3801   75.0696    0.6213 O.3     1  UNL1       -0.3794
     42 C          23.0827   75.2900    0.0992 C.3     1  UNL1        0.1693
     43 H          24.8641   75.9103    0.6486 H       1  UNL1        0.2105
@<TRIPOS>UNITY_ATOM_ATTR
2 1
charge -1
26 1
charge -1
@<TRIPOS>BOND
     1    25    28    1
     2    25    24    1
     3    25    26    1
     4    25    27    2
     5     1     4    1
     6     1    24    1
     7     1     2    1
     8     1     3    2
     9     6    11    1
    10     6    12    1
    11    29    36    1
    12    29    37    1
    13     7     9    1
    14     7    13    1
    15     8    10    1
    16     8    14    1
    17    28    37    1
    18     4     5    1
    19    30    33    1
    20    30    38    1
    21    31    34    1
    22    31    39    1
    23    32    35    1
    24    32    40    1
    25    41    42    1
    26    41    43    1
    27    15    19    2
    28    16    22    2
    29    17    12    1
    30    17    19   ar
    31    17    20   ar
    32    18    19   ar
    33    18    22   ar
    34    18    23    1
    35     9    10    1
    36     9    11    1
    37    10    12    1
    38    11     5    1
    39    33    34    1
    40    33    35    1
    41    34    36    1
    42    35    37    1
    43    36    42    1
    44    20    21   ar
    45    21    22   ar
@<TRIPOS>MOLECULE
*****
 43 45 0 0 0
SMALL
GASTEIGER

@<TRIPOS>ATOM
      1 P          21.8887   72.0129   -3.4827 P.3     1  UNL1        0.2189
      2 O          21.4116   73.4820   -3.9638 O.co2   1  UNL1       -0.4371
      3 O          23.3280   71.6918   -3.7596 O.2     1  UNL1       -0.5170
      4 O          20.8050   71.0145   -4.1509 O.3     1  UNL1       -0.3112
      5 C          19.8555   71.5537   -5.0540 C.3     1  UNL1        0.1811
      6 O          17.5921   72.3595   -5.0177 O.3     1  UNL1       -0.3308
      7 O          16.8406   69.6462   -3.9861 O.3     1  UNL1       -0.3794
      8 O          16.1667   69.4869   -6.6237 O.3     1  UNL1       -0.3779
      9 C          17.8409   70.0042   -4.9382 C.3     1  UNL1        0.1713
     10 C          17.2002   70.3787   -6.2584 C.3     1  UNL1        0.1895
     11 C          18.4568   71.3262   -4.4973 C.3     1  UNL1        0.1764
     12 C          16.6891   71.7808   -5.9741 C.3     1  UNL1        0.2383
     13 H          16.4331   68.8047   -4.2463 H       1  UNL1        0.2105
     14 H          16.5422   68.6090   -6.7942 H       1  UNL1        0.2106
     15 O          18.3980   71.4381   -8.1968 O.2     1  UNL1       -0.2464
     16 O          16.5087   74.9995  -10.4302 O.2     1  UNL1       -0.2670
     17 N          16.6652   72.6040   -7.1502 N.ar    1  UNL1       -0.2551
     18 N          17.4558   73.2115   -9.3071 N.ar    1  UNL1       -0.2743
     19 C          17.5667   72.3482   -8.2097 C.ar    1  UNL1        0.3323
     20 C          15.7550   73.6511   -7.2448 C.ar    1  UNL1        0.0869
     21 C          15.6629   74.4661   -8.2977 C.ar    1  UNL1        0.0795
     22 C          16.5686   74.2670   -9.4475 C.ar    1  UNL1        0.2626
     23 H          18.0739   73.0527  -10.0571 H       1  UNL1        0.1734
     24 O          21.4841   71.9936   -1.9179 O.3     1  UNL1       -0.2703
     25 P          21.3872   70.7740   -0.8614 P.3     1  UNL1        0.2208
     26 O          22.9204   70.2746   -0.7295 O.co2   1  UNL1       -0.4371
     27 O          20.4166   69.6973   -1.2520 O.2     1  UNL1       -0.5170
     28 O          21.0663   71.4829    0.5526 O.3     1  UNL1       -0.2858
     29 O          21.3204   73.7737    1.1044 O.3     1  UNL1       -0.3258
     30 O          22.1348   72.1116    4.7956 O.3     1  UNL1       -0.3794
     31 O          19.6489   73.4877    4.3775 O.3     1  UNL1       -0.3794
     32 O          23.0818   70.8144    2.3873 O.3     1  UNL1       -0.3775
     33 C          21.4833   72.2105    3.5263 C.3     1  UNL1        0.1715
     34 C          20.7450   73.5493    3.4691 C.3     1  UNL1        0.1694
     35 C          22.5323   72.1272    2.4190 C.3     1  UNL1        0.1967
     36 C          20.2459   73.8464    2.0487 C.3     1  UNL1        0.1761
     37 C          21.9429   72.4884    1.0543 C.3     1  UNL1        0.2704
     38 H          21.4742   72.1633    5.5031 H       1  UNL1        0.2105
     39 H          19.9777   73.2990    5.2705 H       1  UNL1        0.2105
     40 H          23.4518   70.5978    3.2568 H       1  UNL1        0.2106
     41 O          18.4142   75.2652    2.6326 O.3     1  UNL1       -0.3794
     42 C          19.6457   75.2460    1.9345 C.3     1  UNL1        0.1693
     43 H          18.0208   76.1500    2.5688 H       1  UNL1        0.2105
@<TRIPOS>UNITY_ATOM_ATTR
2 1
charge -1
26 1
charge -1
@<TRIPOS>BOND
     1    25    28    1
     2    25    24    1
     3    25    26    1
     4    25    27    2
     5     1     4    1
     6     1    24    1
     7     1     2    1
     8     1     3    2
     9     6    11    1
    10     6    12    1
    11    29    36    1
    12    29    37    1
    13     7     9    1
    14     7    13    1
    15     8    10    1
    16     8    14    1
    17    28    37    1
    18     4     5    1
    19    30    33    1
    20    30    38    1
    21    31    34    1
    22    31    39    1
    23    32    35    1
    24    32    40    1
    25    41    42    1
    26    41    43    1
    27    15    19    2
    28    16    22    2
    29    17    12    1
    30    17    19   ar
    31    17    20   ar
    32    18    19   ar
    33    18    22   ar
    34    18    23    1
    35     9    10    1
    36     9    11    1
    37    10    12    1
    38    11     5    1
    39    33    34    1
    40    33    35    1
    41    34    36    1
    42    35    37    1
    43    36    42    1
    44    20    21   ar
    45    21    22   ar
@<TRIPOS>MOLECULE
*****
 43 45 0 0 0
SMALL
GASTEIGER

@<TRIPOS>ATOM
      1 P          22.4123   73.3860   -4.0566 P.3     1  UNL1        0.2189
      2 O          21.5566   72.0151   -3.9807 O.co2   1  UNL1       -0.4371
      3 O          23.8948   73.2009   -4.1957 O.2     1  UNL1       -0.5170
      4 O          21.9271   74.2192   -2.7572 O.3     1  UNL1       -0.3112
      5 C          20.6921   74.9110   -2.8201 C.3     1  UNL1        0.1811
      6 O          20.0313   74.2583   -0.6040 O.3     1  UNL1       -0.3308
      7 O          20.9111   76.9912    0.2611 O.3     1  UNL1       -0.3794
      8 O          23.0124   75.4244    1.0134 O.3     1  UNL1       -0.3779
      9 C          21.4741   76.1339   -0.7306 C.3     1  UNL1        0.1713
     10 C          22.2220   74.9917   -0.0751 C.3     1  UNL1        0.1895
     11 C          20.3303   75.4071   -1.4269 C.3     1  UNL1        0.1764
     12 C          21.0872   74.0770    0.3536 C.3     1  UNL1        0.2383
     13 H          21.6226   77.4664    0.7191 H       1  UNL1        0.2105
     14 H          23.7201   76.0032    0.6893 H       1  UNL1        0.2106
     15 O          22.6710   72.8802    2.3629 O.2     1  UNL1       -0.2464
     16 O          22.5071   68.7638    0.2965 O.2     1  UNL1       -0.2670
     17 N          21.4732   72.6942    0.3659 N.ar    1  UNL1       -0.2551
     18 N          22.5879   70.8315    1.3325 N.ar    1  UNL1       -0.2743
     19 C          22.2711   72.1931    1.4208 C.ar    1  UNL1        0.3323
     20 C          21.0611   71.8505   -0.6598 C.ar    1  UNL1        0.0869
     21 C          21.3728   70.5547   -0.7300 C.ar    1  UNL1        0.0795
     22 C          22.2033   69.9522    0.3326 C.ar    1  UNL1        0.2626
     23 H          23.1433   70.4604    2.0561 H       1  UNL1        0.1734
     24 O          21.7161   74.1819   -5.2793 O.3     1  UNL1       -0.2703
     25 P          21.5466   73.7933   -6.8391 P.3     1  UNL1        0.2208
     26 O          22.7456   72.7365   -7.0907 O.co2   1  UNL1       -0.4371
     27 O          21.5531   74.9705   -7.7708 O.2     1  UNL1       -0.5170
     28 O          20.2010   72.9038   -6.8946 O.3     1  UNL1       -0.2858
     29 O          19.3719   70.7723   -6.2733 O.3     1  UNL1       -0.3258
     30 O          18.5365   70.6526  -10.3154 O.3     1  UNL1       -0.3794
     31 O          16.3901   70.9620   -8.4325 O.3     1  UNL1       -0.3794
     32 O          20.9895   71.8748   -9.3835 O.3     1  UNL1       -0.3775
     33 C          18.6849   71.2686   -9.0333 C.3     1  UNL1        0.1715
     34 C          17.7155   70.5929   -8.0615 C.3     1  UNL1        0.1694
     35 C          20.1272   71.0964   -8.5607 C.3     1  UNL1        0.1967
     36 C          18.0012   71.0119   -6.6130 C.3     1  UNL1        0.1761
     37 C          20.2922   71.4954   -7.0931 C.3     1  UNL1        0.2704
     38 H          17.6230   70.7588  -10.6215 H       1  UNL1        0.2105
     39 H          16.2227   70.6923   -9.3492 H       1  UNL1        0.2105
     40 H          20.8759   71.6125  -10.3099 H       1  UNL1        0.2106
     41 O          16.3843   69.2765   -6.3247 O.3     1  UNL1       -0.3794
     42 C          17.1508   70.2310   -5.6135 C.3     1  UNL1        0.1693
     43 H          15.8383   68.7717   -5.7012 H       1  UNL1        0.2105
@<TRIPOS>UNITY_ATOM_ATTR
2 1
charge -1
26 1
charge -1
@<TRIPOS>BOND
     1    25    28    1
     2    25    24    1
     3    25    26    1
     4    25    27    2
     5     1     4    1
     6     1    24    1
     7     1     2    1
     8     1     3    2
     9     6    11    1
    10     6    12    1
    11    29    36    1
    12    29    37    1
    13     7     9    1
    14     7    13    1
    15     8    10    1
    16     8    14    1
    17    28    37    1
    18     4     5    1
    19    30    33    1
    20    30    38    1
    21    31    34    1
    22    31    39    1
    23    32    35    1
    24    32    40    1
    25    41    42    1
    26    41    43    1
    27    15    19    2
    28    16    22    2
    29    17    12    1
    30    17    19   ar
    31    17    20   ar
    32    18    19   ar
    33    18    22   ar
    34    18    23    1
    35     9    10    1
    36     9    11    1
    37    10    12    1
    38    11     5    1
    39    33    34    1
    40    33    35    1
    41    34    36    1
    42    35    37    1
    43    36    42    1
    44    20    21   ar
    45    21    22   ar
@<TRIPOS>MOLECULE
*****
 43 45 0 0 0
SMALL
GASTEIGER

@<TRIPOS>ATOM
      1 P          19.2570   71.6225   -4.1331 P.3     1  UNL1        0.2189
      2 O          18.7422   70.0888   -4.1319 O.co2   1  UNL1       -0.4371
      3 O          18.5715   72.5218   -3.1468 O.2     1  UNL1       -0.5170
      4 O          19.1470   72.0680   -5.6846 O.3     1  UNL1       -0.3112
      5 C          18.7879   71.0900   -6.6450 C.3     1  UNL1        0.1811
      6 O          18.3209   71.7995   -8.8928 O.3     1  UNL1       -0.3308
      7 O          21.1921   72.6540   -9.0204 O.3     1  UNL1       -0.3794
      8 O          19.8896   75.0099   -8.5850 O.3     1  UNL1       -0.3779
      9 C          20.2838   72.7044   -7.9214 C.3     1  UNL1        0.1713
     10 C          19.2818   73.8227   -8.1183 C.3     1  UNL1        0.1895
     11 C          19.3970   71.4672   -7.9885 C.3     1  UNL1        0.1764
     12 C          18.3281   73.2161   -9.1335 C.3     1  UNL1        0.2383
     13 H          21.7694   73.4339   -8.9986 H       1  UNL1        0.2105
     14 H          20.4867   75.3570   -7.9039 H       1  UNL1        0.2106
     15 O          16.8674   74.4506  -11.2121 O.2     1  UNL1       -0.2464
     16 O          13.2038   75.1088   -8.4945 O.2     1  UNL1       -0.2670
     17 N          16.9903   73.7191   -8.9969 N.ar    1  UNL1       -0.2551
     18 N          15.0443   74.7772   -9.8573 N.ar    1  UNL1       -0.2743
     19 C          16.3464   74.3226  -10.1022 C.ar    1  UNL1        0.3323
     20 C          16.3305   73.6112   -7.7775 C.ar    1  UNL1        0.0869
     21 C          15.0893   74.0510   -7.5600 C.ar    1  UNL1        0.0795
     22 C          14.3463   74.6941   -8.6629 C.ar    1  UNL1        0.2626
     23 H          14.5762   75.2015  -10.6127 H       1  UNL1        0.1734
     24 O          20.8509   71.4711   -3.9107 O.3     1  UNL1       -0.2703
     25 P          21.6949   70.6514   -2.8022 P.3     1  UNL1        0.2208
     26 O          23.2281   70.8579   -3.2759 O.co2   1  UNL1       -0.4371
     27 O          21.2814   69.2161   -2.6515 O.2     1  UNL1       -0.5170
     28 O          21.5624   71.5307   -1.4553 O.3     1  UNL1       -0.2858
     29 O          23.2401   72.8885   -0.4763 O.3     1  UNL1       -0.3258
     30 O          21.2388   71.7403    2.9483 O.3     1  UNL1       -0.3794
     31 O          20.9806   74.4358    1.9913 O.3     1  UNL1       -0.3794
     32 O          21.6103   69.8476    0.7897 O.3     1  UNL1       -0.3775
     33 C          21.3599   72.1117    1.5725 C.3     1  UNL1        0.1715
     34 C          21.9573   73.5187    1.5063 C.3     1  UNL1        0.1694
     35 C          22.2671   71.1085    0.8626 C.3     1  UNL1        0.1967
     36 C          22.3644   73.8808    0.0717 C.3     1  UNL1        0.1761
     37 C          22.6519   71.5876   -0.5382 C.3     1  UNL1        0.2704
     38 H          20.6636   72.3731    3.4046 H       1  UNL1        0.2105
     39 H          20.7318   74.1957    2.8978 H       1  UNL1        0.2105
     40 H          21.3722   69.5551    1.6828 H       1  UNL1        0.2106
     41 O          23.9731   75.3012    1.1222 O.3     1  UNL1       -0.3794
     42 C          23.1055   75.2144    0.0068 C.3     1  UNL1        0.1693
     43 H          24.4517   76.1449    1.0939 H       1  UNL1        0.2105
@<TRIPOS>UNITY_ATOM_ATTR
2 1
charge -1
26 1
charge -1
@<TRIPOS>BOND
     1    25    28    1
     2    25    24    1
     3    25    26    1
     4    25    27    2
     5     1     4    1
     6     1    24    1
     7     1     2    1
     8     1     3    2
     9     6    11    1
    10     6    12    1
    11    29    36    1
    12    29    37    1
    13     7     9    1
    14     7    13    1
    15     8    10    1
    16     8    14    1
    17    28    37    1
    18     4     5    1
    19    30    33    1
    20    30    38    1
    21    31    34    1
    22    31    39    1
    23    32    35    1
    24    32    40    1
    25    41    42    1
    26    41    43    1
    27    15    19    2
    28    16    22    2
    29    17    12    1
    30    17    19   ar
    31    17    20   ar
    32    18    19   ar
    33    18    22   ar
    34    18    23    1
    35     9    10    1
    36     9    11    1
    37    10    12    1
    38    11     5    1
    39    33    34    1
    40    33    35    1
    41    34    36    1
    42    35    37    1
    43    36    42    1
    44    20    21   ar
    45    21    22   ar
@<TRIPOS>MOLECULE
*****
 43 45 0 0 0
SMALL
GASTEIGER

@<TRIPOS>ATOM
      1 P          21.3794   72.9924   -4.6238 P.3     1  UNL1        0.2189
      2 O          21.8949   73.9285   -3.4091 O.co2   1  UNL1       -0.4371
      3 O          22.3640   72.8036   -5.7402 O.2     1  UNL1       -0.5170
      4 O          19.9595   73.6458   -5.0421 O.3     1  UNL1       -0.3112
      5 C          18.7743   73.0941   -4.4958 C.3     1  UNL1        0.1811
      6 O          18.1792   73.7773   -6.7213 O.3     1  UNL1       -0.3308
      7 O          16.1927   71.5317   -6.6782 O.3     1  UNL1       -0.3794
      8 O          18.2454   70.4815   -8.1341 O.3     1  UNL1       -0.3779
      9 C          17.4977   71.5929   -6.1051 C.3     1  UNL1        0.1713
     10 C          18.5524   71.4836   -7.1864 C.3     1  UNL1        0.1895
     11 C          17.7174   73.0093   -5.5885 C.3     1  UNL1        0.1764
     12 C          18.5355   72.8797   -7.7853 C.3     1  UNL1        0.2383
     13 H          16.0292   70.6362   -7.0148 H       1  UNL1        0.2105
     14 H          18.2690   69.6121   -7.7048 H       1  UNL1        0.2106
     15 O          20.1518   71.2341   -9.4155 O.2     1  UNL1       -0.2464
     16 O          23.4235   74.4632   -9.7473 O.2     1  UNL1       -0.2670
     17 N          19.8142   73.2652   -8.3121 N.ar    1  UNL1       -0.2551
     18 N          21.7794   72.8433   -9.5795 N.ar    1  UNL1       -0.2743
     19 C          20.5462   72.3639   -9.1197 C.ar    1  UNL1        0.3323
     20 C          20.3300   74.5248   -8.0269 C.ar    1  UNL1        0.0869
     21 C          21.5082   74.9663   -8.4721 C.ar    1  UNL1        0.0795
     22 C          22.3356   74.0864   -9.3224 C.ar    1  UNL1        0.2626
     23 H          22.3071   72.2326  -10.1437 H       1  UNL1        0.1734
     24 O          20.9446   71.6288   -3.8725 O.3     1  UNL1       -0.2703
     25 P          21.7305   70.7118   -2.7981 P.3     1  UNL1        0.2208
     26 O          23.2824   70.8985   -3.2157 O.co2   1  UNL1       -0.4371
     27 O          21.2688   69.2840   -2.7532 O.2     1  UNL1       -0.5170
     28 O          21.5862   71.5057   -1.4003 O.3     1  UNL1       -0.2858
     29 O          23.2833   72.8372   -0.4187 O.3     1  UNL1       -0.3258
     30 O          21.2996   71.6650    3.0079 O.3     1  UNL1       -0.3794
     31 O          21.0571   74.3740    2.0855 O.3     1  UNL1       -0.3794
     32 O          21.6374   69.7954    0.8239 O.3     1  UNL1       -0.3775
     33 C          21.4129   72.0519    1.6358 C.3     1  UNL1        0.1715
     34 C          22.0219   73.4544    1.5817 C.3     1  UNL1        0.1694
     35 C          22.3057   71.0496    0.9066 C.3     1  UNL1        0.1967
     36 C          22.4206   73.8303    0.1482 C.3     1  UNL1        0.1761
     37 C          22.6834   71.5423   -0.4915 C.3     1  UNL1        0.2704
     38 H          20.7336   72.2971    3.4765 H       1  UNL1        0.2105
     39 H          20.8135   74.1251    2.9910 H       1  UNL1        0.2105
     40 H          21.4039   69.4942    1.7154 H       1  UNL1        0.2106
     41 O          23.1994   75.6044   -1.2500 O.3     1  UNL1       -0.3794
     42 C          23.1727   75.1583    0.0933 C.3     1  UNL1        0.1693
     43 H          23.6747   76.4489   -1.3002 H       1  UNL1        0.2105
@<TRIPOS>UNITY_ATOM_ATTR
2 1
charge -1
26 1
charge -1
@<TRIPOS>BOND
     1    25    28    1
     2    25    24    1
     3    25    26    1
     4    25    27    2
     5     1     4    1
     6     1    24    1
     7     1     2    1
     8     1     3    2
     9     6    11    1
    10     6    12    1
    11    29    36    1
    12    29    37    1
    13     7     9    1
    14     7    13    1
    15     8    10    1
    16     8    14    1
    17    28    37    1
    18     4     5    1
    19    30    33    1
    20    30    38    1
    21    31    34    1
    22    31    39    1
    23    32    35    1
    24    32    40    1
    25    41    42    1
    26    41    43    1
    27    15    19    2
    28    16    22    2
    29    17    12    1
    30    17    19   ar
    31    17    20   ar
    32    18    19   ar
    33    18    22   ar
    34    18    23    1
    35     9    10    1
    36     9    11    1
    37    10    12    1
    38    11     5    1
    39    33    34    1
    40    33    35    1
    41    34    36    1
    42    35    37    1
    43    36    42    1
    44    20    21   ar
    45    21    22   ar
