@<TRIPOS>MOLECULE
GDU
 43 45 0 0 0
SMALL
GASTEIGER

@<TRIPOS>ATOM
      1 P          20.9870   71.4740   -2.5239 P.3     1  UNL1        0.2189
      2 O          22.3657   70.9371   -2.5444 O.2     1  UNL1       -0.5170
      3 O          20.9305   72.8402   -3.3744 O.3     1  UNL1       -0.4371
      4 O          19.9818   70.3975   -3.1701 O.3     1  UNL1       -0.3112
      5 C          18.7926   70.4147   -2.3789 C.3     1  UNL1        0.1811
      6 C          17.1185   70.4559   -5.5606 C.3     1  UNL1        0.2383
      7 C          16.9881   68.9908   -5.0712 C.3     1  UNL1        0.1895
      8 O          15.7809   68.3973   -5.5545 O.3     1  UNL1       -0.3779
      9 C          16.9405   69.1657   -3.5309 C.3     1  UNL1        0.1713
     10 C          17.5725   70.5495   -3.2917 C.3     1  UNL1        0.1764
     11 O          17.9750   71.0663   -4.5720 O.3     1  UNL1       -0.3308
     12 O          15.5893   69.1384   -3.0666 O.3     1  UNL1       -0.3794
     13 H          15.7609   67.4911   -5.2164 H       1  UNL1        0.2106
     14 H          15.2313   68.2706   -3.2976 H       1  UNL1        0.2105
     15 N          17.7412   70.5063   -6.8844 N.ar    1  UNL1       -0.2551
     16 C          16.9708   70.4637   -7.9858 C.ar    1  UNL1        0.3323
     17 N          17.5180   70.5121   -9.2146 N.ar    1  UNL1       -0.2743
     18 C          18.8544   70.5944   -9.3612 C.ar    1  UNL1        0.2626
     19 C          19.6787   70.6343   -8.2100 C.ar    1  UNL1        0.0795
     20 C          19.1037   70.5886   -6.9895 C.ar    1  UNL1        0.0869
     21 O          15.7637   70.3899   -7.8694 O.2     1  UNL1       -0.2464
     22 O          19.3509   70.6334  -10.4732 O.2     1  UNL1       -0.2670
     23 H          16.9466   70.4845   -9.9985 H       1  UNL1        0.1734
     24 O          20.5508   71.7720   -1.0029 O.3     1  UNL1       -0.2703
     25 P          21.8158   71.4119   -0.0755 P.3     1  UNL1        0.2208
     26 O          21.5239   70.1883    0.7033 O.2     1  UNL1       -0.5170
     27 O          23.1075   71.1609   -1.0042 O.3     1  UNL1       -0.4371
     28 O          22.1093   72.6328    0.9312 O.3     1  UNL1       -0.2858
     29 C          22.6792   72.0683    2.1129 C.3     1  UNL1        0.2704
     30 C          21.8935   72.5459    3.3352 C.3     1  UNL1        0.1967
     31 C          21.9390   74.0760    3.3905 C.3     1  UNL1        0.1715
     32 C          23.4039   74.5248    3.3404 C.3     1  UNL1        0.1694
     33 C          24.0748   73.8982    2.1156 C.3     1  UNL1        0.1761
     34 O          20.5370   72.1093    3.2328 O.3     1  UNL1       -0.3775
     35 O          21.3363   74.5308    4.6039 O.3     1  UNL1       -0.3794
     36 O          24.0745   74.1006    4.5280 O.3     1  UNL1       -0.3794
     37 O          24.0409   72.4758    2.2232 O.3     1  UNL1       -0.3258
     38 H          20.5570   71.1434    3.1937 H       1  UNL1        0.2106
     39 H          20.4233   74.2166    4.5977 H       1  UNL1        0.2105
     40 H          23.6157   74.5136    5.2711 H       1  UNL1        0.2105
     41 C          25.5293   74.3676    2.0370 C.3     1  UNL1        0.1693
     42 O          26.3527   73.4963    2.8142 O.3     1  UNL1       -0.3794
     43 H          27.2589   73.8255    2.7377 H       1  UNL1        0.2105
@<TRIPOS>BOND
     1    15    16   ar
     2    15    20   ar
     3    15     6    1
     4    16    17   ar
     5    16    21    2
     6    17    18   ar
     7    17    23    1
     8    18    19   ar
     9    18    22    2
    10    19    20   ar
    11     6     7    1
    12     6    11    1
    13     7     8    1
    14     7     9    1
    15     8    13    1
    16     9    10    1
    17     9    12    1
    18    10    11    1
    19    10     5    1
    20    12    14    1
    21     5     4    1
    22     4     1    1
    23     1     2    2
    24     1     3    1
    25     1    24    1
    26    24    25    1
    27    25    26    2
    28    25    27    1
    29    25    28    1
    30    28    29    1
    31    29    30    1
    32    29    37    1
    33    30    31    1
    34    30    34    1
    35    31    32    1
    36    31    35    1
    37    32    33    1
    38    32    36    1
    39    33    41    1
    40    33    37    1
    41    41    42    1
    42    34    38    1
    43    35    39    1
    44    36    40    1
    45    42    43    1
@<TRIPOS>MOLECULE
GDU
 43 45 0 0 0
SMALL
GASTEIGER

@<TRIPOS>ATOM
      1 P          20.6566   71.9493   -1.9009 P.3     1  UNL1        0.2189
      2 O          21.4594   70.7458   -2.2116 O.2     1  UNL1       -0.5170
      3 O          20.7586   72.9926   -3.1232 O.3     1  UNL1       -0.4371
      4 O          19.1199   71.5279   -1.6819 O.3     1  UNL1       -0.3112
      5 C          18.9045   70.3384   -2.4429 C.3     1  UNL1        0.1811
      6 C          17.1564   70.4403   -5.5831 C.3     1  UNL1        0.2383
      7 C          16.9939   68.9781   -5.0946 C.3     1  UNL1        0.1895
      8 O          15.7582   68.4226   -5.5502 O.3     1  UNL1       -0.3779
      9 C          16.9886   69.1493   -3.5532 C.3     1  UNL1        0.1713
     10 C          17.6674   70.5127   -3.3257 C.3     1  UNL1        0.1764
     11 O          18.0543   71.0215   -4.6140 O.3     1  UNL1       -0.3308
     12 O          15.6488   69.1608   -3.0565 O.3     1  UNL1       -0.3794
     13 H          15.7192   67.5163   -5.2141 H       1  UNL1        0.2106
     14 H          15.2594   68.3048   -3.2810 H       1  UNL1        0.2105
     15 N          17.7483   70.4765   -6.9215 N.ar    1  UNL1       -0.2551
     16 C          16.9504   70.4735   -8.0039 C.ar    1  UNL1        0.3323
     17 N          17.4691   70.5098   -9.2454 N.ar    1  UNL1       -0.2743
     18 C          18.8037   70.5401   -9.4242 C.ar    1  UNL1        0.2626
     19 C          19.6567   70.5379   -8.2934 C.ar    1  UNL1        0.0795
     20 C          19.1100   70.5053   -7.0594 C.ar    1  UNL1        0.0869
     21 O          15.7445   70.4469   -7.8584 O.2     1  UNL1       -0.2464
     22 O          19.2743   70.5682  -10.5477 O.2     1  UNL1       -0.2670
     23 H          16.8782   70.5114  -10.0152 H       1  UNL1        0.1734
     24 O          21.2217   72.6388   -0.5601 O.3     1  UNL1       -0.2703
     25 P          22.1136   71.5315    0.1937 P.3     1  UNL1        0.2208
     26 O          21.2617   70.3791    0.5616 O.2     1  UNL1       -0.5170
     27 O          23.2929   71.0356   -0.7848 O.3     1  UNL1       -0.4371
     28 O          22.7551   72.1720    1.5235 O.3     1  UNL1       -0.2858
     29 C          22.4255   73.5616    1.5154 C.3     1  UNL1        0.2704
     30 C          23.6498   74.3728    1.0881 C.3     1  UNL1        0.1967
     31 C          24.7974   74.0948    2.0639 C.3     1  UNL1        0.1715
     32 C          24.3034   74.3618    3.4902 C.3     1  UNL1        0.1694
     33 C          23.0297   73.5492    3.7360 C.3     1  UNL1        0.1761
     34 O          24.0395   73.9916   -0.2325 O.3     1  UNL1       -0.3775
     35 O          25.8996   74.9545    1.7662 O.3     1  UNL1       -0.3794
     36 O          24.0254   75.7539    3.6469 O.3     1  UNL1       -0.3794
     37 O          22.0137   73.9582    2.8214 O.3     1  UNL1       -0.3258
     38 H          23.2865   74.1769   -0.8100 H       1  UNL1        0.2106
     39 H          26.1684   74.7610    0.8593 H       1  UNL1        0.2105
     40 H          24.8517   76.2251    3.4777 H       1  UNL1        0.2105
     41 C          22.5469   73.7820    5.1695 C.3     1  UNL1        0.1693
     42 O          22.3667   72.5234    5.8208 O.3     1  UNL1       -0.3794
     43 H          22.0636   72.7140    6.7192 H       1  UNL1        0.2105
@<TRIPOS>BOND
     1    15    16   ar
     2    15    20   ar
     3    15     6    1
     4    16    17   ar
     5    16    21    2
     6    17    18   ar
     7    17    23    1
     8    18    19   ar
     9    18    22    2
    10    19    20   ar
    11     6     7    1
    12     6    11    1
    13     7     8    1
    14     7     9    1
    15     8    13    1
    16     9    10    1
    17     9    12    1
    18    10    11    1
    19    10     5    1
    20    12    14    1
    21     5     4    1
    22     4     1    1
    23     1     2    2
    24     1     3    1
    25     1    24    1
    26    24    25    1
    27    25    26    2
    28    25    27    1
    29    25    28    1
    30    28    29    1
    31    29    30    1
    32    29    37    1
    33    30    31    1
    34    30    34    1
    35    31    32    1
    36    31    35    1
    37    32    33    1
    38    32    36    1
    39    33    41    1
    40    33    37    1
    41    41    42    1
    42    34    38    1
    43    35    39    1
    44    36    40    1
    45    42    43    1
@<TRIPOS>MOLECULE
GDU
 43 45 0 0 0
SMALL
GASTEIGER

@<TRIPOS>ATOM
      1 P          20.4745   71.4161   -3.0278 P.3     1  UNL1        0.2189
      2 O          20.5180   71.9128   -4.4209 O.2     1  UNL1       -0.5170
      3 O          20.4223   72.6661   -2.0139 O.3     1  UNL1       -0.4371
      4 O          19.1654   70.5043   -2.8233 O.3     1  UNL1       -0.3112
      5 C          18.0734   71.3948   -2.5885 C.3     1  UNL1        0.1811
      6 C          16.7454   70.5526   -5.8219 C.3     1  UNL1        0.2383
      7 C          16.9001   69.1907   -5.0980 C.3     1  UNL1        0.1895
      8 O          15.9083   68.2618   -5.5418 O.3     1  UNL1       -0.3779
      9 C          16.6670   69.5824   -3.6155 C.3     1  UNL1        0.1713
     10 C          16.9474   71.0962   -3.5799 C.3     1  UNL1        0.1764
     11 O          17.3448   71.4919   -4.9042 O.3     1  UNL1       -0.3308
     12 O          15.3182   69.3074   -3.2323 O.3     1  UNL1       -0.3794
     13 H          16.0594   67.4392   -5.0557 H       1  UNL1        0.2106
     14 H          15.1873   68.3547   -3.3320 H       1  UNL1        0.2105
     15 N          17.4650   70.5463   -7.0966 N.ar    1  UNL1       -0.2551
     16 C          16.7760   70.5618   -8.2514 C.ar    1  UNL1        0.3323
     17 N          17.4134   70.5600   -9.4369 N.ar    1  UNL1       -0.2743
     18 C          18.7592   70.5324   -9.4854 C.ar    1  UNL1        0.2626
     19 C          19.4979   70.5101   -8.2771 C.ar    1  UNL1        0.0795
     20 C          18.8336   70.5168   -7.1019 C.ar    1  UNL1        0.0869
     21 O          15.5617   70.5872   -8.2235 O.2     1  UNL1       -0.2464
     22 O          19.3369   70.5259  -10.5581 O.2     1  UNL1       -0.2670
     23 H          16.9003   70.5757  -10.2605 H       1  UNL1        0.1734
     24 O          21.7922   70.5400   -2.7300 O.3     1  UNL1       -0.2703
     25 P          22.9907   71.5784   -2.4555 P.3     1  UNL1        0.2208
     26 O          24.2859   70.9238   -2.7435 O.2     1  UNL1       -0.5170
     27 O          22.8157   72.8640   -3.4098 O.3     1  UNL1       -0.4371
     28 O          22.9552   72.0458   -0.9159 O.3     1  UNL1       -0.2858
     29 C          23.0787   70.8656   -0.1210 C.3     1  UNL1        0.2704
     30 C          21.8915   70.7716    0.8387 C.3     1  UNL1        0.1967
     31 C          21.8668   72.0206    1.7251 C.3     1  UNL1        0.1715
     32 C          23.2368   72.1730    2.3954 C.3     1  UNL1        0.1694
     33 C          24.3227   72.1628    1.3166 C.3     1  UNL1        0.1761
     34 O          20.6769   70.6894    0.0909 O.3     1  UNL1       -0.3775
     35 O          20.8539   71.8806    2.7237 O.3     1  UNL1       -0.3794
     36 O          23.4479   71.0904    3.3029 O.3     1  UNL1       -0.3794
     37 O          24.2963   70.9184    0.6189 O.3     1  UNL1       -0.3258
     38 H          20.7395   69.8948   -0.4565 H       1  UNL1        0.2106
     39 H          20.0145   71.7759    2.2582 H       1  UNL1        0.2105
     40 H          22.7399   71.1330    3.9588 H       1  UNL1        0.2105
     41 C          25.6927   72.3489    1.9725 C.3     1  UNL1        0.1693
     42 O          26.2479   71.0702    2.2850 O.3     1  UNL1       -0.3794
     43 H          27.1089   71.2315    2.6948 H       1  UNL1        0.2105
@<TRIPOS>BOND
     1    15    16   ar
     2    15    20   ar
     3    15     6    1
     4    16    17   ar
     5    16    21    2
     6    17    18   ar
     7    17    23    1
     8    18    19   ar
     9    18    22    2
    10    19    20   ar
    11     6     7    1
    12     6    11    1
    13     7     8    1
    14     7     9    1
    15     8    13    1
    16     9    10    1
    17     9    12    1
    18    10    11    1
    19    10     5    1
    20    12    14    1
    21     5     4    1
    22     4     1    1
    23     1     2    2
    24     1     3    1
    25     1    24    1
    26    24    25    1
    27    25    26    2
    28    25    27    1
    29    25    28    1
    30    28    29    1
    31    29    30    1
    32    29    37    1
    33    30    31    1
    34    30    34    1
    35    31    32    1
    36    31    35    1
    37    32    33    1
    38    32    36    1
    39    33    41    1
    40    33    37    1
    41    41    42    1
    42    34    38    1
    43    35    39    1
    44    36    40    1
    45    42    43    1
@<TRIPOS>MOLECULE
GDU
 43 45 0 0 0
SMALL
GASTEIGER

@<TRIPOS>ATOM
      1 P          20.6895   71.6775   -1.5493 P.3     1  UNL1        0.2189
      2 O          21.1752   73.0106   -1.1291 O.2     1  UNL1       -0.5170
      3 O          20.7902   70.6545   -0.3098 O.3     1  UNL1       -0.4371
      4 O          19.1585   71.7904   -2.0289 O.3     1  UNL1       -0.3112
      5 C          18.7562   70.4828   -2.4401 C.3     1  UNL1        0.1811
      6 C          17.0677   70.4627   -5.6143 C.3     1  UNL1        0.2383
      7 C          16.9658   69.0004   -5.1101 C.3     1  UNL1        0.1895
      8 O          15.7674   68.3806   -5.5821 O.3     1  UNL1       -0.3779
      9 C          16.9218   69.1896   -3.5714 C.3     1  UNL1        0.1713
     10 C          17.5299   70.5868   -3.3486 C.3     1  UNL1        0.1764
     11 O          17.9175   71.0981   -4.6357 O.3     1  UNL1       -0.3308
     12 O          15.5734   69.1426   -3.1007 O.3     1  UNL1       -0.3794
     13 H          15.7651   67.4776   -5.2351 H       1  UNL1        0.2106
     14 H          15.2300   68.2663   -3.3216 H       1  UNL1        0.2105
     15 N          17.6836   70.5113   -6.9414 N.ar    1  UNL1       -0.2551
     16 C          16.9077   70.4659   -8.0387 C.ar    1  UNL1        0.3323
     17 N          17.4485   70.5125   -9.2705 N.ar    1  UNL1       -0.2743
     18 C          18.7841   70.5960   -9.4240 C.ar    1  UNL1        0.2626
     19 C          19.6142   70.6389   -8.2771 C.ar    1  UNL1        0.0795
     20 C          19.0454   70.5949   -7.0536 C.ar    1  UNL1        0.0869
     21 O          15.7013   70.3910   -7.9161 O.2     1  UNL1       -0.2464
     22 O          19.2749   70.6334  -10.5385 O.2     1  UNL1       -0.2670
     23 H          16.8732   70.4829  -10.0514 H       1  UNL1        0.1734
     24 O          21.5956   71.1360   -2.7651 O.3     1  UNL1       -0.2703
     25 P          22.8048   72.1821   -2.9478 P.3     1  UNL1        0.2208
     26 O          23.1698   72.7487   -1.6307 O.2     1  UNL1       -0.5170
     27 O          24.0792   71.4243   -3.5771 O.3     1  UNL1       -0.4371
     28 O          22.3459   73.3676   -3.9346 O.3     1  UNL1       -0.2858
     29 C          21.4015   72.8059   -4.8470 C.3     1  UNL1        0.2704
     30 C          21.9282   72.9467   -6.2760 C.3     1  UNL1        0.1967
     31 C          22.1565   74.4307   -6.5793 C.3     1  UNL1        0.1715
     32 C          20.8619   75.1962   -6.2829 C.3     1  UNL1        0.1694
     33 C          20.4169   74.8861   -4.8515 C.3     1  UNL1        0.1761
     34 O          23.1606   72.2354   -6.4040 O.3     1  UNL1       -0.3775
     35 O          22.5076   74.5911   -7.9553 O.3     1  UNL1       -0.3794
     36 O          19.8465   74.7919   -7.2023 O.3     1  UNL1       -0.3794
     37 O          20.1566   73.4893   -4.7204 O.3     1  UNL1       -0.3258
     38 H          22.9713   71.3099   -6.1977 H       1  UNL1        0.2106
     39 H          23.3174   74.0851   -8.0983 H       1  UNL1        0.2105
     40 H          20.1717   75.0003   -8.0879 H       1  UNL1        0.2105
     41 C          19.1432   75.6726   -4.5336 C.3     1  UNL1        0.1693
     42 O          19.2312   76.2057   -3.2111 O.3     1  UNL1       -0.3794
     43 H          18.4116   76.6934   -3.0508 H       1  UNL1        0.2105
@<TRIPOS>BOND
     1    15    16   ar
     2    15    20   ar
     3    15     6    1
     4    16    17   ar
     5    16    21    2
     6    17    18   ar
     7    17    23    1
     8    18    19   ar
     9    18    22    2
    10    19    20   ar
    11     6     7    1
    12     6    11    1
    13     7     8    1
    14     7     9    1
    15     8    13    1
    16     9    10    1
    17     9    12    1
    18    10    11    1
    19    10     5    1
    20    12    14    1
    21     5     4    1
    22     4     1    1
    23     1     2    2
    24     1     3    1
    25     1    24    1
    26    24    25    1
    27    25    26    2
    28    25    27    1
    29    25    28    1
    30    28    29    1
    31    29    30    1
    32    29    37    1
    33    30    31    1
    34    30    34    1
    35    31    32    1
    36    31    35    1
    37    32    33    1
    38    32    36    1
    39    33    41    1
    40    33    37    1
    41    41    42    1
    42    34    38    1
    43    35    39    1
    44    36    40    1
    45    42    43    1
@<TRIPOS>MOLECULE
GDU
 43 45 0 0 0
SMALL
GASTEIGER

@<TRIPOS>ATOM
      1 P          22.7193   72.4811   -3.0058 P.3     1  UNL1        0.2189
      2 O          23.8303   72.9163   -2.1307 O.2     1  UNL1       -0.5170
      3 O          21.6443   73.6723   -3.1406 O.3     1  UNL1       -0.4371
      4 O          23.2954   72.1109   -4.4612 O.3     1  UNL1       -0.3112
      5 C          22.4879   72.8038   -5.4143 C.3     1  UNL1        0.1811
      6 C          19.7104   70.6847   -6.2641 C.3     1  UNL1        0.2383
      7 C          19.4279   72.0141   -7.0096 C.3     1  UNL1        0.1895
      8 O          18.7076   71.7763   -8.2212 O.3     1  UNL1       -0.3779
      9 C          20.8597   72.5291   -7.3094 C.3     1  UNL1        0.1713
     10 C          21.7444   71.7913   -6.2874 C.3     1  UNL1        0.1764
     11 O          20.8779   70.9850   -5.4704 O.3     1  UNL1       -0.3308
     12 O          21.2415   72.1947   -8.6452 O.3     1  UNL1       -0.3794
     13 H          18.5644   72.6391   -8.6344 H       1  UNL1        0.2106
     14 H          20.6161   72.6379   -9.2344 H       1  UNL1        0.2105
     15 N          18.5818   70.3227   -5.4050 N.ar    1  UNL1       -0.2551
     16 C          17.4669   69.8060   -5.9510 C.ar    1  UNL1        0.3323
     17 N          16.4164   69.4615   -5.1831 N.ar    1  UNL1       -0.2743
     18 C          16.4622   69.6394   -3.8488 C.ar    1  UNL1        0.2626
     19 C          17.6279   70.1880   -3.2603 C.ar    1  UNL1        0.0795
     20 C          18.6686   70.5208   -4.0532 C.ar    1  UNL1        0.0869
     21 O          17.4110   69.6393   -7.1532 O.2     1  UNL1       -0.2464
     22 O          15.5100   69.3323   -3.1534 O.2     1  UNL1       -0.2670
     23 H          15.6213   69.0860   -5.5937 H       1  UNL1        0.1734
     24 O          22.0072   71.1874   -2.3641 O.3     1  UNL1       -0.2703
     25 P          20.9636   71.7268   -1.2641 P.3     1  UNL1        0.2208
     26 O          20.0513   72.7092   -1.8899 O.2     1  UNL1       -0.5170
     27 O          20.1066   70.4914   -0.6866 O.3     1  UNL1       -0.4371
     28 O          21.7671   72.4302   -0.0601 O.3     1  UNL1       -0.2858
     29 C          21.4919   71.6742    1.1199 C.3     1  UNL1        0.2704
     30 C          21.0762   72.6218    2.2463 C.3     1  UNL1        0.1967
     31 C          22.2071   73.6240    2.4975 C.3     1  UNL1        0.1715
     32 C          23.5049   72.8466    2.7447 C.3     1  UNL1        0.1694
     33 C          23.7375   71.8827    1.5785 C.3     1  UNL1        0.1761
     34 O          19.8892   73.3218    1.8693 O.3     1  UNL1       -0.3775
     35 O          21.8967   74.4211    3.6424 O.3     1  UNL1       -0.3794
     36 O          23.3966   72.1113    3.9643 O.3     1  UNL1       -0.3794
     37 O          22.6596   70.9509    1.5019 O.3     1  UNL1       -0.3258
     38 H          19.2082   72.6531    1.7146 H       1  UNL1        0.2106
     39 H          21.0703   74.8809    3.4475 H       1  UNL1        0.2105
     40 H          23.2454   72.7563    4.6675 H       1  UNL1        0.2105
     41 C          25.0492   71.1257    1.7987 C.3     1  UNL1        0.1693
     42 O          24.7849   69.9114    2.5032 O.3     1  UNL1       -0.3794
     43 H          25.6349   69.4652    2.6207 H       1  UNL1        0.2105
@<TRIPOS>BOND
     1    15    16   ar
     2    15    20   ar
     3    15     6    1
     4    16    17   ar
     5    16    21    2
     6    17    18   ar
     7    17    23    1
     8    18    19   ar
     9    18    22    2
    10    19    20   ar
    11     6     7    1
    12     6    11    1
    13     7     8    1
    14     7     9    1
    15     8    13    1
    16     9    10    1
    17     9    12    1
    18    10    11    1
    19    10     5    1
    20    12    14    1
    21     5     4    1
    22     4     1    1
    23     1     2    2
    24     1     3    1
    25     1    24    1
    26    24    25    1
    27    25    26    2
    28    25    27    1
    29    25    28    1
    30    28    29    1
    31    29    30    1
    32    29    37    1
    33    30    31    1
    34    30    34    1
    35    31    32    1
    36    31    35    1
    37    32    33    1
    38    32    36    1
    39    33    41    1
    40    33    37    1
    41    41    42    1
    42    34    38    1
    43    35    39    1
    44    36    40    1
    45    42    43    1
@<TRIPOS>MOLECULE
GDU
 43 45 0 0 0
SMALL
GASTEIGER

@<TRIPOS>ATOM
      1 P          23.4899   72.1080   -3.4228 P.3     1  UNL1        0.2189
      2 O          24.2971   73.0362   -4.2452 O.2     1  UNL1       -0.5170
      3 O          24.4039   70.8642   -2.9640 O.3     1  UNL1       -0.4371
      4 O          22.9425   72.8801   -2.1224 O.3     1  UNL1       -0.3112
      5 C          22.0690   71.9773   -1.4423 C.3     1  UNL1        0.1811
      6 C          23.5360   72.6207    1.7766 C.3     1  UNL1        0.2383
      7 C          23.4201   74.0180    1.1155 C.3     1  UNL1        0.1895
      8 O          23.2206   75.0336    2.1014 O.3     1  UNL1       -0.3779
      9 C          22.1592   73.8537    0.2276 C.3     1  UNL1        0.1713
     10 C          22.0255   72.3304    0.0455 C.3     1  UNL1        0.1764
     11 O          23.1339   71.7164    0.7258 O.3     1  UNL1       -0.3308
     12 O          21.0101   74.3881    0.8879 O.3     1  UNL1       -0.3794
     13 H          23.1572   75.8742    1.6269 H       1  UNL1        0.2106
     14 H          21.1792   75.3299    1.0260 H       1  UNL1        0.2105
     15 N          24.9159   72.3544    2.1862 N.ar    1  UNL1       -0.2551
     16 C          25.3979   71.1002    2.1304 C.ar    1  UNL1        0.3323
     17 N          26.6641   70.8290    2.4978 N.ar    1  UNL1       -0.2743
     18 C          27.4699   71.8139    2.9392 C.ar    1  UNL1        0.2626
     19 C          26.9740   73.1389    3.0088 C.ar    1  UNL1        0.0795
     20 C          25.7016   73.3839    2.6301 C.ar    1  UNL1        0.0869
     21 O          24.6830   70.2014    1.7339 O.2     1  UNL1       -0.2464
     22 O          28.6146   71.5686    3.2765 O.2     1  UNL1       -0.2670
     23 H          26.9967   69.9187    2.4470 H       1  UNL1        0.1734
     24 O          22.2461   71.5668   -4.2904 O.3     1  UNL1       -0.2703
     25 P          21.9310   72.6863   -5.4028 P.3     1  UNL1        0.2208
     26 O          21.9796   74.0276   -4.7801 O.2     1  UNL1       -0.5170
     27 O          23.0303   72.6002   -6.5769 O.3     1  UNL1       -0.4371
     28 O          20.4667   72.4331   -6.0208 O.3     1  UNL1       -0.2858
     29 C          20.4231   71.0682   -6.4389 C.3     1  UNL1        0.2704
     30 C          19.9905   70.9982   -7.9042 C.3     1  UNL1        0.1967
     31 C          18.6131   71.6525   -8.0493 C.3     1  UNL1        0.1715
     32 C          17.6511   70.9955   -7.0530 C.3     1  UNL1        0.1694
     33 C          18.2608   71.0677   -5.6508 C.3     1  UNL1        0.1761
     34 O          20.9393   71.6912   -8.7171 O.3     1  UNL1       -0.3775
     35 O          18.1304   71.4652   -9.3813 O.3     1  UNL1       -0.3794
     36 O          17.4427   69.6308   -7.4191 O.3     1  UNL1       -0.3794
     37 O          19.4957   70.3533   -5.6256 O.3     1  UNL1       -0.3258
     38 H          21.7905   71.2509   -8.5892 H       1  UNL1        0.2106
     39 H          18.7702   71.8822   -9.9721 H       1  UNL1        0.2105
     40 H          17.0644   69.6341   -8.3080 H       1  UNL1        0.2105
     41 C          17.2924   70.4447   -4.6428 C.3     1  UNL1        0.1693
     42 O          15.9876   70.9936   -4.8353 O.3     1  UNL1       -0.3794
     43 H          15.4090   70.5755   -4.1828 H       1  UNL1        0.2105
@<TRIPOS>BOND
     1    15    16   ar
     2    15    20   ar
     3    15     6    1
     4    16    17   ar
     5    16    21    2
     6    17    18   ar
     7    17    23    1
     8    18    19   ar
     9    18    22    2
    10    19    20   ar
    11     6     7    1
    12     6    11    1
    13     7     8    1
    14     7     9    1
    15     8    13    1
    16     9    10    1
    17     9    12    1
    18    10    11    1
    19    10     5    1
    20    12    14    1
    21     5     4    1
    22     4     1    1
    23     1     2    2
    24     1     3    1
    25     1    24    1
    26    24    25    1
    27    25    26    2
    28    25    27    1
    29    25    28    1
    30    28    29    1
    31    29    30    1
    32    29    37    1
    33    30    31    1
    34    30    34    1
    35    31    32    1
    36    31    35    1
    37    32    33    1
    38    32    36    1
    39    33    41    1
    40    33    37    1
    41    41    42    1
    42    34    38    1
    43    35    39    1
    44    36    40    1
    45    42    43    1
@<TRIPOS>MOLECULE
GDU
 43 45 0 0 0
SMALL
GASTEIGER

@<TRIPOS>ATOM
      1 P          23.0219   71.6758   -2.2099 P.3     1  UNL1        0.2189
      2 O          22.7056   70.9591   -0.9545 O.2     1  UNL1       -0.5170
      3 O          24.1892   70.8927   -2.9953 O.3     1  UNL1       -0.4371
      4 O          21.7073   71.7464   -3.1338 O.3     1  UNL1       -0.3112
      5 C          20.8394   70.6983   -2.6993 C.3     1  UNL1        0.1811
      6 C          18.2000   70.7911   -5.1391 C.3     1  UNL1        0.2383
      7 C          18.0306   69.4208   -4.4345 C.3     1  UNL1        0.1895
      8 O          16.6572   69.0251   -4.4124 O.3     1  UNL1       -0.3779
      9 C          18.5412   69.7265   -3.0024 C.3     1  UNL1        0.1713
     10 C          19.4142   70.9831   -3.1766 C.3     1  UNL1        0.1764
     11 O          19.4242   71.3098   -4.5771 O.3     1  UNL1       -0.3308
     12 O          17.4436   69.9892   -2.1260 O.3     1  UNL1       -0.3794
     13 H          16.6208   68.1692   -3.9631 H       1  UNL1        0.2106
     14 H          16.9039   69.1873   -2.1049 H       1  UNL1        0.2105
     15 N          18.3303   70.6167   -6.5866 N.ar    1  UNL1       -0.2551
     16 C          17.2394   70.6971   -7.3689 C.ar    1  UNL1        0.3323
     17 N          17.3324   70.5440   -8.7029 N.ar    1  UNL1       -0.2743
     18 C          18.5252   70.2966   -9.2775 C.ar    1  UNL1        0.2626
     19 C          19.6819   70.2035   -8.4654 C.ar    1  UNL1        0.0795
     20 C          19.5611   70.3653   -7.1306 C.ar    1  UNL1        0.0869
     21 O          16.1567   70.9203   -6.8649 O.2     1  UNL1       -0.2464
     22 O          18.6096   70.1532  -10.4845 O.2     1  UNL1       -0.2670
     23 H          16.5353   70.6095   -9.2527 H       1  UNL1        0.1734
     24 O          23.5173   73.1683   -1.8644 O.3     1  UNL1       -0.2703
     25 P          23.8518   73.8851   -3.2659 P.3     1  UNL1        0.2208
     26 O          24.9263   74.8823   -3.0656 O.2     1  UNL1       -0.5170
     27 O          24.3383   72.7794   -4.3312 O.3     1  UNL1       -0.4371
     28 O          22.5327   74.6205   -3.8221 O.3     1  UNL1       -0.2858
     29 C          22.9482   75.4567   -4.9027 C.3     1  UNL1        0.2704
     30 C          21.9182   76.5679   -5.1119 C.3     1  UNL1        0.1967
     31 C          20.5557   75.9349   -5.4108 C.3     1  UNL1        0.1715
     32 C          20.7141   74.9628   -6.5853 C.3     1  UNL1        0.1694
     33 C          21.8350   73.9714   -6.2632 C.3     1  UNL1        0.1761
     34 O          21.8282   77.3656   -3.9300 O.3     1  UNL1       -0.3775
     35 O          19.6166   76.9564   -5.7531 O.3     1  UNL1       -0.3794
     36 O          21.0406   75.6926   -7.7689 O.3     1  UNL1       -0.3794
     37 O          23.0642   74.6746   -6.0891 O.3     1  UNL1       -0.3258
     38 H          22.7075   77.7373   -3.7766 H       1  UNL1        0.2106
     39 H          19.5581   77.5489   -4.9930 H       1  UNL1        0.2105
     40 H          20.3120   76.3064   -7.9292 H       1  UNL1        0.2105
     41 C          21.9784   72.9744   -7.4154 C.3     1  UNL1        0.1693
     42 O          23.0635   72.0860   -7.1432 O.3     1  UNL1       -0.3794
     43 H          23.1195   71.4752   -7.8908 H       1  UNL1        0.2105
@<TRIPOS>BOND
     1    15    16   ar
     2    15    20   ar
     3    15     6    1
     4    16    17   ar
     5    16    21    2
     6    17    18   ar
     7    17    23    1
     8    18    19   ar
     9    18    22    2
    10    19    20   ar
    11     6     7    1
    12     6    11    1
    13     7     8    1
    14     7     9    1
    15     8    13    1
    16     9    10    1
    17     9    12    1
    18    10    11    1
    19    10     5    1
    20    12    14    1
    21     5     4    1
    22     4     1    1
    23     1     2    2
    24     1     3    1
    25     1    24    1
    26    24    25    1
    27    25    26    2
    28    25    27    1
    29    25    28    1
    30    28    29    1
    31    29    30    1
    32    29    37    1
    33    30    31    1
    34    30    34    1
    35    31    32    1
    36    31    35    1
    37    32    33    1
    38    32    36    1
    39    33    41    1
    40    33    37    1
    41    41    42    1
    42    34    38    1
    43    35    39    1
    44    36    40    1
    45    42    43    1
@<TRIPOS>MOLECULE
GDU
 43 45 0 0 0
SMALL
GASTEIGER

@<TRIPOS>ATOM
      1 P          20.4688   71.0829   -1.6653 P.3     1  UNL1        0.2189
      2 O          20.4602   72.5612   -1.7290 O.2     1  UNL1       -0.5170
      3 O          20.7328   70.6127   -0.1481 O.3     1  UNL1       -0.4371
      4 O          19.0486   70.5157   -2.1635 O.3     1  UNL1       -0.3112
      5 C          18.2604   71.6461   -2.5396 C.3     1  UNL1        0.1811
      6 C          16.9208   70.5488   -5.6906 C.3     1  UNL1        0.2383
      7 C          17.2343   69.2387   -4.9236 C.3     1  UNL1        0.1895
      8 O          16.3270   68.1994   -5.2976 O.3     1  UNL1       -0.3779
      9 C          17.0107   69.6640   -3.4491 C.3     1  UNL1        0.1713
     10 C          17.1388   71.1984   -3.4786 C.3     1  UNL1        0.1764
     11 O          17.4521   71.5785   -4.8298 O.3     1  UNL1       -0.3308
     12 O          15.7091   69.2724   -3.0080 O.3     1  UNL1       -0.3794
     13 H          16.5752   67.4157   -4.7876 H       1  UNL1        0.2106
     14 H          15.6713   68.3083   -3.0683 H       1  UNL1        0.2105
     15 N          17.5963   70.5630   -6.9892 N.ar    1  UNL1       -0.2551
     16 C          16.8698   70.5064   -8.1194 C.ar    1  UNL1        0.3323
     17 N          17.4660   70.5215   -9.3262 N.ar    1  UNL1       -0.2743
     18 C          18.8081   70.5840   -9.4208 C.ar    1  UNL1        0.2626
     19 C          19.5865   70.6383   -8.2387 C.ar    1  UNL1        0.0795
     20 C          18.9628   70.6260   -7.0415 C.ar    1  UNL1        0.0869
     21 O          15.6582   70.4502   -8.0499 O.2     1  UNL1       -0.2464
     22 O          19.3489   70.5928  -10.5126 O.2     1  UNL1       -0.2670
     23 H          16.9258   70.4843  -10.1315 H       1  UNL1        0.1734
     24 O          21.6384   70.5126   -2.6136 O.3     1  UNL1       -0.2703
     25 P          22.9249   71.4519   -2.3840 P.3     1  UNL1        0.2208
     26 O          23.1167   71.6796   -0.9347 O.2     1  UNL1       -0.5170
     27 O          24.2308   70.7305   -2.9909 O.3     1  UNL1       -0.4371
     28 O          22.6997   72.8628   -3.1247 O.3     1  UNL1       -0.2858
     29 C          23.8709   73.1148   -3.9023 C.3     1  UNL1        0.2704
     30 C          24.3124   74.5655   -3.7023 C.3     1  UNL1        0.1967
     31 C          23.1718   75.4965   -4.1250 C.3     1  UNL1        0.1715
     32 C          22.7475   75.1348   -5.5529 C.3     1  UNL1        0.1694
     33 C          22.4226   73.6401   -5.6120 C.3     1  UNL1        0.1761
     34 O          24.6262   74.7849   -2.3259 O.3     1  UNL1       -0.3775
     35 O          23.6192   76.8532   -4.0837 O.3     1  UNL1       -0.3794
     36 O          23.8116   75.4334   -6.4577 O.3     1  UNL1       -0.3794
     37 O          23.5843   72.8814   -5.2792 O.3     1  UNL1       -0.3258
     38 H          25.3418   74.1744   -2.1022 H       1  UNL1        0.2106
     39 H          23.8862   77.0323   -3.1732 H       1  UNL1        0.2105
     40 H          23.9853   76.3808   -6.3825 H       1  UNL1        0.2105
     41 C          21.9646   73.2750   -7.0258 C.3     1  UNL1        0.1693
     42 O          23.1065   73.1198   -7.8702 O.3     1  UNL1       -0.3794
     43 H          22.7754   72.8899   -8.7493 H       1  UNL1        0.2105
@<TRIPOS>BOND
     1    15    16   ar
     2    15    20   ar
     3    15     6    1
     4    16    17   ar
     5    16    21    2
     6    17    18   ar
     7    17    23    1
     8    18    19   ar
     9    18    22    2
    10    19    20   ar
    11     6     7    1
    12     6    11    1
    13     7     8    1
    14     7     9    1
    15     8    13    1
    16     9    10    1
    17     9    12    1
    18    10    11    1
    19    10     5    1
    20    12    14    1
    21     5     4    1
    22     4     1    1
    23     1     2    2
    24     1     3    1
    25     1    24    1
    26    24    25    1
    27    25    26    2
    28    25    27    1
    29    25    28    1
    30    28    29    1
    31    29    30    1
    32    29    37    1
    33    30    31    1
    34    30    34    1
    35    31    32    1
    36    31    35    1
    37    32    33    1
    38    32    36    1
    39    33    41    1
    40    33    37    1
    41    41    42    1
    42    34    38    1
    43    35    39    1
    44    36    40    1
    45    42    43    1
@<TRIPOS>MOLECULE
GDU
 43 45 0 0 0
SMALL
GASTEIGER

@<TRIPOS>ATOM
      1 P          21.0090   71.2500   -2.8107 P.3     1  UNL1        0.2189
      2 O          22.3270   70.6618   -3.1370 O.2     1  UNL1       -0.5170
      3 O          20.7931   72.5936   -3.6716 O.3     1  UNL1       -0.4371
      4 O          19.8478   70.1944   -3.1631 O.3     1  UNL1       -0.3112
      5 C          18.6990   70.5743   -2.4039 C.3     1  UNL1        0.1811
      6 C          17.0381   70.4872   -5.5915 C.3     1  UNL1        0.2383
      7 C          16.9525   69.0306   -5.0683 C.3     1  UNL1        0.1895
      8 O          15.7670   68.3875   -5.5417 O.3     1  UNL1       -0.3779
      9 C          16.8927   69.2400   -3.5327 C.3     1  UNL1        0.1713
     10 C          17.4791   70.6485   -3.3240 C.3     1  UNL1        0.1764
     11 O          17.8704   71.1478   -4.6146 O.3     1  UNL1       -0.3308
     12 O          15.5411   69.1802   -3.0727 O.3     1  UNL1       -0.3794
     13 H          15.7745   67.4893   -5.1824 H       1  UNL1        0.2106
     14 H          15.2120   68.2962   -3.2844 H       1  UNL1        0.2105
     15 N          17.6646   70.5266   -6.9140 N.ar    1  UNL1       -0.2551
     16 C          16.8976   70.4716   -8.0171 C.ar    1  UNL1        0.3323
     17 N          17.4482   70.5096   -9.2448 N.ar    1  UNL1       -0.2743
     18 C          18.7848   70.5938   -9.3882 C.ar    1  UNL1        0.2626
     19 C          19.6056   70.6467   -8.2351 C.ar    1  UNL1        0.0795
     20 C          19.0271   70.6112   -7.0159 C.ar    1  UNL1        0.0869
     21 O          15.6903   70.3960   -7.9036 O.2     1  UNL1       -0.2464
     22 O          19.2845   70.6235  -10.4991 O.2     1  UNL1       -0.2670
     23 H          16.8792   70.4733  -10.0301 H       1  UNL1        0.1734
     24 O          20.9548   71.6053   -1.2412 O.3     1  UNL1       -0.2703
     25 P          21.5892   73.0748   -1.0733 P.3     1  UNL1        0.2208
     26 O          22.7470   73.2189   -1.9831 O.2     1  UNL1       -0.5170
     27 O          20.4791   74.1832   -1.4386 O.3     1  UNL1       -0.4371
     28 O          22.0718   73.2816    0.4480 O.3     1  UNL1       -0.2858
     29 C          21.4280   72.2734    1.2282 C.3     1  UNL1        0.2704
     30 C          20.7424   72.9215    2.4320 C.3     1  UNL1        0.1967
     31 C          21.7932   73.6617    3.2654 C.3     1  UNL1        0.1715
     32 C          22.9246   72.6854    3.6066 C.3     1  UNL1        0.1694
     33 C          23.4464   72.0562    2.3125 C.3     1  UNL1        0.1761
     34 O          19.7515   73.8454    1.9784 O.3     1  UNL1       -0.3775
     35 O          21.1958   74.1478    4.4693 O.3     1  UNL1       -0.3794
     36 O          22.4294   71.6645    4.4741 O.3     1  UNL1       -0.3794
     37 O          22.3980   71.3285    1.6743 O.3     1  UNL1       -0.3258
     38 H          19.1168   73.3385    1.4539 H       1  UNL1        0.2106
     39 H          20.4848   74.7462    4.2071 H       1  UNL1        0.2105
     40 H          22.1072   72.1061    5.2707 H       1  UNL1        0.2105
     41 C          24.5999   71.1050    2.6388 C.3     1  UNL1        0.1693
     42 O          24.6270   70.0445    1.6819 O.3     1  UNL1       -0.3794
     43 H          25.3665   69.4695    1.9222 H       1  UNL1        0.2105
@<TRIPOS>BOND
     1    15    16   ar
     2    15    20   ar
     3    15     6    1
     4    16    17   ar
     5    16    21    2
     6    17    18   ar
     7    17    23    1
     8    18    19   ar
     9    18    22    2
    10    19    20   ar
    11     6     7    1
    12     6    11    1
    13     7     8    1
    14     7     9    1
    15     8    13    1
    16     9    10    1
    17     9    12    1
    18    10    11    1
    19    10     5    1
    20    12    14    1
    21     5     4    1
    22     4     1    1
    23     1     2    2
    24     1     3    1
    25     1    24    1
    26    24    25    1
    27    25    26    2
    28    25    27    1
    29    25    28    1
    30    28    29    1
    31    29    30    1
    32    29    37    1
    33    30    31    1
    34    30    34    1
    35    31    32    1
    36    31    35    1
    37    32    33    1
    38    32    36    1
    39    33    41    1
    40    33    37    1
    41    41    42    1
    42    34    38    1
    43    35    39    1
    44    36    40    1
    45    42    43    1
@<TRIPOS>MOLECULE
GDU
 43 45 0 0 0
SMALL
GASTEIGER

@<TRIPOS>ATOM
      1 P          23.1829   73.2728   -3.8463 P.3     1  UNL1        0.2189
      2 O          24.1962   72.2221   -4.0884 O.2     1  UNL1       -0.5170
      3 O          23.8024   74.4037   -2.8818 O.3     1  UNL1       -0.4371
      4 O          22.7538   73.9379   -5.2464 O.3     1  UNL1       -0.3112
      5 C          22.7546   72.8917   -6.2190 C.3     1  UNL1        0.1811
      6 C          19.3589   72.2641   -7.2202 C.3     1  UNL1        0.2383
      7 C          19.2817   73.5603   -6.3736 C.3     1  UNL1        0.1895
      8 O          18.2187   74.4021   -6.8257 O.3     1  UNL1       -0.3779
      9 C          20.6607   74.2129   -6.6521 C.3     1  UNL1        0.1713
     10 C          21.5381   73.0426   -7.1341 C.3     1  UNL1        0.1764
     11 O          20.7348   71.8511   -7.0792 O.3     1  UNL1       -0.3308
     12 O          20.5449   75.2114   -7.6677 O.3     1  UNL1       -0.3794
     13 H          18.2248   75.1870   -6.2603 H       1  UNL1        0.2106
     14 H          19.9386   75.8848   -7.3306 H       1  UNL1        0.2105
     15 N          18.4564   71.2424   -6.6867 N.ar    1  UNL1       -0.2551
     16 C          18.6843   70.7222   -5.4678 C.ar    1  UNL1        0.3323
     17 N          17.8678   69.7842   -4.9527 N.ar    1  UNL1       -0.2743
     18 C          16.8091   69.3423   -5.6585 C.ar    1  UNL1        0.2626
     19 C          16.5601   69.8771   -6.9462 C.ar    1  UNL1        0.0795
     20 C          17.3923   70.8198   -7.4372 C.ar    1  UNL1        0.0869
     21 O          19.6350   71.1112   -4.8191 O.2     1  UNL1       -0.2464
     22 O          16.0722   68.4898   -5.1950 O.2     1  UNL1       -0.2670
     23 H          18.0448   69.4228   -4.0696 H       1  UNL1        0.1734
     24 O          21.8906   72.6188   -3.1430 O.3     1  UNL1       -0.2703
     25 P          22.4331   71.5209   -2.0989 P.3     1  UNL1        0.2208
     26 O          21.4295   70.4440   -1.9498 O.2     1  UNL1       -0.5170
     27 O          23.8128   70.8958   -2.6463 O.3     1  UNL1       -0.4371
     28 O          22.6902   72.2175   -0.6711 O.3     1  UNL1       -0.2858
     29 C          22.1545   71.3408    0.3209 C.3     1  UNL1        0.2704
     30 C          21.2623   72.1362    1.2752 C.3     1  UNL1        0.1967
     31 C          22.0934   73.2461    1.9262 C.3     1  UNL1        0.1715
     32 C          23.3354   72.6165    2.5669 C.3     1  UNL1        0.1694
     33 C          24.0720   71.7857    1.5133 C.3     1  UNL1        0.1761
     34 O          20.1772   72.7134    0.5466 O.3     1  UNL1       -0.3775
     35 O          21.3148   73.9042    2.9278 O.3     1  UNL1       -0.3794
     36 O          22.9397   71.7776    3.6530 O.3     1  UNL1       -0.3794
     37 O          23.2232   70.7379    1.0469 O.3     1  UNL1       -0.3258
     38 H          19.6872   71.9808    0.1490 H       1  UNL1        0.2106
     39 H          20.5412   74.2733    2.4833 H       1  UNL1        0.2105
     40 H          22.4762   72.3403    4.2869 H       1  UNL1        0.2105
     41 C          25.3331   71.1802    2.1339 C.3     1  UNL1        0.1693
     42 O          25.0225   69.9012    2.6895 O.3     1  UNL1       -0.3794
     43 H          25.8418   69.5544    3.0688 H       1  UNL1        0.2105
@<TRIPOS>BOND
     1    15    16   ar
     2    15    20   ar
     3    15     6    1
     4    16    17   ar
     5    16    21    2
     6    17    18   ar
     7    17    23    1
     8    18    19   ar
     9    18    22    2
    10    19    20   ar
    11     6     7    1
    12     6    11    1
    13     7     8    1
    14     7     9    1
    15     8    13    1
    16     9    10    1
    17     9    12    1
    18    10    11    1
    19    10     5    1
    20    12    14    1
    21     5     4    1
    22     4     1    1
    23     1     2    2
    24     1     3    1
    25     1    24    1
    26    24    25    1
    27    25    26    2
    28    25    27    1
    29    25    28    1
    30    28    29    1
    31    29    30    1
    32    29    37    1
    33    30    31    1
    34    30    34    1
    35    31    32    1
    36    31    35    1
    37    32    33    1
    38    32    36    1
    39    33    41    1
    40    33    37    1
    41    41    42    1
    42    34    38    1
    43    35    39    1
    44    36    40    1
    45    42    43    1
@<TRIPOS>MOLECULE
GDU
 43 45 0 0 0
SMALL
GASTEIGER

@<TRIPOS>ATOM
      1 P          15.8039   72.3058   -2.2512 P.3     1  UNL1        0.2189
      2 O          15.3207   72.8668   -3.5323 O.2     1  UNL1       -0.5170
      3 O          16.5352   73.4615   -1.4012 O.3     1  UNL1       -0.4371
      4 O          14.5578   71.7301   -1.4130 O.3     1  UNL1       -0.3112
      5 C          14.9166   70.4138   -0.9896 C.3     1  UNL1        0.1811
      6 C          12.5711   68.0355    0.3404 C.3     1  UNL1        0.2383
      7 C          11.9237   69.4166    0.6167 C.3     1  UNL1        0.1895
      8 O          10.4974   69.3248    0.5944 O.3     1  UNL1       -0.3779
      9 C          12.4421   70.2626   -0.5753 C.3     1  UNL1        0.1713
     10 C          13.6905   69.5018   -1.0593 C.3     1  UNL1        0.1764
     11 O          13.8716   68.3725   -0.1874 O.3     1  UNL1       -0.3308
     12 O          11.4563   70.3280   -1.6077 O.3     1  UNL1       -0.3794
     13 H          10.1580   70.2130    0.7725 H       1  UNL1        0.2106
     14 H          10.6801   70.7606   -1.2268 H       1  UNL1        0.2105
     15 N          12.7007   67.2671    1.5796 N.ar    1  UNL1       -0.2551
     16 C          11.7659   66.3550    1.8996 C.ar    1  UNL1        0.3323
     17 N          11.8632   65.6327    3.0313 N.ar    1  UNL1       -0.2743
     18 C          12.8997   65.8205    3.8708 C.ar    1  UNL1        0.2626
     19 C          13.8890   66.7819    3.5495 C.ar    1  UNL1        0.0795
     20 C          13.7692   67.4896    2.4061 C.ar    1  UNL1        0.0869
     21 O          10.8254   66.1742    1.1520 O.2     1  UNL1       -0.2464
     22 O          12.9862   65.1705    4.8977 O.2     1  UNL1       -0.2670
     23 H          11.1816   64.9756    3.2444 H       1  UNL1        0.1734
     24 O          16.8485   71.1167   -2.5471 O.3     1  UNL1       -0.2703
     25 P          17.8922   71.6733   -3.6384 P.3     1  UNL1        0.2208
     26 O          17.8101   73.1497   -3.6911 O.2     1  UNL1       -0.5170
     27 O          19.3857   71.2339   -3.2252 O.3     1  UNL1       -0.4371
     28 O          17.5353   71.0631   -5.0841 O.3     1  UNL1       -0.2858
     29 C          17.7092   72.1159   -6.0334 C.3     1  UNL1        0.2704
     30 C          16.5642   72.0819   -7.0468 C.3     1  UNL1        0.1967
     31 C          16.5573   70.7190   -7.7459 C.3     1  UNL1        0.1715
     32 C          17.9515   70.4598   -8.3280 C.3     1  UNL1        0.1694
     33 C          18.9919   70.6150   -7.2160 C.3     1  UNL1        0.1761
     34 O          15.3211   72.2813   -6.3714 O.3     1  UNL1       -0.3775
     35 O          15.5888   70.7233   -8.7969 O.3     1  UNL1       -0.3794
     36 O          18.2161   71.3991   -9.3709 O.3     1  UNL1       -0.3794
     37 O          18.9553   71.9467   -6.7050 O.3     1  UNL1       -0.3258
     38 H          15.3729   73.1456   -5.9410 H       1  UNL1        0.2106
     39 H          14.7326   70.9012   -8.3877 H       1  UNL1        0.2105
     40 H          17.5352   71.2693  -10.0439 H       1  UNL1        0.2105
     41 C          20.3849   70.3245   -7.7791 C.3     1  UNL1        0.1693
     42 O          20.2795   69.3779   -8.8439 O.3     1  UNL1       -0.3794
     43 H          21.1764   69.2232   -9.1707 H       1  UNL1        0.2105
@<TRIPOS>BOND
     1    15    16   ar
     2    15    20   ar
     3    15     6    1
     4    16    17   ar
     5    16    21    2
     6    17    18   ar
     7    17    23    1
     8    18    19   ar
     9    18    22    2
    10    19    20   ar
    11     6     7    1
    12     6    11    1
    13     7     8    1
    14     7     9    1
    15     8    13    1
    16     9    10    1
    17     9    12    1
    18    10    11    1
    19    10     5    1
    20    12    14    1
    21     5     4    1
    22     4     1    1
    23     1     2    2
    24     1     3    1
    25     1    24    1
    26    24    25    1
    27    25    26    2
    28    25    27    1
    29    25    28    1
    30    28    29    1
    31    29    30    1
    32    29    37    1
    33    30    31    1
    34    30    34    1
    35    31    32    1
    36    31    35    1
    37    32    33    1
    38    32    36    1
    39    33    41    1
    40    33    37    1
    41    41    42    1
    42    34    38    1
    43    35    39    1
    44    36    40    1
    45    42    43    1
@<TRIPOS>MOLECULE
GDU
 43 45 0 0 0
SMALL
GASTEIGER

@<TRIPOS>ATOM
      1 P          21.2478   71.4424    0.2206 P.3     1  UNL1        0.2189
      2 O          20.5316   72.3729    1.1211 O.2     1  UNL1       -0.5170
      3 O          20.1802   70.6237   -0.6642 O.3     1  UNL1       -0.4371
      4 O          22.2215   72.2771   -0.7500 O.3     1  UNL1       -0.3112
      5 C          21.4644   72.5997   -1.9177 C.3     1  UNL1        0.1811
      6 C          21.2443   71.1982   -5.2214 C.3     1  UNL1        0.2383
      7 C          21.9958   72.5398   -5.4171 C.3     1  UNL1        0.1895
      8 O          22.9102   72.4569   -6.5127 O.3     1  UNL1       -0.3779
      9 C          22.7551   72.6860   -4.0727 C.3     1  UNL1        0.1713
     10 C          21.9763   71.7785   -3.1025 C.3     1  UNL1        0.1764
     11 O          20.8657   71.2243   -3.8287 O.3     1  UNL1       -0.3308
     12 O          24.1056   72.2399   -4.2106 O.3     1  UNL1       -0.3794
     13 H          23.3428   73.3195   -6.5807 H       1  UNL1        0.2106
     14 H          24.5222   72.8083   -4.8726 H       1  UNL1        0.2105
     15 N          20.0582   71.1393   -6.0773 N.ar    1  UNL1       -0.2551
     16 C          20.1169   70.4919   -7.2545 C.ar    1  UNL1        0.3323
     17 N          19.0398   70.4199   -8.0586 N.ar    1  UNL1       -0.2743
     18 C          17.8823   71.0072   -7.6988 C.ar    1  UNL1        0.2626
     19 C          17.8074   71.6975   -6.4642 C.ar    1  UNL1        0.0795
     20 C          18.9014   71.7507   -5.6750 C.ar    1  UNL1        0.0869
     21 O          21.1541   69.9569   -7.5923 O.2     1  UNL1       -0.2464
     22 O          16.9081   70.9466   -8.4281 O.2     1  UNL1       -0.2670
     23 H          19.0989   69.9449   -8.9027 H       1  UNL1        0.1734
     24 O          22.1185   70.4111    1.0985 O.3     1  UNL1       -0.2703
     25 P          23.6272   70.9710    1.1157 P.3     1  UNL1        0.2208
     26 O          24.4554   70.1289    2.0069 O.2     1  UNL1       -0.5170
     27 O          24.2321   70.9288   -0.3764 O.3     1  UNL1       -0.4371
     28 O          23.6316   72.4881    1.6526 O.3     1  UNL1       -0.2858
     29 C          24.0233   72.4415    3.0252 C.3     1  UNL1        0.2704
     30 C          22.8856   72.9741    3.8977 C.3     1  UNL1        0.1967
     31 C          22.5643   74.4111    3.4755 C.3     1  UNL1        0.1715
     32 C          23.8569   75.2341    3.5151 C.3     1  UNL1        0.1694
     33 C          24.9211   74.5305    2.6693 C.3     1  UNL1        0.1761
     34 O          21.7282   72.1538    3.7284 O.3     1  UNL1       -0.3775
     35 O          21.6067   74.9732    4.3753 O.3     1  UNL1       -0.3794
     36 O          24.3102   75.3472    4.8648 O.3     1  UNL1       -0.3794
     37 O          25.1905   73.2386    3.2119 O.3     1  UNL1       -0.3258
     38 H          21.9781   71.2597    3.9985 H       1  UNL1        0.2106
     39 H          20.8177   74.4187    4.3265 H       1  UNL1        0.2105
     40 H          23.6082   75.7895    5.3597 H       1  UNL1        0.2105
     41 C          26.2058   75.3620    2.6741 C.3     1  UNL1        0.1693
     42 O          25.8756   76.7465    2.7962 O.3     1  UNL1       -0.3794
     43 H          26.7106   77.2345    2.7960 H       1  UNL1        0.2105
@<TRIPOS>BOND
     1    15    16   ar
     2    15    20   ar
     3    15     6    1
     4    16    17   ar
     5    16    21    2
     6    17    18   ar
     7    17    23    1
     8    18    19   ar
     9    18    22    2
    10    19    20   ar
    11     6     7    1
    12     6    11    1
    13     7     8    1
    14     7     9    1
    15     8    13    1
    16     9    10    1
    17     9    12    1
    18    10    11    1
    19    10     5    1
    20    12    14    1
    21     5     4    1
    22     4     1    1
    23     1     2    2
    24     1     3    1
    25     1    24    1
    26    24    25    1
    27    25    26    2
    28    25    27    1
    29    25    28    1
    30    28    29    1
    31    29    30    1
    32    29    37    1
    33    30    31    1
    34    30    34    1
    35    31    32    1
    36    31    35    1
    37    32    33    1
    38    32    36    1
    39    33    41    1
    40    33    37    1
    41    41    42    1
    42    34    38    1
    43    35    39    1
    44    36    40    1
    45    42    43    1
@<TRIPOS>MOLECULE
GDU
 43 45 0 0 0
SMALL
GASTEIGER

@<TRIPOS>ATOM
      1 P          21.1484   73.3276   -3.7556 P.3     1  UNL1        0.2189
      2 O          22.3534   72.4699   -3.7973 O.2     1  UNL1       -0.5170
      3 O          20.5995   73.5548   -5.2523 O.3     1  UNL1       -0.4371
      4 O          20.0115   72.6137   -2.8697 O.3     1  UNL1       -0.3112
      5 C          18.7920   73.3146   -3.1188 C.3     1  UNL1        0.1811
      6 C          17.4214   71.0089   -5.5131 C.3     1  UNL1        0.2383
      7 C          18.2171   70.1174   -4.5257 C.3     1  UNL1        0.1895
      8 O          17.6214   68.8227   -4.4141 O.3     1  UNL1       -0.3779
      9 C          18.0823   70.9046   -3.1963 C.3     1  UNL1        0.1713
     10 C          17.7381   72.3376   -3.6431 C.3     1  UNL1        0.1764
     11 O          17.7324   72.3506   -5.0812 O.3     1  UNL1       -0.3308
     12 O          17.0328   70.3573   -2.3957 O.3     1  UNL1       -0.3794
     13 H          18.1618   68.3202   -3.7886 H       1  UNL1        0.2106
     14 H          17.2786   69.4433   -2.1985 H       1  UNL1        0.2105
     15 N          17.8748   70.7915   -6.8879 N.ar    1  UNL1       -0.2551
     16 C          16.9797   70.7807   -7.8914 C.ar    1  UNL1        0.3323
     17 N          17.3707   70.5864   -9.1647 N.ar    1  UNL1       -0.2743
     18 C          18.6713   70.3888   -9.4540 C.ar    1  UNL1        0.2626
     19 C          19.6246   70.3918   -8.4064 C.ar    1  UNL1        0.0795
     20 C          19.2058   70.5932   -7.1389 C.ar    1  UNL1        0.0869
     21 O          15.8031   70.9581   -7.6459 O.2     1  UNL1       -0.2464
     22 O          19.0255   70.2081  -10.6057 O.2     1  UNL1       -0.2670
     23 H          16.7116   70.5860   -9.8770 H       1  UNL1        0.1734
     24 O          21.5256   74.7499   -3.1021 O.3     1  UNL1       -0.2703
     25 P          22.7794   74.4970   -2.1255 P.3     1  UNL1        0.2208
     26 O          23.8653   73.8323   -2.8793 O.2     1  UNL1       -0.5170
     27 O          23.3082   75.9074   -1.5552 O.3     1  UNL1       -0.4371
     28 O          22.3250   73.5598   -0.8986 O.3     1  UNL1       -0.2858
     29 C          23.4025   72.6577   -0.6442 C.3     1  UNL1        0.2704
     30 C          22.8466   71.2502   -0.4223 C.3     1  UNL1        0.1967
     31 C          21.8745   71.2789    0.7611 C.3     1  UNL1        0.1715
     32 C          22.5902   71.8954    1.9683 C.3     1  UNL1        0.1694
     33 C          23.1643   73.2559    1.5652 C.3     1  UNL1        0.1761
     34 O          22.1597   70.8161   -1.5975 O.3     1  UNL1       -0.3775
     35 O          21.4597   69.9476    1.0742 O.3     1  UNL1       -0.3794
     36 O          23.6466   71.0315    2.3898 O.3     1  UNL1       -0.3794
     37 O          24.1145   73.0852    0.5146 O.3     1  UNL1       -0.3258
     38 H          22.8065   70.8202   -2.3162 H       1  UNL1        0.2106
     39 H          21.0270   69.5965    0.2856 H       1  UNL1        0.2105
     40 H          23.2403   70.1879    2.6276 H       1  UNL1        0.2105
     41 C          23.8518   73.8956    2.7736 C.3     1  UNL1        0.1693
     42 O          25.1982   73.4255    2.8586 O.3     1  UNL1       -0.3794
     43 H          25.5953   73.8519    3.6305 H       1  UNL1        0.2105
@<TRIPOS>BOND
     1    15    16   ar
     2    15    20   ar
     3    15     6    1
     4    16    17   ar
     5    16    21    2
     6    17    18   ar
     7    17    23    1
     8    18    19   ar
     9    18    22    2
    10    19    20   ar
    11     6     7    1
    12     6    11    1
    13     7     8    1
    14     7     9    1
    15     8    13    1
    16     9    10    1
    17     9    12    1
    18    10    11    1
    19    10     5    1
    20    12    14    1
    21     5     4    1
    22     4     1    1
    23     1     2    2
    24     1     3    1
    25     1    24    1
    26    24    25    1
    27    25    26    2
    28    25    27    1
    29    25    28    1
    30    28    29    1
    31    29    30    1
    32    29    37    1
    33    30    31    1
    34    30    34    1
    35    31    32    1
    36    31    35    1
    37    32    33    1
    38    32    36    1
    39    33    41    1
    40    33    37    1
    41    41    42    1
    42    34    38    1
    43    35    39    1
    44    36    40    1
    45    42    43    1
@<TRIPOS>MOLECULE
GDU
 43 45 0 0 0
SMALL
GASTEIGER

@<TRIPOS>ATOM
      1 P          22.5991   71.4565   -2.7252 P.3     1  UNL1        0.2189
      2 O          22.2276   72.8888   -2.7197 O.2     1  UNL1       -0.5170
      3 O          24.0273   71.2754   -3.4465 O.3     1  UNL1       -0.4371
      4 O          22.6903   70.9195   -1.2119 O.3     1  UNL1       -0.3112
      5 C          21.3816   71.0370   -0.6515 C.3     1  UNL1        0.1811
      6 C          23.1327   71.8712    2.3759 C.3     1  UNL1        0.2383
      7 C          22.5504   73.2192    1.8791 C.3     1  UNL1        0.1895
      8 O          22.2557   74.0836    2.9788 O.3     1  UNL1       -0.3779
      9 C          21.2491   72.7680    1.1661 C.3     1  UNL1        0.1713
     10 C          21.4898   71.2791    0.8551 C.3     1  UNL1        0.1764
     11 O          22.8152   70.9532    1.3082 O.3     1  UNL1       -0.3308
     12 O          20.1235   72.9296    2.0315 O.3     1  UNL1       -0.3794
     13 H          21.8990   74.9007    2.6034 H       1  UNL1        0.2106
     14 H          20.0611   73.8724    2.2367 H       1  UNL1        0.2105
     15 N          24.5818   71.9688    2.5584 N.ar    1  UNL1       -0.2551
     16 C          25.3413   70.8629    2.4674 C.ar    1  UNL1        0.3323
     17 N          26.6764   70.9257    2.6276 N.ar    1  UNL1       -0.2743
     18 C          27.2747   72.1030    2.8929 C.ar    1  UNL1        0.2626
     19 C          26.4866   73.2752    2.9973 C.ar    1  UNL1        0.0795
     20 C          25.1503   73.1846    2.8280 C.ar    1  UNL1        0.0869
     21 O          24.8159   69.7939    2.2280 O.2     1  UNL1       -0.2464
     22 O          28.4825   72.1601    3.0428 O.2     1  UNL1       -0.2670
     23 H          27.2096   70.1182    2.5542 H       1  UNL1        0.1734
     24 O          21.4839   70.6170   -3.5276 O.3     1  UNL1       -0.2703
     25 P          20.9013   71.5885   -4.6708 P.3     1  UNL1        0.2208
     26 O          20.1505   72.6966   -4.0405 O.2     1  UNL1       -0.5170
     27 O          22.1197   72.1901   -5.5355 O.3     1  UNL1       -0.4371
     28 O          19.9199   70.7548   -5.6362 O.3     1  UNL1       -0.2858
     29 C          18.9714   71.6825   -6.1647 C.3     1  UNL1        0.2704
     30 C          17.5596   71.2499   -5.7660 C.3     1  UNL1        0.1967
     31 C          17.2981   69.8412   -6.3078 C.3     1  UNL1        0.1715
     32 C          17.5811   69.8351   -7.8143 C.3     1  UNL1        0.1694
     33 C          18.9932   70.3736   -8.0576 C.3     1  UNL1        0.1761
     34 O          17.4445   71.2457   -4.3420 O.3     1  UNL1       -0.3775
     35 O          15.9353   69.4812   -6.0714 O.3     1  UNL1       -0.3794
     36 O          16.6275   70.6618   -8.4830 O.3     1  UNL1       -0.3794
     37 O          19.0840   71.7170   -7.5856 O.3     1  UNL1       -0.3258
     38 H          17.6236   72.1482   -4.0449 H       1  UNL1        0.2106
     39 H          15.8000   69.5098   -5.1159 H       1  UNL1        0.2105
     40 H          15.7556   70.2895   -8.2976 H       1  UNL1        0.2105
     41 C          19.2988   70.3397   -9.5567 C.3     1  UNL1        0.1693
     42 O          18.5750   71.3818  -10.2132 O.3     1  UNL1       -0.3794
     43 H          18.7954   71.3264  -11.1532 H       1  UNL1        0.2105
@<TRIPOS>BOND
     1    15    16   ar
     2    15    20   ar
     3    15     6    1
     4    16    17   ar
     5    16    21    2
     6    17    18   ar
     7    17    23    1
     8    18    19   ar
     9    18    22    2
    10    19    20   ar
    11     6     7    1
    12     6    11    1
    13     7     8    1
    14     7     9    1
    15     8    13    1
    16     9    10    1
    17     9    12    1
    18    10    11    1
    19    10     5    1
    20    12    14    1
    21     5     4    1
    22     4     1    1
    23     1     2    2
    24     1     3    1
    25     1    24    1
    26    24    25    1
    27    25    26    2
    28    25    27    1
    29    25    28    1
    30    28    29    1
    31    29    30    1
    32    29    37    1
    33    30    31    1
    34    30    34    1
    35    31    32    1
    36    31    35    1
    37    32    33    1
    38    32    36    1
    39    33    41    1
    40    33    37    1
    41    41    42    1
    42    34    38    1
    43    35    39    1
    44    36    40    1
    45    42    43    1
@<TRIPOS>MOLECULE
GDU
 43 45 0 0 0
SMALL
GASTEIGER

@<TRIPOS>ATOM
      1 P          23.5451   72.1982   -3.4123 P.3     1  UNL1        0.2189
      2 O          24.3032   72.9254   -4.4544 O.2     1  UNL1       -0.5170
      3 O          24.3191   70.8368   -3.0374 O.3     1  UNL1       -0.4371
      4 O          23.4150   73.1202   -2.1009 O.3     1  UNL1       -0.3112
      5 C          22.3454   72.5826   -1.3216 C.3     1  UNL1        0.1811
      6 C          24.2919   71.7624    1.5880 C.3     1  UNL1        0.2383
      7 C          22.8685   72.0370    2.1369 C.3     1  UNL1        0.1895
      8 O          22.6108   71.2503    3.3022 O.3     1  UNL1       -0.3779
      9 C          21.9717   71.5850    0.9550 C.3     1  UNL1        0.1713
     10 C          22.9098   71.6308   -0.2654 C.3     1  UNL1        0.1764
     11 O          24.1870   72.1093    0.1908 O.3     1  UNL1       -0.3308
     12 O          21.4885   70.2581    1.1736 O.3     1  UNL1       -0.3794
     13 H          21.7139   71.4674    3.5925 H       1  UNL1        0.2106
     14 H          20.9582   70.2827    1.9816 H       1  UNL1        0.2105
     15 N          25.2782   72.6119    2.2577 N.ar    1  UNL1       -0.2551
     16 C          26.4273   72.0749    2.7043 C.ar    1  UNL1        0.3323
     17 N          27.3521   72.8346    3.3203 N.ar    1  UNL1       -0.2743
     18 C          27.1353   74.1505    3.5088 C.ar    1  UNL1        0.2626
     19 C          25.9269   74.7287    3.0487 C.ar    1  UNL1        0.0795
     20 C          25.0182   73.9448    2.4305 C.ar    1  UNL1        0.0869
     21 O          26.6371   70.8894    2.5411 O.2     1  UNL1       -0.2464
     22 O          27.9698   74.8380    4.0704 O.2     1  UNL1       -0.2670
     23 H          28.1777   72.4311    3.6324 H       1  UNL1        0.1734
     24 O          22.0763   71.8431   -3.9681 O.3     1  UNL1       -0.2703
     25 P          21.8328   72.7644   -5.2650 P.3     1  UNL1        0.2208
     26 O          21.9610   74.1895   -4.8886 O.2     1  UNL1       -0.5170
     27 O          22.9279   72.4065   -6.3905 O.3     1  UNL1       -0.4371
     28 O          20.3575   72.4930   -5.8481 O.3     1  UNL1       -0.2858
     29 C          20.3353   71.1410   -6.3080 C.3     1  UNL1        0.2704
     30 C          19.8341   71.1028   -7.7525 C.3     1  UNL1        0.1967
     31 C          18.4319   71.7167   -7.8101 C.3     1  UNL1        0.1715
     32 C          17.5402   70.9985   -6.7910 C.3     1  UNL1        0.1694
     33 C          18.2150   71.0465   -5.4180 C.3     1  UNL1        0.1761
     34 O          20.7205   71.8509   -8.5867 O.3     1  UNL1       -0.3775
     35 O          17.8908   71.5555   -9.1230 O.3     1  UNL1       -0.3794
     36 O          17.3560   69.6398   -7.1911 O.3     1  UNL1       -0.3794
     37 O          19.4710   70.3717   -5.4751 O.3     1  UNL1       -0.3258
     38 H          21.5900   71.4344   -8.5140 H       1  UNL1        0.2106
     39 H          18.4880   72.0111   -9.7298 H       1  UNL1        0.2105
     40 H          16.9349   69.6586   -8.0603 H       1  UNL1        0.2105
     41 C          17.3165   70.3617   -4.3857 C.3     1  UNL1        0.1693
     42 O          15.9469   70.5674   -4.7365 O.3     1  UNL1       -0.3794
     43 H          15.4154   70.1208   -4.0632 H       1  UNL1        0.2105
@<TRIPOS>BOND
     1    15    16   ar
     2    15    20   ar
     3    15     6    1
     4    16    17   ar
     5    16    21    2
     6    17    18   ar
     7    17    23    1
     8    18    19   ar
     9    18    22    2
    10    19    20   ar
    11     6     7    1
    12     6    11    1
    13     7     8    1
    14     7     9    1
    15     8    13    1
    16     9    10    1
    17     9    12    1
    18    10    11    1
    19    10     5    1
    20    12    14    1
    21     5     4    1
    22     4     1    1
    23     1     2    2
    24     1     3    1
    25     1    24    1
    26    24    25    1
    27    25    26    2
    28    25    27    1
    29    25    28    1
    30    28    29    1
    31    29    30    1
    32    29    37    1
    33    30    31    1
    34    30    34    1
    35    31    32    1
    36    31    35    1
    37    32    33    1
    38    32    36    1
    39    33    41    1
    40    33    37    1
    41    41    42    1
    42    34    38    1
    43    35    39    1
    44    36    40    1
    45    42    43    1
@<TRIPOS>MOLECULE
GDU
 43 45 0 0 0
SMALL
GASTEIGER

@<TRIPOS>ATOM
      1 P          23.1980   72.0202   -3.4910 P.3     1  UNL1        0.2189
      2 O          24.1844   72.9710   -4.0498 O.2     1  UNL1       -0.5170
      3 O          23.9478   70.6634   -3.0553 O.3     1  UNL1       -0.4371
      4 O          22.4872   72.6768   -2.2063 O.3     1  UNL1       -0.3112
      5 C          23.5051   72.8671   -1.2224 C.3     1  UNL1        0.1811
      6 C          23.2020   72.1733    2.2925 C.3     1  UNL1        0.2383
      7 C          21.7702   72.5683    1.8490 C.3     1  UNL1        0.1895
      8 O          20.7876   71.8915    2.6362 O.3     1  UNL1       -0.3779
      9 C          21.7375   72.0744    0.3792 C.3     1  UNL1        0.1713
     10 C          23.2228   71.9720   -0.0143 C.3     1  UNL1        0.1764
     11 O          23.9985   72.4141    1.1131 O.3     1  UNL1       -0.3308
     12 O          21.1016   70.7975    0.2952 O.3     1  UNL1       -0.3794
     13 H          19.9231   72.1799    2.3114 H       1  UNL1        0.2106
     14 H          20.1949   70.9149    0.6097 H       1  UNL1        0.2105
     15 N          23.6525   73.0175    3.4003 N.ar    1  UNL1       -0.2551
     16 C          24.9231   73.4569    3.4300 C.ar    1  UNL1        0.3323
     17 N          25.3616   74.2372    4.4353 N.ar    1  UNL1       -0.2743
     18 C          24.5322   74.5840    5.4383 C.ar    1  UNL1        0.2626
     19 C          23.1927   74.1238    5.4232 C.ar    1  UNL1        0.0795
     20 C          22.7778   73.3460    4.4009 C.ar    1  UNL1        0.0869
     21 O          25.6827   73.1527    2.5320 O.2     1  UNL1       -0.2464
     22 O          24.9296   75.2864    6.3512 O.2     1  UNL1       -0.2670
     23 H          26.2806   74.5488    4.4385 H       1  UNL1        0.1734
     24 O          22.0872   71.6832   -4.6068 O.3     1  UNL1       -0.2703
     25 P          20.7271   71.3338   -3.8207 P.3     1  UNL1        0.2208
     26 O          21.0279   70.4190   -2.6974 O.2     1  UNL1       -0.5170
     27 O          20.0753   72.6905   -3.2473 O.3     1  UNL1       -0.4371
     28 O          19.6905   70.6259   -4.8278 O.3     1  UNL1       -0.2858
     29 C          18.5273   71.4532   -4.8753 C.3     1  UNL1        0.2704
     30 C          17.3206   70.6649   -4.3638 C.3     1  UNL1        0.1967
     31 C          17.1338   69.4186   -5.2346 C.3     1  UNL1        0.1715
     32 C          17.0542   69.8536   -6.7023 C.3     1  UNL1        0.1694
     33 C          18.2832   70.7025   -7.0371 C.3     1  UNL1        0.1761
     34 O          17.5439   70.2741   -3.0079 O.3     1  UNL1       -0.3775
     35 O          15.9264   68.7501   -4.8634 O.3     1  UNL1       -0.3794
     36 O          15.8671   70.6202   -6.9097 O.3     1  UNL1       -0.3794
     37 O          18.2982   71.8714   -6.2189 O.3     1  UNL1       -0.3258
     38 H          17.6630   71.0876   -2.4991 H       1  UNL1        0.2106
     39 H          16.0160   68.5063   -3.9334 H       1  UNL1        0.2105
     40 H          15.1218   70.0493   -6.6817 H       1  UNL1        0.2105
     41 C          18.2308   71.1137   -8.5102 C.3     1  UNL1        0.1693
     42 O          17.3663   70.2261   -9.2213 O.3     1  UNL1       -0.3794
     43 H          17.3605   70.5194  -10.1428 H       1  UNL1        0.2105
@<TRIPOS>BOND
     1    15    16   ar
     2    15    20   ar
     3    15     6    1
     4    16    17   ar
     5    16    21    2
     6    17    18   ar
     7    17    23    1
     8    18    19   ar
     9    18    22    2
    10    19    20   ar
    11     6     7    1
    12     6    11    1
    13     7     8    1
    14     7     9    1
    15     8    13    1
    16     9    10    1
    17     9    12    1
    18    10    11    1
    19    10     5    1
    20    12    14    1
    21     5     4    1
    22     4     1    1
    23     1     2    2
    24     1     3    1
    25     1    24    1
    26    24    25    1
    27    25    26    2
    28    25    27    1
    29    25    28    1
    30    28    29    1
    31    29    30    1
    32    29    37    1
    33    30    31    1
    34    30    34    1
    35    31    32    1
    36    31    35    1
    37    32    33    1
    38    32    36    1
    39    33    41    1
    40    33    37    1
    41    41    42    1
    42    34    38    1
    43    35    39    1
    44    36    40    1
    45    42    43    1
@<TRIPOS>MOLECULE
GDU
 43 45 0 0 0
SMALL
GASTEIGER

@<TRIPOS>ATOM
      1 P          16.7647   69.6900   -3.2838 P.3     1  UNL1        0.2189
      2 O          17.4734   68.7397   -2.3982 O.2     1  UNL1       -0.5170
      3 O          15.9911   68.8742   -4.4366 O.3     1  UNL1       -0.4371
      4 O          15.7038   70.5379   -2.4222 O.3     1  UNL1       -0.3112
      5 C          15.3962   69.7608   -1.2638 C.3     1  UNL1        0.1811
      6 C          12.3771   68.6659    0.3529 C.3     1  UNL1        0.2383
      7 C          12.6465   70.0735    0.9438 C.3     1  UNL1        0.1895
      8 O          11.4214   70.7265    1.2844 O.3     1  UNL1       -0.3779
      9 C          13.3471   70.7933   -0.2378 C.3     1  UNL1        0.1713
     10 C          13.8783   69.6439   -1.1143 C.3     1  UNL1        0.1764
     11 O          13.5461   68.4101   -0.4543 O.3     1  UNL1       -0.3308
     12 O          12.4097   71.5920   -0.9627 O.3     1  UNL1       -0.3794
     13 H          11.6579   71.5926    1.6449 H       1  UNL1        0.2106
     14 H          12.0699   72.2542   -0.3457 H       1  UNL1        0.2105
     15 N          12.2588   67.6704    1.4195 N.ar    1  UNL1       -0.2551
     16 C          11.0452   67.3539    1.9047 C.ar    1  UNL1        0.3323
     17 N          10.9085   66.4393    2.8828 N.ar    1  UNL1       -0.2743
     18 C          11.9926   65.8304    3.4007 C.ar    1  UNL1        0.2626
     19 C          13.2778   66.1580    2.9034 C.ar    1  UNL1        0.0795
     20 C          13.3860   67.0756    1.9192 C.ar    1  UNL1        0.0869
     21 O          10.0581   67.8945    1.4471 O.2     1  UNL1       -0.2464
     22 O          11.8703   65.0059    4.2894 O.2     1  UNL1       -0.2670
     23 H          10.0247   66.2200    3.2181 H       1  UNL1        0.1734
     24 O          17.8309   70.6898   -3.9592 O.3     1  UNL1       -0.2703
     25 P          18.6913   71.3331   -2.7610 P.3     1  UNL1        0.2208
     26 O          17.8578   72.3082   -2.0237 O.2     1  UNL1       -0.5170
     27 O          19.1677   70.1675   -1.7567 O.3     1  UNL1       -0.4371
     28 O          19.9825   72.0790   -3.3664 O.3     1  UNL1       -0.2858
     29 C          20.6305   71.1481   -4.2343 C.3     1  UNL1        0.2704
     30 C          22.1215   71.0912   -3.8981 C.3     1  UNL1        0.1967
     31 C          22.7229   72.4907   -4.0601 C.3     1  UNL1        0.1715
     32 C          22.3902   73.0074   -5.4644 C.3     1  UNL1        0.1694
     33 C          20.8774   72.9207   -5.6812 C.3     1  UNL1        0.1761
     34 O          22.2916   70.6487   -2.5503 O.3     1  UNL1       -0.3775
     35 O          24.1408   72.4262   -3.8931 O.3     1  UNL1       -0.3794
     36 O          23.0639   72.2099   -6.4390 O.3     1  UNL1       -0.3794
     37 O          20.4549   71.5610   -5.5876 O.3     1  UNL1       -0.3258
     38 H          21.8932   69.7695   -2.4930 H       1  UNL1        0.2106
     39 H          24.3026   72.0862   -3.0040 H       1  UNL1        0.2105
     40 H          24.0100   72.2899   -6.2607 H       1  UNL1        0.2105
     41 C          20.5306   73.4664   -7.0682 C.3     1  UNL1        0.1693
     42 O          20.7553   72.4516   -8.0483 O.3     1  UNL1       -0.3794
     43 H          20.5247   72.8347   -8.9059 H       1  UNL1        0.2105
@<TRIPOS>BOND
     1    15    16   ar
     2    15    20   ar
     3    15     6    1
     4    16    17   ar
     5    16    21    2
     6    17    18   ar
     7    17    23    1
     8    18    19   ar
     9    18    22    2
    10    19    20   ar
    11     6     7    1
    12     6    11    1
    13     7     8    1
    14     7     9    1
    15     8    13    1
    16     9    10    1
    17     9    12    1
    18    10    11    1
    19    10     5    1
    20    12    14    1
    21     5     4    1
    22     4     1    1
    23     1     2    2
    24     1     3    1
    25     1    24    1
    26    24    25    1
    27    25    26    2
    28    25    27    1
    29    25    28    1
    30    28    29    1
    31    29    30    1
    32    29    37    1
    33    30    31    1
    34    30    34    1
    35    31    32    1
    36    31    35    1
    37    32    33    1
    38    32    36    1
    39    33    41    1
    40    33    37    1
    41    41    42    1
    42    34    38    1
    43    35    39    1
    44    36    40    1
    45    42    43    1
@<TRIPOS>MOLECULE
GDU
 43 45 0 0 0
SMALL
GASTEIGER

@<TRIPOS>ATOM
      1 P          22.1934   72.7366   -6.5886 P.3     1  UNL1        0.2189
      2 O          23.0861   73.1802   -7.6820 O.2     1  UNL1       -0.5170
      3 O          21.0382   73.8350   -6.3600 O.3     1  UNL1       -0.4371
      4 O          21.5240   71.3275   -6.9800 O.3     1  UNL1       -0.3112
      5 C          20.6913   71.5663   -8.1158 C.3     1  UNL1        0.1811
      6 C          17.6351   70.1148   -6.8992 C.3     1  UNL1        0.2383
      7 C          17.1814   71.1242   -7.9847 C.3     1  UNL1        0.1895
      8 O          15.9811   70.6818   -8.6226 O.3     1  UNL1       -0.3779
      9 C          18.3758   71.0967   -8.9735 C.3     1  UNL1        0.1713
     10 C          19.5455   70.5528   -8.1324 C.3     1  UNL1        0.1764
     11 O          19.0559   70.3472   -6.7959 O.3     1  UNL1       -0.3308
     12 O          18.0946   70.2278  -10.0725 O.3     1  UNL1       -0.3794
     13 H          15.7536   71.3508   -9.2833 H       1  UNL1        0.2106
     14 H          17.3191   70.5883  -10.5233 H       1  UNL1        0.2105
     15 N          16.9728   70.3932   -5.6238 N.ar    1  UNL1       -0.2551
     16 C          16.4428   69.3822   -4.9130 C.ar    1  UNL1        0.3323
     17 N          15.8317   69.6106   -3.7356 N.ar    1  UNL1       -0.2743
     18 C          15.7322   70.8642   -3.2531 C.ar    1  UNL1        0.2626
     19 C          16.2807   71.9397   -3.9938 C.ar    1  UNL1        0.0795
     20 C          16.8921   71.6821   -5.1695 C.ar    1  UNL1        0.0869
     21 O          16.5252   68.2460   -5.3352 O.2     1  UNL1       -0.2464
     22 O          15.1750   71.0725   -2.1898 O.2     1  UNL1       -0.2670
     23 H          15.4586   68.8685   -3.2338 H       1  UNL1        0.1734
     24 O          23.0478   72.5686   -5.2342 O.3     1  UNL1       -0.2703
     25 P          21.9939   72.3002   -4.0479 P.3     1  UNL1        0.2208
     26 O          20.9404   73.3385   -4.0800 O.2     1  UNL1       -0.5170
     27 O          21.3228   70.8493   -4.2447 O.3     1  UNL1       -0.4371
     28 O          22.7551   72.3503   -2.6309 O.3     1  UNL1       -0.2858
     29 C          21.9729   73.1776   -1.7686 C.3     1  UNL1        0.2704
     30 C          22.7485   74.4564   -1.4487 C.3     1  UNL1        0.1967
     31 C          24.0751   74.0811   -0.7809 C.3     1  UNL1        0.1715
     32 C          23.7799   73.1788    0.4226 C.3     1  UNL1        0.1694
     33 C          22.9270   71.9949   -0.0402 C.3     1  UNL1        0.1761
     34 O          23.0054   75.1752   -2.6563 O.3     1  UNL1       -0.3775
     35 O          24.7443   75.2656   -0.3433 O.3     1  UNL1       -0.3794
     36 O          23.0736   73.9232    1.4160 O.3     1  UNL1       -0.3794
     37 O          21.6878   72.4701   -0.5642 O.3     1  UNL1       -0.3258
     38 H          22.1450   75.3839   -3.0451 H       1  UNL1        0.2106
     39 H          24.8984   75.8062   -1.1284 H       1  UNL1        0.2105
     40 H          23.6443   74.6593    1.6726 H       1  UNL1        0.2105
     41 C          22.6552   71.0692    1.1477 C.3     1  UNL1        0.1693
     42 O          21.5416   70.2258    0.8482 O.3     1  UNL1       -0.3794
     43 H          21.4042   69.6591    1.6197 H       1  UNL1        0.2105
@<TRIPOS>BOND
     1    15    16   ar
     2    15    20   ar
     3    15     6    1
     4    16    17   ar
     5    16    21    2
     6    17    18   ar
     7    17    23    1
     8    18    19   ar
     9    18    22    2
    10    19    20   ar
    11     6     7    1
    12     6    11    1
    13     7     8    1
    14     7     9    1
    15     8    13    1
    16     9    10    1
    17     9    12    1
    18    10    11    1
    19    10     5    1
    20    12    14    1
    21     5     4    1
    22     4     1    1
    23     1     2    2
    24     1     3    1
    25     1    24    1
    26    24    25    1
    27    25    26    2
    28    25    27    1
    29    25    28    1
    30    28    29    1
    31    29    30    1
    32    29    37    1
    33    30    31    1
    34    30    34    1
    35    31    32    1
    36    31    35    1
    37    32    33    1
    38    32    36    1
    39    33    41    1
    40    33    37    1
    41    41    42    1
    42    34    38    1
    43    35    39    1
    44    36    40    1
    45    42    43    1
@<TRIPOS>MOLECULE
GDU
 43 45 0 0 0
SMALL
GASTEIGER

@<TRIPOS>ATOM
      1 P          21.7562   71.0610    0.0989 P.3     1  UNL1        0.2189
      2 O          22.8297   71.0116   -0.9184 O.2     1  UNL1       -0.5170
      3 O          21.9791   69.8812    1.1719 O.3     1  UNL1       -0.4371
      4 O          21.7927   72.4830    0.8495 O.3     1  UNL1       -0.3112
      5 C          22.8245   72.4046    1.8343 C.3     1  UNL1        0.1811
      6 C          22.4549   73.4225    5.2628 C.3     1  UNL1        0.2383
      7 C          21.4253   74.2842    4.4880 C.3     1  UNL1        0.1895
      8 O          20.2935   74.5858    5.3073 O.3     1  UNL1       -0.3779
      9 C          21.0280   73.3439    3.3204 C.3     1  UNL1        0.1713
     10 C          22.1977   72.3464    3.2286 C.3     1  UNL1        0.1764
     11 O          23.1692   72.7297    4.2172 O.3     1  UNL1       -0.3308
     12 O          19.8059   72.6661    3.6184 O.3     1  UNL1       -0.3794
     13 H          19.6943   75.1214    4.7688 H       1  UNL1        0.2106
     14 H          19.1265   73.3461    3.7220 H       1  UNL1        0.2105
     15 N          23.3647   74.2713    6.0340 N.ar    1  UNL1       -0.2551
     16 C          23.0410   74.6277    7.2895 C.ar    1  UNL1        0.3323
     17 N          23.8615   75.4045    8.0212 N.ar    1  UNL1       -0.2743
     18 C          25.0220   75.8475    7.5005 C.ar    1  UNL1        0.2626
     19 C          25.3733   75.4848    6.1771 C.ar    1  UNL1        0.0795
     20 C          24.5342   74.7013    5.4669 C.ar    1  UNL1        0.0869
     21 O          21.9977   74.2354    7.7730 O.2     1  UNL1       -0.2464
     22 O          25.7631   76.5546    8.1603 O.2     1  UNL1       -0.2670
     23 H          23.6139   75.6484    8.9273 H       1  UNL1        0.1734
     24 O          20.3282   70.8684   -0.6195 O.3     1  UNL1       -0.2703
     25 P          20.3841   71.6963   -1.9984 P.3     1  UNL1        0.2208
     26 O          20.5893   73.1316   -1.7038 O.2     1  UNL1       -0.5170
     27 O          21.6035   71.1544   -2.9003 O.3     1  UNL1       -0.4371
     28 O          19.0005   71.5039   -2.7976 O.3     1  UNL1       -0.2858
     29 C          18.9048   70.1193   -3.1343 C.3     1  UNL1        0.2704
     30 C          18.6039   69.9780   -4.6273 C.3     1  UNL1        0.1967
     31 C          17.2918   70.7031   -4.9422 C.3     1  UNL1        0.1715
     32 C          16.2016   70.1731   -4.0041 C.3     1  UNL1        0.1694
     33 C          16.6844   70.3016   -2.5572 C.3     1  UNL1        0.1761
     34 O          19.6666   70.5569   -5.3866 O.3     1  UNL1       -0.3775
     35 O          16.9213   70.4569   -6.3004 O.3     1  UNL1       -0.3794
     36 O          15.9375   68.8021   -4.3048 O.3     1  UNL1       -0.3794
     37 O          17.8618   69.5174   -2.3712 O.3     1  UNL1       -0.3258
     38 H          20.4717   70.0755   -5.1518 H       1  UNL1        0.2106
     39 H          17.6385   70.7943   -6.8517 H       1  UNL1        0.2105
     40 H          15.6429   68.7689   -5.2242 H       1  UNL1        0.2105
     41 C          15.5890   69.8068   -1.6100 C.3     1  UNL1        0.1693
     42 O          15.8685   68.4606   -1.2218 O.3     1  UNL1       -0.3794
     43 H          15.1571   68.1875   -0.6264 H       1  UNL1        0.2105
@<TRIPOS>BOND
     1    15    16   ar
     2    15    20   ar
     3    15     6    1
     4    16    17   ar
     5    16    21    2
     6    17    18   ar
     7    17    23    1
     8    18    19   ar
     9    18    22    2
    10    19    20   ar
    11     6     7    1
    12     6    11    1
    13     7     8    1
    14     7     9    1
    15     8    13    1
    16     9    10    1
    17     9    12    1
    18    10    11    1
    19    10     5    1
    20    12    14    1
    21     5     4    1
    22     4     1    1
    23     1     2    2
    24     1     3    1
    25     1    24    1
    26    24    25    1
    27    25    26    2
    28    25    27    1
    29    25    28    1
    30    28    29    1
    31    29    30    1
    32    29    37    1
    33    30    31    1
    34    30    34    1
    35    31    32    1
    36    31    35    1
    37    32    33    1
    38    32    36    1
    39    33    41    1
    40    33    37    1
    41    41    42    1
    42    34    38    1
    43    35    39    1
    44    36    40    1
    45    42    43    1
@<TRIPOS>MOLECULE
GDU
 43 45 0 0 0
SMALL
GASTEIGER

@<TRIPOS>ATOM
      1 P          23.5345   74.1434   -3.9259 P.3     1  UNL1        0.2189
      2 O          24.1306   75.0994   -4.8851 O.2     1  UNL1       -0.5170
      3 O          24.3320   72.7461   -3.9953 O.3     1  UNL1       -0.4371
      4 O          23.6333   74.7442   -2.4372 O.3     1  UNL1       -0.3112
      5 C          22.5564   74.1767   -1.6897 C.3     1  UNL1        0.1811
      6 C          22.9822   72.2482    1.3148 C.3     1  UNL1        0.2383
      7 C          21.7126   71.6574    0.6498 C.3     1  UNL1        0.1895
      8 O          21.5785   70.2669    0.9526 O.3     1  UNL1       -0.3779
      9 C          22.0071   71.8693   -0.8581 C.3     1  UNL1        0.1713
     10 C          23.0685   72.9849   -0.8789 C.3     1  UNL1        0.1764
     11 O          23.3005   73.3841    0.4830 O.3     1  UNL1       -0.3308
     12 O          22.5210   70.6696   -1.4401 O.3     1  UNL1       -0.3794
     13 H          20.7733   69.9619    0.5116 H       1  UNL1        0.2106
     14 H          21.8350   69.9953   -1.3435 H       1  UNL1        0.2105
     15 N          22.6975   72.6762    2.6854 N.ar    1  UNL1       -0.2551
     16 C          21.4263   72.7119    3.1224 C.ar    1  UNL1        0.3323
     17 N          21.1377   73.0982    4.3792 N.ar    1  UNL1       -0.2743
     18 C          22.1229   73.4666    5.2205 C.ar    1  UNL1        0.2626
     19 C          23.4662   73.4394    4.7721 C.ar    1  UNL1        0.0795
     20 C          23.7280   73.0438    3.5082 C.ar    1  UNL1        0.0869
     21 O          20.5269   72.3820    2.3752 O.2     1  UNL1       -0.2464
     22 O          21.8623   73.8209    6.3567 O.2     1  UNL1       -0.2670
     23 H          20.2149   73.1139    4.6792 H       1  UNL1        0.1734
     24 O          21.9893   73.8971   -4.3052 O.3     1  UNL1       -0.2703
     25 P          21.9284   72.5283   -5.1495 P.3     1  UNL1        0.2208
     26 O          22.9257   72.5777   -6.2412 O.2     1  UNL1       -0.5170
     27 O          22.2563   71.2849   -4.1796 O.3     1  UNL1       -0.4371
     28 O          20.4563   72.3467   -5.7739 O.3     1  UNL1       -0.2858
     29 C          20.3979   71.0293   -6.3224 C.3     1  UNL1        0.2704
     30 C          19.8947   71.1003   -7.7650 C.3     1  UNL1        0.1967
     31 C          18.5092   71.7536   -7.7782 C.3     1  UNL1        0.1715
     32 C          17.5996   70.9930   -6.8067 C.3     1  UNL1        0.1694
     33 C          18.2766   70.9319   -5.4352 C.3     1  UNL1        0.1761
     34 O          20.7999   71.8785   -8.5499 O.3     1  UNL1       -0.3775
     35 O          17.9629   71.6942   -9.0975 O.3     1  UNL1       -0.3794
     36 O          17.3791   69.6692   -7.2955 O.3     1  UNL1       -0.3794
     37 O          19.5141   70.2295   -5.5402 O.3     1  UNL1       -0.3258
     38 H          21.6582   71.4353   -8.5073 H       1  UNL1        0.2106
     39 H          18.5715   72.1732   -9.6741 H       1  UNL1        0.2105
     40 H          16.9580   69.7568   -8.1606 H       1  UNL1        0.2105
     41 C          17.3610   70.2040   -4.4484 C.3     1  UNL1        0.1693
     42 O          15.9993   70.5256   -4.7372 O.3     1  UNL1       -0.3794
     43 H          15.4566   70.0475   -4.0952 H       1  UNL1        0.2105
@<TRIPOS>BOND
     1    15    16   ar
     2    15    20   ar
     3    15     6    1
     4    16    17   ar
     5    16    21    2
     6    17    18   ar
     7    17    23    1
     8    18    19   ar
     9    18    22    2
    10    19    20   ar
    11     6     7    1
    12     6    11    1
    13     7     8    1
    14     7     9    1
    15     8    13    1
    16     9    10    1
    17     9    12    1
    18    10    11    1
    19    10     5    1
    20    12    14    1
    21     5     4    1
    22     4     1    1
    23     1     2    2
    24     1     3    1
    25     1    24    1
    26    24    25    1
    27    25    26    2
    28    25    27    1
    29    25    28    1
    30    28    29    1
    31    29    30    1
    32    29    37    1
    33    30    31    1
    34    30    34    1
    35    31    32    1
    36    31    35    1
    37    32    33    1
    38    32    36    1
    39    33    41    1
    40    33    37    1
    41    41    42    1
    42    34    38    1
    43    35    39    1
    44    36    40    1
    45    42    43    1
