@<TRIPOS>MOLECULE
UD1
 46 48 0 0 0
SMALL
GASTEIGER

@<TRIPOS>ATOM
      1 P          20.7999   71.6593   -2.1929 P.3     1  UNL1        0.2189
      2 O          21.5314   72.9439   -2.1341 O.2     1  UNL1       -0.5170
      3 O          21.7489   70.5304   -2.8391 O.3     1  UNL1       -0.4371
      4 O          19.4813   71.8343   -3.1004 O.3     1  UNL1       -0.3112
      5 C          18.4296   71.1256   -2.4433 C.3     1  UNL1        0.1811
      6 C          16.9028   70.5923   -5.6545 C.3     1  UNL1        0.2383
      7 C          16.9846   69.1794   -5.0241 C.3     1  UNL1        0.1895
      8 O          15.9089   68.3555   -5.4750 O.3     1  UNL1       -0.3779
      9 C          16.8472   69.4896   -3.5108 C.3     1  UNL1        0.1713
     10 C          17.2424   70.9746   -3.3956 C.3     1  UNL1        0.1764
     11 O          17.6102   71.4245   -4.7108 O.3     1  UNL1       -0.3308
     12 O          15.4995   69.2890   -3.0793 O.3     1  UNL1       -0.3794
     13 H          16.0178   67.4943   -5.0484 H       1  UNL1        0.2106
     14 H          15.2932   68.3572   -3.2317 H       1  UNL1        0.2105
     15 N          17.5626   70.6172   -6.9605 N.ar    1  UNL1       -0.2551
     16 C          16.8311   70.4741   -8.0793 C.ar    1  UNL1        0.3323
     17 N          17.4107   70.4970   -9.2941 N.ar    1  UNL1       -0.2743
     18 C          18.7448   70.6559   -9.4075 C.ar    1  UNL1        0.2626
     19 C          19.5276   70.8017   -8.2375 C.ar    1  UNL1        0.0795
     20 C          18.9198   70.7803   -7.0320 C.ar    1  UNL1        0.0869
     21 O          15.6267   70.3300   -7.9934 O.2     1  UNL1       -0.2464
     22 O          19.2706   70.6719  -10.5051 O.2     1  UNL1       -0.2670
     23 H          16.8671   70.3970  -10.0908 H       1  UNL1        0.1734
     24 O          20.3730   71.2163   -0.7062 O.3     1  UNL1       -0.2703
     25 P          21.7311   71.0782    0.1458 P.3     1  UNL1        0.2208
     26 O          22.8785   70.9286   -0.7761 O.2     1  UNL1       -0.5170
     27 O          21.6379   69.7846    1.0997 O.3     1  UNL1       -0.4371
     28 O          21.9361   72.3950    1.0483 O.3     1  UNL1       -0.2865
     29 C          21.9622   71.9641    2.4102 C.3     1  UNL1        0.2611
     30 C          21.7138   73.1650    3.3247 C.3     1  UNL1        0.1582
     31 C          22.7955   74.2208    3.0704 C.3     1  UNL1        0.1625
     32 C          24.1700   73.5604    3.2203 C.3     1  UNL1        0.1686
     33 C          24.2342   72.3312    2.3112 C.3     1  UNL1        0.1760
     34 O          22.6634   75.2801    4.0201 O.3     1  UNL1       -0.3801
     35 O          25.1896   74.4882    2.8446 O.3     1  UNL1       -0.3794
     36 O          23.2347   71.3903    2.7014 O.3     1  UNL1       -0.3263
     37 H          23.3613   75.9201    3.8237 H       1  UNL1        0.2105
     38 H          26.0364   74.0323    2.9529 H       1  UNL1        0.2105
     39 C          19.6384   74.2203    4.0409 C.2     1  UNL1        0.2231
     40 C          18.2811   74.8059    3.7457 C.3     1  UNL1        0.0946
     41 N          20.3954   73.7344    3.0384 N.am    1  UNL1       -0.2994
     42 O          20.0488   74.1859    5.1813 O.2     1  UNL1       -0.2751
     43 H          20.0671   73.7616    2.1257 H       1  UNL1        0.1496
     44 C          25.6150   71.6827    2.4291 C.3     1  UNL1        0.1693
     45 O          25.7429   70.6518    1.4478 O.3     1  UNL1       -0.3794
     46 H          26.6244   70.2700    1.5563 H       1  UNL1        0.2105
@<TRIPOS>BOND
     1    29    30    1
     2    29    28    1
     3    29    36    1
     4    30    31    1
     5    30    41    1
     6    31    32    1
     7    31    34    1
     8    32    33    1
     9    32    35    1
    10    33    44    1
    11    33    36    1
    12    44    45    1
    13    39    40    1
    14    39    41   am
    15    39    42    2
    16    41    43    1
    17    28    25    1
    18    34    37    1
    19    35    38    1
    20    45    46    1
    21    15    16   ar
    22    15    20   ar
    23    15     6    1
    24    16    17   ar
    25    16    21    2
    26    17    18   ar
    27    17    23    1
    28    18    19   ar
    29    18    22    2
    30    19    20   ar
    31     6     7    1
    32     6    11    1
    33     7     8    1
    34     7     9    1
    35     8    13    1
    36     9    10    1
    37     9    12    1
    38    10    11    1
    39    10     5    1
    40    12    14    1
    41     5     4    1
    42     4     1    1
    43     1     2    2
    44     1     3    1
    45     1    24    1
    46    24    25    1
    47    25    26    2
    48    25    27    1
@<TRIPOS>MOLECULE
UD1
 46 48 0 0 0
SMALL
GASTEIGER

@<TRIPOS>ATOM
      1 P          20.5440   71.3520   -2.1251 P.3     1  UNL1        0.2189
      2 O          20.6860   72.8230   -2.0566 O.2     1  UNL1       -0.5170
      3 O          21.9386   70.6994   -2.5962 O.3     1  UNL1       -0.4371
      4 O          19.3910   70.9734   -3.1834 O.3     1  UNL1       -0.3112
      5 C          18.1403   71.1933   -2.5292 C.3     1  UNL1        0.1811
      6 C          16.7670   70.5606   -5.7913 C.3     1  UNL1        0.2383
      7 C          16.8525   69.1629   -5.1283 C.3     1  UNL1        0.1895
      8 O          15.8160   68.3056   -5.6077 O.3     1  UNL1       -0.3779
      9 C          16.6425   69.5003   -3.6292 C.3     1  UNL1        0.1713
     10 C          16.9994   70.9959   -3.5284 C.3     1  UNL1        0.1764
     11 O          17.4141   71.4276   -4.8357 O.3     1  UNL1       -0.3308
     12 O          15.2821   69.2774   -3.2520 O.3     1  UNL1       -0.3794
     13 H          15.9252   67.4559   -5.1587 H       1  UNL1        0.2106
     14 H          15.1033   68.3381   -3.3936 H       1  UNL1        0.2105
     15 N          17.4823   70.5745   -7.0679 N.ar    1  UNL1       -0.2551
     16 C          16.7893   70.5775   -8.2199 C.ar    1  UNL1        0.3323
     17 N          17.4208   70.5942   -9.4086 N.ar    1  UNL1       -0.2743
     18 C          18.7680   70.5989   -9.4623 C.ar    1  UNL1        0.2626
     19 C          19.5100   70.5898   -8.2572 C.ar    1  UNL1        0.0795
     20 C          18.8511   70.5785   -7.0786 C.ar    1  UNL1        0.0869
     21 O          15.5737   70.5735   -8.1878 O.2     1  UNL1       -0.2464
     22 O          19.3400   70.6092  -10.5366 O.2     1  UNL1       -0.2670
     23 H          16.9050   70.6010  -10.2296 H       1  UNL1        0.1734
     24 O          20.1474   70.7829   -0.6733 O.3     1  UNL1       -0.2703
     25 P          21.3325   71.2038    0.3306 P.3     1  UNL1        0.2208
     26 O          22.3468   71.9897   -0.4058 O.2     1  UNL1       -0.5170
     27 O          22.0178   69.8796    0.9381 O.3     1  UNL1       -0.4371
     28 O          20.7312   72.0933    1.5297 O.3     1  UNL1       -0.2865
     29 C          21.4425   73.3323    1.5235 C.3     1  UNL1        0.2611
     30 C          22.4762   73.3268    2.6511 C.3     1  UNL1        0.1582
     31 C          21.7572   73.1223    3.9893 C.3     1  UNL1        0.1625
     32 C          20.6552   74.1790    4.1201 C.3     1  UNL1        0.1686
     33 C          19.7569   74.1181    2.8829 C.3     1  UNL1        0.1760
     34 O          22.6911   73.2643    5.0612 O.3     1  UNL1       -0.3801
     35 O          19.8781   73.9168    5.2901 O.3     1  UNL1       -0.3794
     36 O          20.5246   74.4066    1.7150 O.3     1  UNL1       -0.3263
     37 H          22.1975   73.1279    5.8817 H       1  UNL1        0.2105
     38 H          19.1973   74.6032    5.3334 H       1  UNL1        0.2105
     39 C          24.7469   72.4447    2.6324 C.2     1  UNL1        0.2231
     40 C          25.7289   71.3230    2.4098 C.3     1  UNL1        0.0946
     41 N          23.4306   72.2373    2.4354 N.am    1  UNL1       -0.2994
     42 O          25.1417   73.5345    2.9882 O.2     1  UNL1       -0.2751
     43 H          23.1144   71.3653    2.1504 H       1  UNL1        0.1496
     44 C          18.6335   75.1480    3.0187 C.3     1  UNL1        0.1693
     45 O          17.6719   74.9440    1.9815 O.3     1  UNL1       -0.3794
     46 H          16.9834   75.6117    2.1030 H       1  UNL1        0.2105
@<TRIPOS>BOND
     1    29    30    1
     2    29    28    1
     3    29    36    1
     4    30    31    1
     5    30    41    1
     6    31    32    1
     7    31    34    1
     8    32    33    1
     9    32    35    1
    10    33    44    1
    11    33    36    1
    12    44    45    1
    13    39    40    1
    14    39    41   am
    15    39    42    2
    16    41    43    1
    17    28    25    1
    18    34    37    1
    19    35    38    1
    20    45    46    1
    21    15    16   ar
    22    15    20   ar
    23    15     6    1
    24    16    17   ar
    25    16    21    2
    26    17    18   ar
    27    17    23    1
    28    18    19   ar
    29    18    22    2
    30    19    20   ar
    31     6     7    1
    32     6    11    1
    33     7     8    1
    34     7     9    1
    35     8    13    1
    36     9    10    1
    37     9    12    1
    38    10    11    1
    39    10     5    1
    40    12    14    1
    41     5     4    1
    42     4     1    1
    43     1     2    2
    44     1     3    1
    45     1    24    1
    46    24    25    1
    47    25    26    2
    48    25    27    1
@<TRIPOS>MOLECULE
UD1
 46 48 0 0 0
SMALL
GASTEIGER

@<TRIPOS>ATOM
      1 P          20.7270   71.4246   -1.2967 P.3     1  UNL1        0.2189
      2 O          21.5144   70.6308   -2.2656 O.2     1  UNL1       -0.5170
      3 O          20.7610   70.7026    0.1421 O.3     1  UNL1       -0.4371
      4 O          19.2032   71.5332   -1.8056 O.3     1  UNL1       -0.3112
      5 C          18.9053   70.3119   -2.4838 C.3     1  UNL1        0.1811
      6 C          17.1571   70.4414   -5.6230 C.3     1  UNL1        0.2383
      7 C          16.9732   68.9822   -5.1362 C.3     1  UNL1        0.1895
      8 O          15.7310   68.4444   -5.5911 O.3     1  UNL1       -0.3779
      9 C          16.9717   69.1510   -3.5946 C.3     1  UNL1        0.1713
     10 C          17.6706   70.5051   -3.3655 C.3     1  UNL1        0.1764
     11 O          18.0635   71.0090   -4.6535 O.3     1  UNL1       -0.3308
     12 O          15.6327   69.1810   -3.0958 O.3     1  UNL1       -0.3794
     13 H          15.6785   67.5385   -5.2562 H       1  UNL1        0.2106
     14 H          15.2313   68.3314   -3.3219 H       1  UNL1        0.2105
     15 N          17.7478   70.4719   -6.9615 N.ar    1  UNL1       -0.2551
     16 C          16.9488   70.4675   -8.0427 C.ar    1  UNL1        0.3323
     17 N          17.4644   70.4991   -9.2858 N.ar    1  UNL1       -0.2743
     18 C          18.8002   70.5264   -9.4669 C.ar    1  UNL1        0.2626
     19 C          19.6531   70.5252   -8.3375 C.ar    1  UNL1        0.0795
     20 C          19.1092   70.4987   -7.1019 C.ar    1  UNL1        0.0869
     21 O          15.7419   70.4432   -7.8957 O.2     1  UNL1       -0.2464
     22 O          19.2676   70.5500  -10.5904 O.2     1  UNL1       -0.2670
     23 H          16.8731   70.5002  -10.0542 H       1  UNL1        0.1734
     24 O          21.3577   72.8996   -1.1731 O.3     1  UNL1       -0.2703
     25 P          22.9476   72.7132   -1.0092 P.3     1  UNL1        0.2208
     26 O          23.6048   72.9093   -2.3201 O.2     1  UNL1       -0.5170
     27 O          23.2618   71.2294   -0.4688 O.3     1  UNL1       -0.4371
     28 O          23.5107   73.7955    0.0406 O.3     1  UNL1       -0.2865
     29 C          22.3848   74.5332    0.5195 C.3     1  UNL1        0.2611
     30 C          22.8653   75.8574    1.1157 C.3     1  UNL1        0.1582
     31 C          23.8467   75.5667    2.2566 C.3     1  UNL1        0.1625
     32 C          23.1760   74.6104    3.2484 C.3     1  UNL1        0.1686
     33 C          22.6747   73.3785    2.4916 C.3     1  UNL1        0.1760
     34 O          24.1870   76.7866    2.9181 O.3     1  UNL1       -0.3801
     35 O          24.1224   74.2106    4.2414 O.3     1  UNL1       -0.3794
     36 O          21.7088   73.7713    1.5174 O.3     1  UNL1       -0.3263
     37 H          24.8046   76.5575    3.6263 H       1  UNL1        0.2105
     38 H          23.6598   73.6101    4.8431 H       1  UNL1        0.2105
     39 C          24.8751   76.5828   -0.0542 C.2     1  UNL1        0.2231
     40 C          25.5656   77.3952   -1.1199 C.3     1  UNL1        0.0946
     41 N          23.5364   76.6460    0.0803 N.am    1  UNL1       -0.2994
     42 O          25.5250   75.8725    0.6829 O.2     1  UNL1       -0.2751
     43 H          23.0162   77.2145   -0.5094 H       1  UNL1        0.1496
     44 C          22.0317   72.4019    3.4785 C.3     1  UNL1        0.1693
     45 O          20.7482   72.0067    2.9902 O.3     1  UNL1       -0.3794
     46 H          20.3784   71.3936    3.6398 H       1  UNL1        0.2105
@<TRIPOS>BOND
     1    29    30    1
     2    29    28    1
     3    29    36    1
     4    30    31    1
     5    30    41    1
     6    31    32    1
     7    31    34    1
     8    32    33    1
     9    32    35    1
    10    33    44    1
    11    33    36    1
    12    44    45    1
    13    39    40    1
    14    39    41   am
    15    39    42    2
    16    41    43    1
    17    28    25    1
    18    34    37    1
    19    35    38    1
    20    45    46    1
    21    15    16   ar
    22    15    20   ar
    23    15     6    1
    24    16    17   ar
    25    16    21    2
    26    17    18   ar
    27    17    23    1
    28    18    19   ar
    29    18    22    2
    30    19    20   ar
    31     6     7    1
    32     6    11    1
    33     7     8    1
    34     7     9    1
    35     8    13    1
    36     9    10    1
    37     9    12    1
    38    10    11    1
    39    10     5    1
    40    12    14    1
    41     5     4    1
    42     4     1    1
    43     1     2    2
    44     1     3    1
    45     1    24    1
    46    24    25    1
    47    25    26    2
    48    25    27    1
@<TRIPOS>MOLECULE
UD1
 46 48 0 0 0
SMALL
GASTEIGER

@<TRIPOS>ATOM
      1 P          20.6627   71.1794   -3.1397 P.3     1  UNL1        0.2189
      2 O          20.1366   72.5239   -2.8169 O.2     1  UNL1       -0.5170
      3 O          21.2861   71.1891   -4.6243 O.3     1  UNL1       -0.4371
      4 O          19.4661   70.1042   -3.0683 O.3     1  UNL1       -0.3112
      5 C          18.3454   70.7703   -2.4845 C.3     1  UNL1        0.1811
      6 C          16.8611   70.5080   -5.7488 C.3     1  UNL1        0.2383
      7 C          16.8205   69.0649   -5.1868 C.3     1  UNL1        0.1895
      8 O          15.6969   68.3481   -5.6996 O.3     1  UNL1       -0.3779
      9 C          16.6702   69.3128   -3.6632 C.3     1  UNL1        0.1713
     10 C          17.1737   70.7560   -3.4674 C.3     1  UNL1        0.1764
     11 O          17.6063   71.2380   -4.7510 O.3     1  UNL1       -0.3308
     12 O          15.3012   69.1960   -3.2699 O.3     1  UNL1       -0.3794
     13 H          15.7299   67.4619   -5.3135 H       1  UNL1        0.2106
     14 H          15.0288   68.2909   -3.4720 H       1  UNL1        0.2105
     15 N          17.5523   70.5441   -7.0381 N.ar    1  UNL1       -0.2551
     16 C          16.8396   70.5062   -8.1774 C.ar    1  UNL1        0.3323
     17 N          17.4486   70.5419   -9.3774 N.ar    1  UNL1       -0.2743
     18 C          18.7931   70.6074   -9.4554 C.ar    1  UNL1        0.2626
     19 C          19.5558   70.6419   -8.2639 C.ar    1  UNL1        0.0795
     20 C          18.9191   70.6102   -7.0736 C.ar    1  UNL1        0.0869
     21 O          15.6263   70.4471   -8.1235 O.2     1  UNL1       -0.2464
     22 O          19.3450   70.6349  -10.5399 O.2     1  UNL1       -0.2670
     23 H          16.9186   70.5185  -10.1891 H       1  UNL1        0.1734
     24 O          21.8055   70.7814   -2.0793 O.3     1  UNL1       -0.2703
     25 P          23.0748   71.7206   -2.3894 P.3     1  UNL1        0.2208
     26 O          22.6902   72.7625   -3.3668 O.2     1  UNL1       -0.5170
     27 O          24.2677   70.8277   -2.9993 O.3     1  UNL1       -0.4371
     28 O          23.5720   72.4197   -1.0276 O.3     1  UNL1       -0.2865
     29 C          22.7401   71.9218    0.0217 C.3     1  UNL1        0.2611
     30 C          22.0997   73.0985    0.7601 C.3     1  UNL1        0.1582
     31 C          23.2055   73.9966    1.3262 C.3     1  UNL1        0.1625
     32 C          24.1527   73.1357    2.1687 C.3     1  UNL1        0.1686
     33 C          24.6406   71.9577    1.3229 C.3     1  UNL1        0.1760
     34 O          22.6242   75.0147    2.1429 O.3     1  UNL1       -0.3801
     35 O          25.2705   73.9224    2.5850 O.3     1  UNL1       -0.3794
     36 O          23.5291   71.1544    0.9283 O.3     1  UNL1       -0.3263
     37 H          23.3534   75.5550    2.4770 H       1  UNL1        0.2105
     38 H          25.8402   73.3429    3.1105 H       1  UNL1        0.2105
     39 C          21.7752   74.9583   -0.7795 C.2     1  UNL1        0.2231
     40 C          20.9214   75.7504   -1.7365 C.3     1  UNL1        0.0946
     41 N          21.2709   73.8680   -0.1701 N.am    1  UNL1       -0.2994
     42 O          22.9163   75.3029   -0.5573 O.2     1  UNL1       -0.2751
     43 H          20.3577   73.5922   -0.3476 H       1  UNL1        0.1496
     44 C          25.6130   71.1094    2.1450 C.3     1  UNL1        0.1693
     45 O          24.9136   70.0024    2.7174 O.3     1  UNL1       -0.3794
     46 H          25.5607   69.4953    3.2260 H       1  UNL1        0.2105
@<TRIPOS>BOND
     1    29    30    1
     2    29    28    1
     3    29    36    1
     4    30    31    1
     5    30    41    1
     6    31    32    1
     7    31    34    1
     8    32    33    1
     9    32    35    1
    10    33    44    1
    11    33    36    1
    12    44    45    1
    13    39    40    1
    14    39    41   am
    15    39    42    2
    16    41    43    1
    17    28    25    1
    18    34    37    1
    19    35    38    1
    20    45    46    1
    21    15    16   ar
    22    15    20   ar
    23    15     6    1
    24    16    17   ar
    25    16    21    2
    26    17    18   ar
    27    17    23    1
    28    18    19   ar
    29    18    22    2
    30    19    20   ar
    31     6     7    1
    32     6    11    1
    33     7     8    1
    34     7     9    1
    35     8    13    1
    36     9    10    1
    37     9    12    1
    38    10    11    1
    39    10     5    1
    40    12    14    1
    41     5     4    1
    42     4     1    1
    43     1     2    2
    44     1     3    1
    45     1    24    1
    46    24    25    1
    47    25    26    2
    48    25    27    1
@<TRIPOS>MOLECULE
UD1
 46 48 0 0 0
SMALL
GASTEIGER

@<TRIPOS>ATOM
      1 P          20.4403   71.3594   -2.4592 P.3     1  UNL1        0.2189
      2 O          20.0778   72.7836   -2.2888 O.2     1  UNL1       -0.5170
      3 O          21.5297   71.2201   -3.6367 O.3     1  UNL1       -0.4371
      4 O          19.1251   70.5137   -2.8435 O.3     1  UNL1       -0.3112
      5 C          17.9998   71.3463   -2.5590 C.3     1  UNL1        0.1811
      6 C          16.7198   70.5573   -5.8249 C.3     1  UNL1        0.2383
      7 C          16.8575   69.1846   -5.1200 C.3     1  UNL1        0.1895
      8 O          15.8713   68.2662   -5.5923 O.3     1  UNL1       -0.3779
      9 C          16.6036   69.5541   -3.6353 C.3     1  UNL1        0.1713
     10 C          16.8885   71.0672   -3.5721 C.3     1  UNL1        0.1764
     11 O          17.3075   71.4806   -4.8838 O.3     1  UNL1       -0.3308
     12 O          15.2480   69.2783   -3.2759 O.3     1  UNL1       -0.3794
     13 H          16.0114   67.4357   -5.1168 H       1  UNL1        0.2106
     14 H          15.1159   68.3281   -3.3930 H       1  UNL1        0.2105
     15 N          17.4577   70.5686   -7.0886 N.ar    1  UNL1       -0.2551
     16 C          16.7855   70.5784   -8.2527 C.ar    1  UNL1        0.3323
     17 N          17.4382   70.5929   -9.4300 N.ar    1  UNL1       -0.2743
     18 C          18.7862   70.5884   -9.4596 C.ar    1  UNL1        0.2626
     19 C          19.5064   70.5721   -8.2415 C.ar    1  UNL1        0.0795
     20 C          18.8265   70.5632   -7.0749 C.ar    1  UNL1        0.0869
     21 O          15.5695   70.5827   -8.2424 O.2     1  UNL1       -0.2464
     22 O          19.3773   70.5966  -10.5235 O.2     1  UNL1       -0.2670
     23 H          16.9372   70.6047  -10.2601 H       1  UNL1        0.1734
     24 O          21.0586   70.7948   -1.0852 O.3     1  UNL1       -0.2703
     25 P          20.9480   71.9811   -0.0036 P.3     1  UNL1        0.2208
     26 O          21.3323   71.4696    1.3304 O.2     1  UNL1       -0.5170
     27 O          19.4328   72.5232    0.0464 O.3     1  UNL1       -0.4371
     28 O          21.9330   73.1835   -0.4214 O.3     1  UNL1       -0.2865
     29 C          23.2639   72.6665   -0.3683 C.3     1  UNL1        0.2611
     30 C          24.1354   73.6009    0.4727 C.3     1  UNL1        0.1582
     31 C          24.1227   74.9990   -0.1557 C.3     1  UNL1        0.1625
     32 C          24.5288   74.8781   -1.6283 C.3     1  UNL1        0.1686
     33 C          23.6254   73.8494   -2.3116 C.3     1  UNL1        0.1760
     34 O          25.0489   75.8417    0.5323 O.3     1  UNL1       -0.3801
     35 O          24.3821   76.1463   -2.2701 O.3     1  UNL1       -0.3794
     36 O          23.7899   72.5752   -1.6905 O.3     1  UNL1       -0.3263
     37 H          25.0081   76.7086    0.1056 H       1  UNL1        0.2105
     38 H          24.6469   76.0250   -3.1930 H       1  UNL1        0.2105
     39 C          24.4461   73.6716    2.8879 C.2     1  UNL1        0.2231
     40 C          23.8994   73.7432    4.2908 C.3     1  UNL1        0.0946
     41 N          23.6049   73.6709    1.8358 N.am    1  UNL1       -0.2994
     42 O          25.6434   73.6140    2.7059 O.2     1  UNL1       -0.2751
     43 H          22.6466   73.7168    1.9812 H       1  UNL1        0.1496
     44 C          24.0016   73.7450   -3.7910 C.3     1  UNL1        0.1693
     45 O          24.3183   72.3880   -4.1077 O.3     1  UNL1       -0.3794
     46 H          24.5495   72.3663   -5.0462 H       1  UNL1        0.2105
@<TRIPOS>BOND
     1    29    30    1
     2    29    28    1
     3    29    36    1
     4    30    31    1
     5    30    41    1
     6    31    32    1
     7    31    34    1
     8    32    33    1
     9    32    35    1
    10    33    44    1
    11    33    36    1
    12    44    45    1
    13    39    40    1
    14    39    41   am
    15    39    42    2
    16    41    43    1
    17    28    25    1
    18    34    37    1
    19    35    38    1
    20    45    46    1
    21    15    16   ar
    22    15    20   ar
    23    15     6    1
    24    16    17   ar
    25    16    21    2
    26    17    18   ar
    27    17    23    1
    28    18    19   ar
    29    18    22    2
    30    19    20   ar
    31     6     7    1
    32     6    11    1
    33     7     8    1
    34     7     9    1
    35     8    13    1
    36     9    10    1
    37     9    12    1
    38    10    11    1
    39    10     5    1
    40    12    14    1
    41     5     4    1
    42     4     1    1
    43     1     2    2
    44     1     3    1
    45     1    24    1
    46    24    25    1
    47    25    26    2
    48    25    27    1
@<TRIPOS>MOLECULE
UD1
 46 48 0 0 0
SMALL
GASTEIGER

@<TRIPOS>ATOM
      1 P          21.1908   71.0315   -3.4322 P.3     1  UNL1        0.2189
      2 O          21.0109   69.8194   -4.2611 O.2     1  UNL1       -0.5170
      3 O          22.5612   70.9110   -2.5955 O.3     1  UNL1       -0.4371
      4 O          19.9519   71.1729   -2.4134 O.3     1  UNL1       -0.3112
      5 C          19.1485   70.0027   -2.5738 C.3     1  UNL1        0.1811
      6 C          17.2879   70.4145   -5.6227 C.3     1  UNL1        0.2383
      7 C          16.9817   68.9635   -5.1741 C.3     1  UNL1        0.1895
      8 O          15.6740   68.5659   -5.5874 O.3     1  UNL1       -0.3779
      9 C          17.0635   69.0762   -3.6295 C.3     1  UNL1        0.1713
     10 C          17.9021   70.3468   -3.3907 C.3     1  UNL1        0.1764
     11 O          18.2870   70.8559   -4.6790 O.3     1  UNL1       -0.3308
     12 O          15.7568   69.2186   -3.0683 O.3     1  UNL1       -0.3794
     13 H          15.5466   67.6581   -5.2791 H       1  UNL1        0.2106
     14 H          15.2640   68.4208   -3.3022 H       1  UNL1        0.2105
     15 N          17.8204   70.4353   -6.9856 N.ar    1  UNL1       -0.2551
     16 C          16.9752   70.4597   -8.0308 C.ar    1  UNL1        0.3323
     17 N          17.4369   70.4831   -9.2952 N.ar    1  UNL1       -0.2743
     18 C          18.7638   70.4732   -9.5343 C.ar    1  UNL1        0.2626
     19 C          19.6647   70.4415   -8.4433 C.ar    1  UNL1        0.0795
     20 C          19.1746   70.4238   -7.1852 C.ar    1  UNL1        0.0869
     21 O          15.7758   70.4691   -7.8314 O.2     1  UNL1       -0.2464
     22 O          19.1824   70.4895  -10.6770 O.2     1  UNL1       -0.2670
     23 H          16.8130   70.5054  -10.0370 H       1  UNL1        0.1734
     24 O          21.2537   72.3277   -4.3833 O.3     1  UNL1       -0.2703
     25 P          22.5943   73.1270   -3.9917 P.3     1  UNL1        0.2208
     26 O          22.4333   74.5574   -4.3338 O.2     1  UNL1       -0.5170
     27 O          23.8411   72.5178   -4.8080 O.3     1  UNL1       -0.4371
     28 O          22.8659   72.9804   -2.4120 O.3     1  UNL1       -0.2865
     29 C          22.2615   74.1107   -1.7809 C.3     1  UNL1        0.2611
     30 C          23.3466   74.9548   -1.1101 C.3     1  UNL1        0.1582
     31 C          24.0879   74.0930   -0.0818 C.3     1  UNL1        0.1625
     32 C          23.0599   73.4750    0.8719 C.3     1  UNL1        0.1686
     33 C          21.9980   72.7398    0.0515 C.3     1  UNL1        0.1760
     34 O          25.0014   74.9072    0.6558 O.3     1  UNL1       -0.3801
     35 O          23.7132   72.5531    1.7465 O.3     1  UNL1       -0.3794
     36 O          21.3247   73.6629   -0.8035 O.3     1  UNL1       -0.3263
     37 H          25.4449   74.3262    1.2891 H       1  UNL1        0.2105
     38 H          23.0312   72.1876    2.3277 H       1  UNL1        0.2105
     39 C          24.3883   76.7497   -2.3858 C.2     1  UNL1        0.2231
     40 C          25.3604   77.2409   -3.4279 C.3     1  UNL1        0.0946
     41 N          24.2912   75.4325   -2.1220 N.am    1  UNL1       -0.2994
     42 O          23.6927   77.5406   -1.7849 O.2     1  UNL1       -0.2751
     43 H          24.8475   74.7994   -2.6028 H       1  UNL1        0.1496
     44 C          20.9841   72.0912    0.9963 C.3     1  UNL1        0.1693
     45 O          20.7769   70.7306    0.6119 O.3     1  UNL1       -0.3794
     46 H          20.1331   70.3600    1.2307 H       1  UNL1        0.2105
@<TRIPOS>BOND
     1    29    30    1
     2    29    28    1
     3    29    36    1
     4    30    31    1
     5    30    41    1
     6    31    32    1
     7    31    34    1
     8    32    33    1
     9    32    35    1
    10    33    44    1
    11    33    36    1
    12    44    45    1
    13    39    40    1
    14    39    41   am
    15    39    42    2
    16    41    43    1
    17    28    25    1
    18    34    37    1
    19    35    38    1
    20    45    46    1
    21    15    16   ar
    22    15    20   ar
    23    15     6    1
    24    16    17   ar
    25    16    21    2
    26    17    18   ar
    27    17    23    1
    28    18    19   ar
    29    18    22    2
    30    19    20   ar
    31     6     7    1
    32     6    11    1
    33     7     8    1
    34     7     9    1
    35     8    13    1
    36     9    10    1
    37     9    12    1
    38    10    11    1
    39    10     5    1
    40    12    14    1
    41     5     4    1
    42     4     1    1
    43     1     2    2
    44     1     3    1
    45     1    24    1
    46    24    25    1
    47    25    26    2
    48    25    27    1
@<TRIPOS>MOLECULE
UD1
 46 48 0 0 0
SMALL
GASTEIGER

@<TRIPOS>ATOM
      1 P          16.2362   69.6535   -2.5968 P.3     1  UNL1        0.2189
      2 O          15.9398   69.2738   -3.9957 O.2     1  UNL1       -0.5170
      3 O          16.9450   68.4191   -1.8443 O.3     1  UNL1       -0.4371
      4 O          14.8644   70.0258   -1.8402 O.3     1  UNL1       -0.3112
      5 C          14.7442   69.1280   -0.7357 C.3     1  UNL1        0.1811
      6 C          12.0119   67.9230    1.2667 C.3     1  UNL1        0.2383
      7 C          12.2350   69.3780    1.7498 C.3     1  UNL1        0.1895
      8 O          11.0100   69.9629    2.1930 O.3     1  UNL1       -0.3779
      9 C          12.7463   70.0740    0.4617 C.3     1  UNL1        0.1713
     10 C          13.2653   68.9140   -0.4099 C.3     1  UNL1        0.1764
     11 O          13.1016   67.7020    0.3462 O.3     1  UNL1       -0.3308
     12 O          11.6780   70.7614   -0.1934 O.3     1  UNL1       -0.3794
     13 H          11.2170   70.8632    2.4795 H       1  UNL1        0.2106
     14 H          11.3580   71.4327    0.4238 H       1  UNL1        0.2105
     15 N          12.0857   66.9861    2.3884 N.ar    1  UNL1       -0.2551
     16 C          13.2829   66.5368    2.8035 C.ar    1  UNL1        0.3323
     17 N          13.3811   65.6777    3.8353 N.ar    1  UNL1       -0.2743
     18 C          12.2713   65.2444    4.4666 C.ar    1  UNL1        0.2626
     19 C          11.0042   65.7047    4.0360 C.ar    1  UNL1        0.0795
     20 C          10.9349   66.5704    3.0020 C.ar    1  UNL1        0.0869
     21 O          14.2929   66.9185    2.2443 O.2     1  UNL1       -0.2464
     22 O          12.3586   64.4639    5.3965 O.2     1  UNL1       -0.2670
     23 H          14.2531   65.3676    4.1245 H       1  UNL1        0.1734
     24 O          17.2190   70.9274   -2.5833 O.3     1  UNL1       -0.2703
     25 P          18.7000   70.3751   -2.8850 P.3     1  UNL1        0.2208
     26 O          18.6149   68.9894   -3.3963 O.2     1  UNL1       -0.5170
     27 O          19.5672   70.3935   -1.5286 O.3     1  UNL1       -0.4371
     28 O          19.4090   71.3107   -3.9862 O.3     1  UNL1       -0.2865
     29 C          20.4828   70.5520   -4.5453 C.3     1  UNL1        0.2611
     30 C          21.7916   71.3242   -4.3700 C.3     1  UNL1        0.1582
     31 C          21.6688   72.6835   -5.0677 C.3     1  UNL1        0.1625
     32 C          21.2378   72.4520   -6.5198 C.3     1  UNL1        0.1686
     33 C          19.9688   71.5971   -6.5327 C.3     1  UNL1        0.1760
     34 O          22.9315   73.3516   -5.0402 O.3     1  UNL1       -0.3801
     35 O          20.9755   73.7089   -7.1466 O.3     1  UNL1       -0.3794
     36 O          20.2347   70.3303   -5.9319 O.3     1  UNL1       -0.3263
     37 H          22.8086   74.1998   -5.4881 H       1  UNL1        0.2105
     38 H          20.7072   73.5172   -8.0565 H       1  UNL1        0.2105
     39 C          23.2759   71.2698   -2.4391 C.2     1  UNL1        0.2231
     40 C          23.5450   71.4780   -0.9706 C.3     1  UNL1        0.0946
     41 N          22.0537   71.5267   -2.9436 N.am    1  UNL1       -0.2994
     42 O          24.1596   70.8703   -3.1668 O.2     1  UNL1       -0.2751
     43 H          21.3462   71.8462   -2.3614 H       1  UNL1        0.1496
     44 C          19.5115   71.3872   -7.9777 C.3     1  UNL1        0.1693
     45 O          20.6007   71.6482   -8.8652 O.3     1  UNL1       -0.3794
     46 H          20.2709   71.5051   -9.7626 H       1  UNL1        0.2105
@<TRIPOS>BOND
     1    29    30    1
     2    29    28    1
     3    29    36    1
     4    30    31    1
     5    30    41    1
     6    31    32    1
     7    31    34    1
     8    32    33    1
     9    32    35    1
    10    33    44    1
    11    33    36    1
    12    44    45    1
    13    39    40    1
    14    39    41   am
    15    39    42    2
    16    41    43    1
    17    28    25    1
    18    34    37    1
    19    35    38    1
    20    45    46    1
    21    15    16   ar
    22    15    20   ar
    23    15     6    1
    24    16    17   ar
    25    16    21    2
    26    17    18   ar
    27    17    23    1
    28    18    19   ar
    29    18    22    2
    30    19    20   ar
    31     6     7    1
    32     6    11    1
    33     7     8    1
    34     7     9    1
    35     8    13    1
    36     9    10    1
    37     9    12    1
    38    10    11    1
    39    10     5    1
    40    12    14    1
    41     5     4    1
    42     4     1    1
    43     1     2    2
    44     1     3    1
    45     1    24    1
    46    24    25    1
    47    25    26    2
    48    25    27    1
@<TRIPOS>MOLECULE
UD1
 46 48 0 0 0
SMALL
GASTEIGER

@<TRIPOS>ATOM
      1 P          23.2913   72.0816   -3.5207 P.3     1  UNL1        0.2189
      2 O          24.1773   70.9340   -3.2262 O.2     1  UNL1       -0.5170
      3 O          23.8268   72.8510   -4.8299 O.3     1  UNL1       -0.4371
      4 O          23.2900   73.0932   -2.2679 O.3     1  UNL1       -0.3112
      5 C          22.2371   72.6739   -1.3984 C.3     1  UNL1        0.1811
      6 C          24.1805   71.7677    1.4876 C.3     1  UNL1        0.2383
      7 C          22.7648   72.0549    2.0475 C.3     1  UNL1        0.1895
      8 O          22.4979   71.2528    3.1984 O.3     1  UNL1       -0.3779
      9 C          21.8554   71.6408    0.8614 C.3     1  UNL1        0.1713
     10 C          22.7897   71.6934   -0.3628 C.3     1  UNL1        0.1764
     11 O          24.0760   72.1417    0.0974 O.3     1  UNL1       -0.3308
     12 O          21.3498   70.3183    1.0566 O.3     1  UNL1       -0.3794
     13 H          21.6061   71.4789    3.4968 H       1  UNL1        0.2106
     14 H          20.8241   70.3372    1.8674 H       1  UNL1        0.2105
     15 N          25.1843   72.5866    2.1684 N.ar    1  UNL1       -0.2551
     16 C          26.3068   72.0130    2.6355 C.ar    1  UNL1        0.3323
     17 N          27.2489   72.7425    3.2621 N.ar    1  UNL1       -0.2743
     18 C          27.0753   74.0676    3.4402 C.ar    1  UNL1        0.2626
     19 C          25.8954   74.6833    2.9588 C.ar    1  UNL1        0.0795
     20 C          24.9693   73.9289    2.3291 C.ar    1  UNL1        0.0869
     21 O          26.4779   70.8189    2.4824 O.2     1  UNL1       -0.2464
     22 O          27.9242   74.7273    4.0109 O.2     1  UNL1       -0.2670
     23 H          28.0547   72.3131    3.5884 H       1  UNL1        0.1734
     24 O          21.7952   71.5510   -3.7833 O.3     1  UNL1       -0.2703
     25 P          21.2473   72.3285   -5.0813 P.3     1  UNL1        0.2208
     26 O          22.0132   71.9003   -6.2724 O.2     1  UNL1       -0.5170
     27 O          21.4246   73.9150   -4.8720 O.3     1  UNL1       -0.4371
     28 O          19.6888   71.9877   -5.2945 O.3     1  UNL1       -0.2865
     29 C          19.5968   70.5760   -5.4944 C.3     1  UNL1        0.2611
     30 C          18.4093   70.2719   -6.4095 C.3     1  UNL1        0.1582
     31 C          17.1280   70.8116   -5.7641 C.3     1  UNL1        0.1625
     32 C          17.0186   70.2459   -4.3442 C.3     1  UNL1        0.1686
     33 C          18.3101   70.5548   -3.5838 C.3     1  UNL1        0.1760
     34 O          15.9956   70.4040   -6.5341 O.3     1  UNL1       -0.3801
     35 O          15.9112   70.8499   -3.6731 O.3     1  UNL1       -0.3794
     36 O          19.4148   69.9300   -4.2363 O.3     1  UNL1       -0.3263
     37 H          15.2138   70.7645   -6.0936 H       1  UNL1        0.2105
     38 H          15.8795   70.4669   -2.7850 H       1  UNL1        0.2105
     39 C          18.9797   70.1823   -8.7761 C.2     1  UNL1        0.2231
     40 C          19.1906   70.8468  -10.1126 C.3     1  UNL1        0.0946
     41 N          18.6138   70.9169   -7.7082 N.am    1  UNL1       -0.2994
     42 O          19.1402   68.9859   -8.6619 O.2     1  UNL1       -0.2751
     43 H          18.4855   71.8744   -7.7992 H       1  UNL1        0.1496
     44 C          18.1982   70.0223   -2.1538 C.3     1  UNL1        0.1693
     45 O          19.3820   70.3568   -1.4265 O.3     1  UNL1       -0.3794
     46 H          19.2709   70.0037   -0.5334 H       1  UNL1        0.2105
@<TRIPOS>BOND
     1    29    30    1
     2    29    28    1
     3    29    36    1
     4    30    31    1
     5    30    41    1
     6    31    32    1
     7    31    34    1
     8    32    33    1
     9    32    35    1
    10    33    44    1
    11    33    36    1
    12    44    45    1
    13    39    40    1
    14    39    41   am
    15    39    42    2
    16    41    43    1
    17    28    25    1
    18    34    37    1
    19    35    38    1
    20    45    46    1
    21    15    16   ar
    22    15    20   ar
    23    15     6    1
    24    16    17   ar
    25    16    21    2
    26    17    18   ar
    27    17    23    1
    28    18    19   ar
    29    18    22    2
    30    19    20   ar
    31     6     7    1
    32     6    11    1
    33     7     8    1
    34     7     9    1
    35     8    13    1
    36     9    10    1
    37     9    12    1
    38    10    11    1
    39    10     5    1
    40    12    14    1
    41     5     4    1
    42     4     1    1
    43     1     2    2
    44     1     3    1
    45     1    24    1
    46    24    25    1
    47    25    26    2
    48    25    27    1
@<TRIPOS>MOLECULE
UD1
 46 48 0 0 0
SMALL
GASTEIGER

@<TRIPOS>ATOM
      1 P          21.8669   71.2570   -0.1854 P.3     1  UNL1        0.2189
      2 O          21.5490   70.2206    0.8214 O.2     1  UNL1       -0.5170
      3 O          23.3496   71.0085   -0.7618 O.3     1  UNL1       -0.4371
      4 O          21.7961   72.7115    0.5017 O.3     1  UNL1       -0.3112
      5 C          22.8842   72.7869    1.4241 C.3     1  UNL1        0.1811
      6 C          22.6744   73.2404    4.9847 C.3     1  UNL1        0.2383
      7 C          21.4841   74.0547    4.4189 C.3     1  UNL1        0.1895
      8 O          20.3958   74.0784    5.3431 O.3     1  UNL1       -0.3779
      9 C          21.1129   73.2481    3.1474 C.3     1  UNL1        0.1713
     10 C          22.3876   72.4430    2.8293 C.3     1  UNL1        0.1764
     11 O          23.3810   72.8092    3.8021 O.3     1  UNL1       -0.3308
     12 O          20.0141   72.3734    3.4128 O.3     1  UNL1       -0.3794
     13 H          19.6912   74.5988    4.9329 H       1  UNL1        0.2106
     14 H          19.2664   72.9323    3.6631 H       1  UNL1        0.2105
     15 N          23.5311   74.0840    5.8189 N.ar    1  UNL1       -0.2551
     16 C          24.4889   74.8335    5.2462 C.ar    1  UNL1        0.3323
     17 N          25.2888   75.6218    5.9885 N.ar    1  UNL1       -0.2743
     18 C          25.1463   75.6648    7.3286 C.ar    1  UNL1        0.2626
     19 C          24.1459   74.8762    7.9451 C.ar    1  UNL1        0.0795
     20 C          23.3539   74.0985    7.1762 C.ar    1  UNL1        0.0869
     21 O          24.6296   74.8056    4.0387 O.2     1  UNL1       -0.2464
     22 O          25.8721   76.3735    8.0012 O.2     1  UNL1       -0.2670
     23 H          25.9713   76.1595    5.5582 H       1  UNL1        0.1734
     24 O          20.8022   71.1801   -1.3893 O.3     1  UNL1       -0.2703
     25 P          21.3765   72.1009   -2.5773 P.3     1  UNL1        0.2208
     26 O          22.6204   71.5014   -3.1086 O.2     1  UNL1       -0.5170
     27 O          21.6914   73.5747   -2.0107 O.3     1  UNL1       -0.4371
     28 O          20.2843   72.2025   -3.7552 O.3     1  UNL1       -0.2865
     29 C          20.7127   71.3211   -4.7948 C.3     1  UNL1        0.2611
     30 C          20.2596   71.8764   -6.1463 C.3     1  UNL1        0.1582
     31 C          18.7327   72.0113   -6.1462 C.3     1  UNL1        0.1625
     32 C          18.1213   70.6609   -5.7580 C.3     1  UNL1        0.1686
     33 C          18.7336   70.1988   -4.4341 C.3     1  UNL1        0.1760
     34 O          18.2851   72.3862   -7.4503 O.3     1  UNL1       -0.3801
     35 O          16.7073   70.8017   -5.6089 O.3     1  UNL1       -0.3794
     36 O          20.1425   70.0307   -4.5871 O.3     1  UNL1       -0.3263
     37 H          17.3219   72.4599   -7.4046 H       1  UNL1        0.2105
     38 H          16.3637   69.9307   -5.3641 H       1  UNL1        0.2105
     39 C          22.1958   73.2933   -6.5678 C.2     1  UNL1        0.2231
     40 C          22.8218   74.6460   -6.7925 C.3     1  UNL1        0.0946
     41 N          20.8682   73.1902   -6.3651 N.am    1  UNL1       -0.2994
     42 O          22.8874   72.2974   -6.5688 O.2     1  UNL1       -0.2751
     43 H          20.3145   73.9870   -6.3639 H       1  UNL1        0.1496
     44 C          18.1058   68.8660   -4.0209 C.3     1  UNL1        0.1693
     45 O          17.6237   68.9618   -2.6791 O.3     1  UNL1       -0.3794
     46 H          17.2372   68.1035   -2.4586 H       1  UNL1        0.2105
@<TRIPOS>BOND
     1    29    30    1
     2    29    28    1
     3    29    36    1
     4    30    31    1
     5    30    41    1
     6    31    32    1
     7    31    34    1
     8    32    33    1
     9    32    35    1
    10    33    44    1
    11    33    36    1
    12    44    45    1
    13    39    40    1
    14    39    41   am
    15    39    42    2
    16    41    43    1
    17    28    25    1
    18    34    37    1
    19    35    38    1
    20    45    46    1
    21    15    16   ar
    22    15    20   ar
    23    15     6    1
    24    16    17   ar
    25    16    21    2
    26    17    18   ar
    27    17    23    1
    28    18    19   ar
    29    18    22    2
    30    19    20   ar
    31     6     7    1
    32     6    11    1
    33     7     8    1
    34     7     9    1
    35     8    13    1
    36     9    10    1
    37     9    12    1
    38    10    11    1
    39    10     5    1
    40    12    14    1
    41     5     4    1
    42     4     1    1
    43     1     2    2
    44     1     3    1
    45     1    24    1
    46    24    25    1
    47    25    26    2
    48    25    27    1
@<TRIPOS>MOLECULE
UD1
 46 48 0 0 0
SMALL
GASTEIGER

@<TRIPOS>ATOM
      1 P          21.7431   72.5414   -6.3642 P.3     1  UNL1        0.2189
      2 O          20.6645   73.5092   -6.6624 O.2     1  UNL1       -0.5170
      3 O          23.1127   73.0356   -7.0517 O.3     1  UNL1       -0.4371
      4 O          21.3422   71.0953   -6.9479 O.3     1  UNL1       -0.3112
      5 C          20.5832   71.3244   -8.1361 C.3     1  UNL1        0.1811
      6 C          17.4264   70.1122   -6.9143 C.3     1  UNL1        0.2383
      7 C          17.0494   71.1499   -8.0012 C.3     1  UNL1        0.1895
      8 O          15.8194   70.8004   -8.6369 O.3     1  UNL1       -0.3779
      9 C          18.2373   71.0309   -8.9910 C.3     1  UNL1        0.1713
     10 C          19.3641   70.4009   -8.1496 C.3     1  UNL1        0.1764
     11 O          18.8610   70.2356   -6.8129 O.3     1  UNL1       -0.3308
     12 O          17.8908   70.1842  -10.0890 O.3     1  UNL1       -0.3794
     13 H          15.6423   71.4830   -9.2988 H       1  UNL1        0.2106
     14 H          17.1441   70.6016  -10.5388 H       1  UNL1        0.2105
     15 N          16.7886   70.4408   -5.6389 N.ar    1  UNL1       -0.2551
     16 C          16.4193   69.4534   -4.8047 C.ar    1  UNL1        0.3323
     17 N          15.8342   69.7265   -3.6234 N.ar    1  UNL1       -0.2743
     18 C          15.5997   71.0037   -3.2605 C.ar    1  UNL1        0.2626
     19 C          15.9779   72.0527   -4.1319 C.ar    1  UNL1        0.0795
     20 C          16.5679   71.7507   -5.3083 C.ar    1  UNL1        0.0869
     21 O          16.6242   68.2964   -5.1179 O.2     1  UNL1       -0.2464
     22 O          15.0664   71.2515   -2.1949 O.2     1  UNL1       -0.2670
     23 H          15.5787   69.0019   -3.0319 H       1  UNL1        0.1734
     24 O          21.9473   72.4393   -4.7715 O.3     1  UNL1       -0.2703
     25 P          22.9462   73.6296   -4.3537 P.3     1  UNL1        0.2208
     26 O          22.8651   74.7158   -5.3549 O.2     1  UNL1       -0.5170
     27 O          24.4542   73.0690   -4.2921 O.3     1  UNL1       -0.4371
     28 O          22.5280   74.2003   -2.9080 O.3     1  UNL1       -0.2865
     29 C          23.0043   73.2644   -1.9393 C.3     1  UNL1        0.2611
     30 C          21.8399   72.8176   -1.0536 C.3     1  UNL1        0.1582
     31 C          21.2328   74.0459   -0.3664 C.3     1  UNL1        0.1625
     32 C          22.3499   74.8041    0.3585 C.3     1  UNL1        0.1686
     33 C          23.4746   75.1037   -0.6347 C.3     1  UNL1        0.1760
     34 O          20.2439   73.6274    0.5761 O.3     1  UNL1       -0.3801
     35 O          21.8340   76.0292    0.8824 O.3     1  UNL1       -0.3794
     36 O          24.0107   73.8812   -1.1393 O.3     1  UNL1       -0.3263
     37 H          19.8890   74.4296    0.9835 H       1  UNL1        0.2105
     38 H          22.5686   76.4739    1.3287 H       1  UNL1        0.2105
     39 C          20.2270   71.0341   -1.4438 C.2     1  UNL1        0.2231
     40 C          19.1789   70.3600   -2.2919 C.3     1  UNL1        0.0946
     41 N          20.8213   72.1626   -1.8769 N.am    1  UNL1       -0.2994
     42 O          20.5360   70.5602   -0.3714 O.2     1  UNL1       -0.2751
     43 H          20.5744   72.5420   -2.7352 H       1  UNL1        0.1496
     44 C          24.5813   75.8894    0.0718 C.3     1  UNL1        0.1693
     45 O          25.2810   75.0253    0.9694 O.3     1  UNL1       -0.3794
     46 H          25.9674   75.5583    1.3929 H       1  UNL1        0.2105
@<TRIPOS>BOND
     1    29    30    1
     2    29    28    1
     3    29    36    1
     4    30    31    1
     5    30    41    1
     6    31    32    1
     7    31    34    1
     8    32    33    1
     9    32    35    1
    10    33    44    1
    11    33    36    1
    12    44    45    1
    13    39    40    1
    14    39    41   am
    15    39    42    2
    16    41    43    1
    17    28    25    1
    18    34    37    1
    19    35    38    1
    20    45    46    1
    21    15    16   ar
    22    15    20   ar
    23    15     6    1
    24    16    17   ar
    25    16    21    2
    26    17    18   ar
    27    17    23    1
    28    18    19   ar
    29    18    22    2
    30    19    20   ar
    31     6     7    1
    32     6    11    1
    33     7     8    1
    34     7     9    1
    35     8    13    1
    36     9    10    1
    37     9    12    1
    38    10    11    1
    39    10     5    1
    40    12    14    1
    41     5     4    1
    42     4     1    1
    43     1     2    2
    44     1     3    1
    45     1    24    1
    46    24    25    1
    47    25    26    2
    48    25    27    1
@<TRIPOS>MOLECULE
UD1
 46 48 0 0 0
SMALL
GASTEIGER

@<TRIPOS>ATOM
      1 P          21.1597   71.5827   -1.6293 P.3     1  UNL1        0.2189
      2 O          20.7741   70.6820   -0.5207 O.2     1  UNL1       -0.5170
      3 O          21.1862   73.1034   -1.1008 O.3     1  UNL1       -0.4371
      4 O          20.0895   71.4498   -2.8250 O.3     1  UNL1       -0.3112
      5 C          19.1286   70.4760   -2.4141 C.3     1  UNL1        0.1811
      6 C          17.2865   70.4986   -5.5017 C.3     1  UNL1        0.2383
      7 C          17.1607   69.0434   -4.9853 C.3     1  UNL1        0.1895
      8 O          15.9225   68.4612   -5.3941 O.3     1  UNL1       -0.3779
      9 C          17.1992   69.2392   -3.4474 C.3     1  UNL1        0.1713
     10 C          17.8634   70.6172   -3.2619 C.3     1  UNL1        0.1764
     11 O          18.2034   71.1097   -4.5692 O.3     1  UNL1       -0.3308
     12 O          15.8749   69.2385   -2.9096 O.3     1  UNL1       -0.3794
     13 H          15.9069   67.5603   -5.0426 H       1  UNL1        0.2106
     14 H          15.4928   68.3735   -3.1095 H       1  UNL1        0.2105
     15 N          17.8367   70.5229   -6.8575 N.ar    1  UNL1       -0.2551
     16 C          17.0091   70.4440   -7.9140 C.ar    1  UNL1        0.3323
     17 N          17.4870   70.4679   -9.1722 N.ar    1  UNL1       -0.2743
     18 C          18.8136   70.5629   -9.3935 C.ar    1  UNL1        0.2626
     19 C          19.6967   70.6407   -8.2903 C.ar    1  UNL1        0.0795
     20 C          19.1900   70.6199   -7.0389 C.ar    1  UNL1        0.0869
     21 O          15.8100   70.3580   -7.7306 O.2     1  UNL1       -0.2464
     22 O          19.2472   70.5798  -10.5307 O.2     1  UNL1       -0.2670
     23 H          16.8751   70.4148   -9.9226 H       1  UNL1        0.1734
     24 O          22.6199   71.1754   -2.1686 O.3     1  UNL1       -0.2703
     25 P          23.2190   72.4708   -2.9117 P.3     1  UNL1        0.2208
     26 O          24.2508   72.0482   -3.8842 O.2     1  UNL1       -0.5170
     27 O          23.8797   73.4568   -1.8239 O.3     1  UNL1       -0.4371
     28 O          22.0368   73.2422   -3.6849 O.3     1  UNL1       -0.2865
     29 C          22.5893   74.4668   -4.1708 C.3     1  UNL1        0.2611
     30 C          21.5590   75.5856   -4.0075 C.3     1  UNL1        0.1582
     31 C          20.2913   75.2173   -4.7865 C.3     1  UNL1        0.1625
     32 C          20.6811   74.8959   -6.2332 C.3     1  UNL1        0.1686
     33 C          21.7757   73.8267   -6.2286 C.3     1  UNL1        0.1760
     34 O          19.3799   76.3174   -4.7657 O.3     1  UNL1       -0.3801
     35 O          19.5383   74.4089   -6.9391 O.3     1  UNL1       -0.3794
     36 O          22.9288   74.3201   -5.5480 O.3     1  UNL1       -0.3263
     37 H          18.5989   76.0427   -5.2656 H       1  UNL1        0.2105
     38 H          19.8278   74.2187   -7.8427 H       1  UNL1        0.2105
     39 C          21.4018   76.9436   -1.9911 C.2     1  UNL1        0.2231
     40 C          21.0668   77.1105   -0.5309 C.3     1  UNL1        0.0946
     41 N          21.2333   75.7485   -2.5891 N.am    1  UNL1       -0.2994
     42 O          21.8239   77.8852   -2.6278 O.2     1  UNL1       -0.2751
     43 H          20.8958   74.9947   -2.0797 H       1  UNL1        0.1496
     44 C          22.1493   73.4750   -7.6701 C.3     1  UNL1        0.1693
     45 O          23.3846   72.7566   -7.6807 O.3     1  UNL1       -0.3794
     46 H          23.5833   72.5552   -8.6051 H       1  UNL1        0.2105
@<TRIPOS>BOND
     1    29    30    1
     2    29    28    1
     3    29    36    1
     4    30    31    1
     5    30    41    1
     6    31    32    1
     7    31    34    1
     8    32    33    1
     9    32    35    1
    10    33    44    1
    11    33    36    1
    12    44    45    1
    13    39    40    1
    14    39    41   am
    15    39    42    2
    16    41    43    1
    17    28    25    1
    18    34    37    1
    19    35    38    1
    20    45    46    1
    21    15    16   ar
    22    15    20   ar
    23    15     6    1
    24    16    17   ar
    25    16    21    2
    26    17    18   ar
    27    17    23    1
    28    18    19   ar
    29    18    22    2
    30    19    20   ar
    31     6     7    1
    32     6    11    1
    33     7     8    1
    34     7     9    1
    35     8    13    1
    36     9    10    1
    37     9    12    1
    38    10    11    1
    39    10     5    1
    40    12    14    1
    41     5     4    1
    42     4     1    1
    43     1     2    2
    44     1     3    1
    45     1    24    1
    46    24    25    1
    47    25    26    2
    48    25    27    1
@<TRIPOS>MOLECULE
UD1
 46 48 0 0 0
SMALL
GASTEIGER

@<TRIPOS>ATOM
      1 P          21.9759   71.2594   -0.0434 P.3     1  UNL1        0.2189
      2 O          23.3449   70.9728   -0.5254 O.2     1  UNL1       -0.5170
      3 O          21.5287   70.1252    1.0083 O.3     1  UNL1       -0.4371
      4 O          20.9582   71.2641   -1.2912 O.3     1  UNL1       -0.3112
      5 C          21.4203   72.2660   -2.1984 C.3     1  UNL1        0.1811
      6 C          21.5445   71.0139   -5.5665 C.3     1  UNL1        0.2383
      7 C          22.0739   72.4661   -5.6724 C.3     1  UNL1        0.1895
      8 O          23.0252   72.5874   -6.7305 O.3     1  UNL1       -0.3779
      9 C          22.7524   72.6668   -4.2924 C.3     1  UNL1        0.1713
     10 C          22.0992   71.5979   -3.3950 C.3     1  UNL1        0.1764
     11 O          21.1198   70.9089   -4.1909 O.3     1  UNL1       -0.3308
     12 O          24.1619   72.4524   -4.3920 O.3     1  UNL1       -0.3794
     13 H          23.3139   73.5104   -6.7432 H       1  UNL1        0.2106
     14 H          24.5017   73.1121   -5.0111 H       1  UNL1        0.2105
     15 N          20.4147   70.8055   -6.4728 N.ar    1  UNL1       -0.2551
     16 C          19.1858   71.2128   -6.1104 C.ar    1  UNL1        0.3323
     17 N          18.1290   71.0376   -6.9256 N.ar    1  UNL1       -0.2743
     18 C          18.2865   70.4382   -8.1231 C.ar    1  UNL1        0.2626
     19 C          19.5737   69.9992   -8.5147 C.ar    1  UNL1        0.0795
     20 C          20.6173   70.1924   -7.6798 C.ar    1  UNL1        0.0869
     21 O          19.0277   71.7550   -5.0335 O.2     1  UNL1       -0.2464
     22 O          17.3309   70.2750   -8.8589 O.2     1  UNL1       -0.2670
     23 H          17.2505   71.3418   -6.6500 H       1  UNL1        0.1734
     24 O          21.9503   72.6989    0.6751 O.3     1  UNL1       -0.2703
     25 P          21.9837   72.4276    2.2609 P.3     1  UNL1        0.2208
     26 O          22.9484   71.3453    2.5558 O.2     1  UNL1       -0.5170
     27 O          20.5177   71.9899    2.7622 O.3     1  UNL1       -0.4371
     28 O          22.4327   73.7700    3.0269 O.3     1  UNL1       -0.2865
     29 C          23.0457   73.3630    4.2516 C.3     1  UNL1        0.2611
     30 C          22.3974   74.1153    5.4152 C.3     1  UNL1        0.1582
     31 C          22.5723   75.6224    5.1972 C.3     1  UNL1        0.1625
     32 C          24.0602   75.9167    4.9787 C.3     1  UNL1        0.1686
     33 C          24.5823   75.0305    3.8458 C.3     1  UNL1        0.1760
     34 O          22.1046   76.3300    6.3470 O.3     1  UNL1       -0.3801
     35 O          24.2291   77.2916    4.6285 O.3     1  UNL1       -0.3794
     36 O          24.4403   73.6565    4.2040 O.3     1  UNL1       -0.3263
     37 H          22.2328   77.2715    6.1669 H       1  UNL1        0.2105
     38 H          25.1777   77.4329    4.4996 H       1  UNL1        0.2105
     39 C          20.0680   74.6101    4.9022 C.2     1  UNL1        0.2231
     40 C          18.5994   74.2756    4.9639 C.3     1  UNL1        0.0946
     41 N          20.9708   73.7905    5.4744 N.am    1  UNL1       -0.2994
     42 O          20.4370   75.6179    4.3379 O.2     1  UNL1       -0.2751
     43 H          20.6757   72.9841    5.9263 H       1  UNL1        0.1496
     44 C          26.0601   75.3399    3.5977 C.3     1  UNL1        0.1693
     45 O          26.6180   75.9621    4.7569 O.3     1  UNL1       -0.3794
     46 H          27.5474   76.1401    4.5590 H       1  UNL1        0.2105
@<TRIPOS>BOND
     1    29    30    1
     2    29    28    1
     3    29    36    1
     4    30    31    1
     5    30    41    1
     6    31    32    1
     7    31    34    1
     8    32    33    1
     9    32    35    1
    10    33    44    1
    11    33    36    1
    12    44    45    1
    13    39    40    1
    14    39    41   am
    15    39    42    2
    16    41    43    1
    17    28    25    1
    18    34    37    1
    19    35    38    1
    20    45    46    1
    21    15    16   ar
    22    15    20   ar
    23    15     6    1
    24    16    17   ar
    25    16    21    2
    26    17    18   ar
    27    17    23    1
    28    18    19   ar
    29    18    22    2
    30    19    20   ar
    31     6     7    1
    32     6    11    1
    33     7     8    1
    34     7     9    1
    35     8    13    1
    36     9    10    1
    37     9    12    1
    38    10    11    1
    39    10     5    1
    40    12    14    1
    41     5     4    1
    42     4     1    1
    43     1     2    2
    44     1     3    1
    45     1    24    1
    46    24    25    1
    47    25    26    2
    48    25    27    1
@<TRIPOS>MOLECULE
UD1
 46 48 0 0 0
SMALL
GASTEIGER

@<TRIPOS>ATOM
      1 P          16.7449   69.4674   -2.8114 P.3     1  UNL1        0.2189
      2 O          16.6142   70.9310   -2.6397 O.2     1  UNL1       -0.5170
      3 O          16.1392   69.0384   -4.2403 O.3     1  UNL1       -0.4371
      4 O          15.9361   68.7158   -1.6393 O.3     1  UNL1       -0.3112
      5 C          15.2649   69.7266   -0.8857 C.3     1  UNL1        0.1811
      6 C          12.3747   68.2472    0.6587 C.3     1  UNL1        0.2383
      7 C          12.4055   69.6977    1.2022 C.3     1  UNL1        0.1895
      8 O          11.0852   70.1711    1.4705 O.3     1  UNL1       -0.3779
      9 C          13.0425   70.4746    0.0208 C.3     1  UNL1        0.1713
     10 C          13.7764   69.3884   -0.7892 C.3     1  UNL1        0.1764
     11 O          13.6023   68.1423   -0.0934 O.3     1  UNL1       -0.3308
     12 O          12.0300   71.0997   -0.7709 O.3     1  UNL1       -0.3794
     13 H          11.1741   71.0744    1.8048 H       1  UNL1        0.2106
     14 H          11.5692   71.7230   -0.1935 H       1  UNL1        0.2105
     15 N          12.3586   67.2810    1.7577 N.ar    1  UNL1       -0.2551
     16 C          13.5169   66.8829    2.3119 C.ar    1  UNL1        0.3323
     17 N          13.5318   65.9983    3.3266 N.ar    1  UNL1       -0.2743
     18 C          12.3772   65.4875    3.7997 C.ar    1  UNL1        0.2626
     19 C          11.1510   65.8934    3.2215 C.ar    1  UNL1        0.0795
     20 C          11.1645   66.7861    2.2084 C.ar    1  UNL1        0.0869
     21 O          14.5665   67.3346    1.8961 O.2     1  UNL1       -0.2464
     22 O          12.3899   64.6841    4.7139 O.2     1  UNL1       -0.2670
     23 H          14.3762   65.7259    3.7176 H       1  UNL1        0.1734
     24 O          18.2986   69.0553   -2.7405 O.3     1  UNL1       -0.2703
     25 P          19.1478   70.4063   -2.9472 P.3     1  UNL1        0.2208
     26 O          20.5848   70.0731   -3.0603 O.2     1  UNL1       -0.5170
     27 O          18.9214   71.3816   -1.6864 O.3     1  UNL1       -0.4371
     28 O          18.6615   71.1470   -4.2909 O.3     1  UNL1       -0.2865
     29 C          19.4806   70.6570   -5.3540 C.3     1  UNL1        0.2611
     30 C          20.3114   71.8084   -5.9233 C.3     1  UNL1        0.1582
     31 C          19.3677   72.9053   -6.4288 C.3     1  UNL1        0.1625
     32 C          18.3664   72.2788   -7.4051 C.3     1  UNL1        0.1686
     33 C          17.6800   71.0937   -6.7228 C.3     1  UNL1        0.1760
     34 O          20.1237   73.9171   -7.0968 O.3     1  UNL1       -0.3801
     35 O          17.3874   73.2515   -7.7754 O.3     1  UNL1       -0.3794
     36 O          18.6519   70.1079   -6.3762 O.3     1  UNL1       -0.3263
     37 H          19.4923   74.5851   -7.3973 H       1  UNL1        0.2105
     38 H          16.7782   72.8159   -8.3883 H       1  UNL1        0.2105
     39 C          22.4798   72.5865   -5.1315 C.2     1  UNL1        0.2231
     40 C          23.3720   73.1453   -4.0526 C.3     1  UNL1        0.0946
     41 N          21.1784   72.3517   -4.8756 N.am    1  UNL1       -0.2994
     42 O          22.9337   72.3475   -6.2302 O.2     1  UNL1       -0.2751
     43 H          20.8150   72.5426   -3.9964 H       1  UNL1        0.1496
     44 C          16.6543   70.4807   -7.6784 C.3     1  UNL1        0.1693
     45 O          15.5853   69.9047   -6.9250 O.3     1  UNL1       -0.3794
     46 H          14.9631   69.5304   -7.5632 H       1  UNL1        0.2105
@<TRIPOS>BOND
     1    29    30    1
     2    29    28    1
     3    29    36    1
     4    30    31    1
     5    30    41    1
     6    31    32    1
     7    31    34    1
     8    32    33    1
     9    32    35    1
    10    33    44    1
    11    33    36    1
    12    44    45    1
    13    39    40    1
    14    39    41   am
    15    39    42    2
    16    41    43    1
    17    28    25    1
    18    34    37    1
    19    35    38    1
    20    45    46    1
    21    15    16   ar
    22    15    20   ar
    23    15     6    1
    24    16    17   ar
    25    16    21    2
    26    17    18   ar
    27    17    23    1
    28    18    19   ar
    29    18    22    2
    30    19    20   ar
    31     6     7    1
    32     6    11    1
    33     7     8    1
    34     7     9    1
    35     8    13    1
    36     9    10    1
    37     9    12    1
    38    10    11    1
    39    10     5    1
    40    12    14    1
    41     5     4    1
    42     4     1    1
    43     1     2    2
    44     1     3    1
    45     1    24    1
    46    24    25    1
    47    25    26    2
    48    25    27    1
@<TRIPOS>MOLECULE
UD1
 46 48 0 0 0
SMALL
GASTEIGER

@<TRIPOS>ATOM
      1 P          22.0226   72.6013   -5.3797 P.3     1  UNL1        0.2189
      2 O          23.1644   72.4360   -6.3059 O.2     1  UNL1       -0.5170
      3 O          21.9132   71.3084   -4.4264 O.3     1  UNL1       -0.4371
      4 O          20.6628   72.7582   -6.2278 O.3     1  UNL1       -0.3112
      5 C          20.8451   72.0270   -7.4412 C.3     1  UNL1        0.1811
      6 C          17.9123   70.2211   -6.4091 C.3     1  UNL1        0.2383
      7 C          17.4396   71.0736   -7.6133 C.3     1  UNL1        0.1895
      8 O          16.3907   70.4157   -8.3248 O.3     1  UNL1       -0.3779
      9 C          18.7251   71.1588   -8.4766 C.3     1  UNL1        0.1713
     10 C          19.8636   70.8547   -7.4838 C.3     1  UNL1        0.1764
     11 O          19.2666   70.6697   -6.1890 O.3     1  UNL1       -0.3308
     12 O          18.6911   70.1851   -9.5223 O.3     1  UNL1       -0.3794
     13 H          16.1427   70.9958   -9.0579 H       1  UNL1        0.2106
     14 H          17.9249   70.3938  -10.0733 H       1  UNL1        0.2105
     15 N          17.0843   70.4820   -5.2311 N.ar    1  UNL1       -0.2551
     16 C          16.4559   69.4630   -4.6195 C.ar    1  UNL1        0.3323
     17 N          15.6910   69.6730   -3.5318 N.ar    1  UNL1       -0.2743
     18 C          15.5350   70.9192   -3.0412 C.ar    1  UNL1        0.2626
     19 C          16.1860   72.0019   -3.6789 C.ar    1  UNL1        0.0795
     20 C          16.9516   71.7622   -4.7651 C.ar    1  UNL1        0.0869
     21 O          16.5869   68.3333   -5.0500 O.2     1  UNL1       -0.2464
     22 O          14.8398   71.1109   -2.0607 O.2     1  UNL1       -0.2670
     23 H          15.2489   68.9256   -3.1004 H       1  UNL1        0.1734
     24 O          22.2479   73.9157   -4.4794 O.3     1  UNL1       -0.2703
     25 P          23.6711   73.7406   -3.7492 P.3     1  UNL1        0.2208
     26 O          24.5965   74.7978   -4.2129 O.2     1  UNL1       -0.5170
     27 O          24.2850   72.2961   -4.1078 O.3     1  UNL1       -0.4371
     28 O          23.4765   73.8589   -2.1559 O.3     1  UNL1       -0.2865
     29 C          22.0745   73.9979   -1.9188 C.3     1  UNL1        0.2611
     30 C          21.8427   75.1175   -0.9026 C.3     1  UNL1        0.1582
     31 C          22.5800   74.7754    0.3970 C.3     1  UNL1        0.1625
     32 C          22.1447   73.3793    0.8545 C.3     1  UNL1        0.1686
     33 C          22.3566   72.3901   -0.2935 C.3     1  UNL1        0.1760
     34 O          22.2506   75.7365    1.4016 O.3     1  UNL1       -0.3801
     35 O          22.9269   72.9802    1.9816 O.3     1  UNL1       -0.3794
     36 O          21.5556   72.7703   -1.4117 O.3     1  UNL1       -0.3263
     37 H          22.7350   75.4838    2.1996 H       1  UNL1        0.2105
     38 H          22.6213   72.0979    2.2359 H       1  UNL1        0.2105
     39 C          23.6202   76.7604   -1.1781 C.2     1  UNL1        0.2231
     40 C          24.1467   78.0603   -1.7304 C.3     1  UNL1        0.0946
     41 N          22.3548   76.3801   -1.4394 N.am    1  UNL1       -0.2994
     42 O          24.3357   76.0567   -0.4975 O.2     1  UNL1       -0.2751
     43 H          21.7819   76.9431   -1.9838 H       1  UNL1        0.1496
     44 C          21.9552   70.9862    0.1640 C.3     1  UNL1        0.1693
     45 O          20.6663   70.6637   -0.3622 O.3     1  UNL1       -0.3794
     46 H          20.4517   69.7739   -0.0509 H       1  UNL1        0.2105
@<TRIPOS>BOND
     1    29    30    1
     2    29    28    1
     3    29    36    1
     4    30    31    1
     5    30    41    1
     6    31    32    1
     7    31    34    1
     8    32    33    1
     9    32    35    1
    10    33    44    1
    11    33    36    1
    12    44    45    1
    13    39    40    1
    14    39    41   am
    15    39    42    2
    16    41    43    1
    17    28    25    1
    18    34    37    1
    19    35    38    1
    20    45    46    1
    21    15    16   ar
    22    15    20   ar
    23    15     6    1
    24    16    17   ar
    25    16    21    2
    26    17    18   ar
    27    17    23    1
    28    18    19   ar
    29    18    22    2
    30    19    20   ar
    31     6     7    1
    32     6    11    1
    33     7     8    1
    34     7     9    1
    35     8    13    1
    36     9    10    1
    37     9    12    1
    38    10    11    1
    39    10     5    1
    40    12    14    1
    41     5     4    1
    42     4     1    1
    43     1     2    2
    44     1     3    1
    45     1    24    1
    46    24    25    1
    47    25    26    2
    48    25    27    1
@<TRIPOS>MOLECULE
UD1
 46 48 0 0 0
SMALL
GASTEIGER

@<TRIPOS>ATOM
      1 P          23.1207   73.2980   -3.9078 P.3     1  UNL1        0.2189
      2 O          22.8701   74.7368   -4.1444 O.2     1  UNL1       -0.5170
      3 O          24.6803   72.9782   -4.1491 O.3     1  UNL1       -0.4371
      4 O          22.2310   72.4243   -4.9265 O.3     1  UNL1       -0.3112
      5 C          22.6455   72.7786   -6.2467 C.3     1  UNL1        0.1811
      6 C          19.2416   72.1248   -7.2025 C.3     1  UNL1        0.2383
      7 C          19.1666   73.4260   -6.3651 C.3     1  UNL1        0.1895
      8 O          18.0943   74.2583   -6.8087 O.3     1  UNL1       -0.3779
      9 C          20.5384   74.0849   -6.6635 C.3     1  UNL1        0.1713
     10 C          21.4176   72.9160   -7.1482 C.3     1  UNL1        0.1764
     11 O          20.6216   71.7208   -7.0757 O.3     1  UNL1       -0.3308
     12 O          20.4058   75.0765   -7.6842 O.3     1  UNL1       -0.3794
     13 H          18.1020   75.0472   -6.2493 H       1  UNL1        0.2106
     14 H          19.7991   75.7477   -7.3444 H       1  UNL1        0.2105
     15 N          18.3517   71.1013   -6.6530 N.ar    1  UNL1       -0.2551
     16 C          17.3679   70.5944   -7.4162 C.ar    1  UNL1        0.3323
     17 N          16.5369   69.6492   -6.9382 N.ar    1  UNL1       -0.2743
     18 C          16.6740   69.2001   -5.6744 C.ar    1  UNL1        0.2626
     19 C          17.7017   69.7295   -4.8580 C.ar    1  UNL1        0.0795
     20 C          18.5245   70.6728   -5.3645 C.ar    1  UNL1        0.0869
     21 O          17.2315   70.9893   -8.5582 O.2     1  UNL1       -0.2464
     22 O          15.9203   68.3490   -5.2396 O.2     1  UNL1       -0.2670
     23 H          15.8358   69.2913   -7.5043 H       1  UNL1        0.1734
     24 O          22.7235   72.9259   -2.3937 O.3     1  UNL1       -0.2703
     25 P          23.1150   74.1949   -1.4851 P.3     1  UNL1        0.2208
     26 O          22.1287   75.2769   -1.6980 O.2     1  UNL1       -0.5170
     27 O          24.5813   74.7179   -1.8957 O.3     1  UNL1       -0.4371
     28 O          23.1147   73.7663    0.0663 O.3     1  UNL1       -0.2865
     29 C          23.0010   72.3426    0.1029 C.3     1  UNL1        0.2611
     30 C          21.7109   71.9575    0.8291 C.3     1  UNL1        0.1582
     31 C          21.7436   72.5344    2.2489 C.3     1  UNL1        0.1625
     32 C          23.0373   72.0802    2.9329 C.3     1  UNL1        0.1686
     33 C          24.2277   72.4589    2.0492 C.3     1  UNL1        0.1760
     34 O          20.6158   72.0579    2.9854 O.3     1  UNL1       -0.3801
     35 O          23.1585   72.7248    4.2023 O.3     1  UNL1       -0.3794
     36 O          24.1241   71.7951    0.7902 O.3     1  UNL1       -0.3263
     37 H          20.6760   72.4447    3.8698 H       1  UNL1        0.2105
     38 H          23.9848   72.4119    4.5972 H       1  UNL1        0.2105
     39 C          19.8945   71.7324   -0.7784 C.2     1  UNL1        0.2231
     40 C          18.7102   72.2927   -1.5239 C.3     1  UNL1        0.0946
     41 N          20.5601   72.5011    0.1050 N.am    1  UNL1       -0.2994
     42 O          20.2488   70.5895   -0.9742 O.2     1  UNL1       -0.2751
     43 H          20.2769   73.4159    0.2617 H       1  UNL1        0.1496
     44 C          25.5273   72.0385    2.7388 C.3     1  UNL1        0.1693
     45 O          26.0020   70.8213    2.1599 O.3     1  UNL1       -0.3794
     46 H          26.8198   70.5920    2.6219 H       1  UNL1        0.2105
@<TRIPOS>BOND
     1    29    30    1
     2    29    28    1
     3    29    36    1
     4    30    31    1
     5    30    41    1
     6    31    32    1
     7    31    34    1
     8    32    33    1
     9    32    35    1
    10    33    44    1
    11    33    36    1
    12    44    45    1
    13    39    40    1
    14    39    41   am
    15    39    42    2
    16    41    43    1
    17    28    25    1
    18    34    37    1
    19    35    38    1
    20    45    46    1
    21    15    16   ar
    22    15    20   ar
    23    15     6    1
    24    16    17   ar
    25    16    21    2
    26    17    18   ar
    27    17    23    1
    28    18    19   ar
    29    18    22    2
    30    19    20   ar
    31     6     7    1
    32     6    11    1
    33     7     8    1
    34     7     9    1
    35     8    13    1
    36     9    10    1
    37     9    12    1
    38    10    11    1
    39    10     5    1
    40    12    14    1
    41     5     4    1
    42     4     1    1
    43     1     2    2
    44     1     3    1
    45     1    24    1
    46    24    25    1
    47    25    26    2
    48    25    27    1
@<TRIPOS>MOLECULE
UD1
 46 48 0 0 0
SMALL
GASTEIGER

@<TRIPOS>ATOM
      1 P          22.7689   72.2279   -3.7918 P.3     1  UNL1        0.2189
      2 O          24.0339   72.5515   -4.4874 O.2     1  UNL1       -0.5170
      3 O          22.1078   73.5813   -3.2229 O.3     1  UNL1       -0.4371
      4 O          23.0708   71.2242   -2.5694 O.3     1  UNL1       -0.3112
      5 C          23.1504   72.0230   -1.3880 C.3     1  UNL1        0.1811
      6 C          24.6789   71.2020    1.7611 C.3     1  UNL1        0.2383
      7 C          23.3255   71.8515    2.1442 C.3     1  UNL1        0.1895
      8 O          22.8253   71.3075    3.3661 O.3     1  UNL1       -0.3779
      9 C          22.4221   71.4505    0.9491 C.3     1  UNL1        0.1713
     10 C          23.4183   71.1237   -0.1802 C.3     1  UNL1        0.1764
     11 O          24.7404   71.3696    0.3287 O.3     1  UNL1       -0.3308
     12 O          21.6360   70.3034    1.2789 O.3     1  UNL1       -0.3794
     13 H          21.9856   71.7519    3.5475 H       1  UNL1        0.2106
     14 H          21.0784   70.5529    2.0279 H       1  UNL1        0.2105
     15 N          25.7909   71.8973    2.4103 N.ar    1  UNL1       -0.2551
     16 C          25.6525   73.1854    2.7697 C.ar    1  UNL1        0.3323
     17 N          26.6572   73.8487    3.3720 N.ar    1  UNL1       -0.2743
     18 C          27.8295   73.2294    3.6173 C.ar    1  UNL1        0.2626
     19 C          27.9908   71.8753    3.2388 C.ar    1  UNL1        0.0795
     20 C          26.9649   71.2323    2.6411 C.ar    1  UNL1        0.0869
     21 O          24.6013   73.7576    2.5552 O.2     1  UNL1       -0.2464
     22 O          28.7402   73.8296    4.1575 O.2     1  UNL1       -0.2670
     23 H          26.5383   74.7762    3.6287 H       1  UNL1        0.1734
     24 O          21.7534   71.5261   -4.8238 O.3     1  UNL1       -0.2703
     25 P          20.3567   71.3388   -4.0469 P.3     1  UNL1        0.2208
     26 O          19.8697   72.6566   -3.5833 O.2     1  UNL1       -0.5170
     27 O          20.5730   70.3710   -2.7785 O.3     1  UNL1       -0.4371
     28 O          19.2721   70.6850   -5.0401 O.3     1  UNL1       -0.2865
     29 C          18.5711   71.7659   -5.6578 C.3     1  UNL1        0.2611
     30 C          17.1071   71.3698   -5.8575 C.3     1  UNL1        0.1582
     31 C          17.0428   70.1129   -6.7325 C.3     1  UNL1        0.1625
     32 C          17.8298   70.3722   -8.0215 C.3     1  UNL1        0.1686
     33 C          19.2405   70.8407   -7.6584 C.3     1  UNL1        0.1760
     34 O          15.6809   69.8195   -7.0499 O.3     1  UNL1       -0.3801
     35 O          17.9067   69.1670   -8.7852 O.3     1  UNL1       -0.3794
     36 O          19.1685   72.0591   -6.9189 O.3     1  UNL1       -0.3263
     37 H          15.6873   69.0238   -7.5995 H       1  UNL1        0.2105
     38 H          18.4096   69.3746   -9.5855 H       1  UNL1        0.2105
     39 C          16.4489   69.8337   -4.0851 C.2     1  UNL1        0.2231
     40 C          15.8154   69.5506   -2.7469 C.3     1  UNL1        0.0946
     41 N          16.4923   71.0944   -4.5573 N.am    1  UNL1       -0.2994
     42 O          16.9191   68.9261   -4.7374 O.2     1  UNL1       -0.2751
     43 H          16.1159   71.8208   -4.0356 H       1  UNL1        0.1496
     44 C          20.0453   71.0714   -8.9390 C.3     1  UNL1        0.1693
     45 O          19.1522   71.1960  -10.0475 O.3     1  UNL1       -0.3794
     46 H          19.6984   71.3395  -10.8322 H       1  UNL1        0.2105
@<TRIPOS>BOND
     1    29    30    1
     2    29    28    1
     3    29    36    1
     4    30    31    1
     5    30    41    1
     6    31    32    1
     7    31    34    1
     8    32    33    1
     9    32    35    1
    10    33    44    1
    11    33    36    1
    12    44    45    1
    13    39    40    1
    14    39    41   am
    15    39    42    2
    16    41    43    1
    17    28    25    1
    18    34    37    1
    19    35    38    1
    20    45    46    1
    21    15    16   ar
    22    15    20   ar
    23    15     6    1
    24    16    17   ar
    25    16    21    2
    26    17    18   ar
    27    17    23    1
    28    18    19   ar
    29    18    22    2
    30    19    20   ar
    31     6     7    1
    32     6    11    1
    33     7     8    1
    34     7     9    1
    35     8    13    1
    36     9    10    1
    37     9    12    1
    38    10    11    1
    39    10     5    1
    40    12    14    1
    41     5     4    1
    42     4     1    1
    43     1     2    2
    44     1     3    1
    45     1    24    1
    46    24    25    1
    47    25    26    2
    48    25    27    1
@<TRIPOS>MOLECULE
UD1
 46 48 0 0 0
SMALL
GASTEIGER

@<TRIPOS>ATOM
      1 P          21.9222   74.2978   -4.8009 P.3     1  UNL1        0.2189
      2 O          20.9824   75.3803   -5.1666 O.2     1  UNL1       -0.5170
      3 O          22.8613   73.9533   -6.0627 O.3     1  UNL1       -0.4371
      4 O          21.0902   72.9856   -4.3783 O.3     1  UNL1       -0.3112
      5 C          20.0063   73.4285   -3.5601 C.3     1  UNL1        0.1811
      6 C          17.9872   71.5184   -5.8409 C.3     1  UNL1        0.2383
      7 C          18.5243   70.4743   -4.8301 C.3     1  UNL1        0.1895
      8 O          17.5948   69.4039   -4.6584 O.3     1  UNL1       -0.3779
      9 C          18.6489   71.3127   -3.5313 C.3     1  UNL1        0.1713
     10 C          18.7087   72.7694   -4.0303 C.3     1  UNL1        0.1764
     11 O          18.6714   72.7332   -5.4671 O.3     1  UNL1       -0.3308
     12 O          17.5085   71.1104   -2.6938 O.3     1  UNL1       -0.3794
     13 H          17.9873   68.7916   -4.0209 H       1  UNL1        0.2106
     14 H          17.4933   70.1715   -2.4647 H       1  UNL1        0.2105
     15 N          18.3263   71.1360   -7.2121 N.ar    1  UNL1       -0.2551
     16 C          17.3489   70.7930   -8.0692 C.ar    1  UNL1        0.3323
     17 N          17.6313   70.4407   -9.3374 N.ar    1  UNL1       -0.2743
     18 C          18.9088   70.4175   -9.7678 C.ar    1  UNL1        0.2626
     19 C          19.9480   70.7705   -8.8742 C.ar    1  UNL1        0.0795
     20 C          19.6362   71.1250   -7.6092 C.ar    1  UNL1        0.0869
     21 O          16.1918   70.8091   -7.6959 O.2     1  UNL1       -0.2464
     22 O          19.1657   70.0946  -10.9128 O.2     1  UNL1       -0.2670
     23 H          16.9134   70.2009   -9.9434 H       1  UNL1        0.1734
     24 O          22.8357   74.7749   -3.5653 O.3     1  UNL1       -0.2703
     25 P          24.0324   73.7074   -3.4325 P.3     1  UNL1        0.2208
     26 O          25.2998   74.3298   -3.8745 O.2     1  UNL1       -0.5170
     27 O          23.7145   72.4263   -4.3545 O.3     1  UNL1       -0.4371
     28 O          24.1700   73.2415   -1.8981 O.3     1  UNL1       -0.2865
     29 C          23.1602   73.9345   -1.1624 C.3     1  UNL1        0.2611
     30 C          23.7388   74.3985    0.1755 C.3     1  UNL1        0.1582
     31 C          24.2358   73.1772    0.9572 C.3     1  UNL1        0.1625
     32 C          23.0928   72.1616    1.0582 C.3     1  UNL1        0.1686
     33 C          22.5649   71.8640   -0.3468 C.3     1  UNL1        0.1760
     34 O          24.6406   73.5794    2.2671 O.3     1  UNL1       -0.3801
     35 O          23.5759   70.9561    1.6540 O.3     1  UNL1       -0.3794
     36 O          22.0564   73.0610   -0.9343 O.3     1  UNL1       -0.3263
     37 H          24.9453   72.7824    2.7223 H       1  UNL1        0.2105
     38 H          22.8263   70.3456    1.6976 H       1  UNL1        0.2105
     39 C          25.0001   76.4165    0.6962 C.2     1  UNL1        0.2231
     40 C          26.1495   77.3595    0.4478 C.3     1  UNL1        0.0946
     41 N          24.8555   75.3147   -0.0650 N.am    1  UNL1       -0.2994
     42 O          24.2047   76.6498    1.5811 O.2     1  UNL1       -0.2751
     43 H          25.4918   75.1278   -0.7734 H       1  UNL1        0.1496
     44 C          21.4443   70.8258   -0.2600 C.3     1  UNL1        0.1693
     45 O          21.4589   70.2155    1.0320 O.3     1  UNL1       -0.3794
     46 H          20.7397   69.5696    1.0445 H       1  UNL1        0.2105
@<TRIPOS>BOND
     1    29    30    1
     2    29    28    1
     3    29    36    1
     4    30    31    1
     5    30    41    1
     6    31    32    1
     7    31    34    1
     8    32    33    1
     9    32    35    1
    10    33    44    1
    11    33    36    1
    12    44    45    1
    13    39    40    1
    14    39    41   am
    15    39    42    2
    16    41    43    1
    17    28    25    1
    18    34    37    1
    19    35    38    1
    20    45    46    1
    21    15    16   ar
    22    15    20   ar
    23    15     6    1
    24    16    17   ar
    25    16    21    2
    26    17    18   ar
    27    17    23    1
    28    18    19   ar
    29    18    22    2
    30    19    20   ar
    31     6     7    1
    32     6    11    1
    33     7     8    1
    34     7     9    1
    35     8    13    1
    36     9    10    1
    37     9    12    1
    38    10    11    1
    39    10     5    1
    40    12    14    1
    41     5     4    1
    42     4     1    1
    43     1     2    2
    44     1     3    1
    45     1    24    1
    46    24    25    1
    47    25    26    2
    48    25    27    1
@<TRIPOS>MOLECULE
UD1
 46 48 0 0 0
SMALL
GASTEIGER

@<TRIPOS>ATOM
      1 P          21.0136   71.7427   -1.1114 P.3     1  UNL1        0.2189
      2 O          20.4328   70.4662   -0.6402 O.2     1  UNL1       -0.5170
      3 O          20.1961   72.9732   -0.4710 O.3     1  UNL1       -0.4371
      4 O          20.9186   71.8144   -2.7172 O.3     1  UNL1       -0.3112
      5 C          21.9477   72.7040   -3.1533 C.3     1  UNL1        0.1811
      6 C          20.8952   72.1311   -6.5432 C.3     1  UNL1        0.2383
      7 C          20.9268   73.6736   -6.4020 C.3     1  UNL1        0.1895
      8 O          21.2468   74.2944   -7.6475 O.3     1  UNL1       -0.3779
      9 C          22.0659   73.8828   -5.3706 C.3     1  UNL1        0.1713
     10 C          22.1771   72.5229   -4.6546 C.3     1  UNL1        0.1764
     11 O          21.1635   71.6639   -5.2041 O.3     1  UNL1       -0.3308
     12 O          23.2890   74.2073   -6.0350 O.3     1  UNL1       -0.3794
     13 H          21.2498   75.2491   -7.4921 H       1  UNL1        0.2106
     14 H          23.1372   75.0343   -6.5115 H       1  UNL1        0.2105
     15 N          19.5789   71.6777   -6.9940 N.ar    1  UNL1       -0.2551
     16 C          19.4783   70.5698   -7.7489 C.ar    1  UNL1        0.3323
     17 N          18.2802   70.1273   -8.1743 N.ar    1  UNL1       -0.2743
     18 C          17.1554   70.7989   -7.8551 C.ar    1  UNL1        0.2626
     19 C          17.2474   71.9701   -7.0661 C.ar    1  UNL1        0.0795
     20 C          18.4613   72.3886   -6.6483 C.ar    1  UNL1        0.0869
     21 O          20.4837   69.9532   -8.0450 O.2     1  UNL1       -0.2464
     22 O          16.0721   70.4024   -8.2433 O.2     1  UNL1       -0.2670
     23 H          18.2258   69.3237   -8.7140 H       1  UNL1        0.1734
     24 O          22.5558   71.8293   -0.6608 O.3     1  UNL1       -0.2703
     25 P          22.6361   71.2461    0.8367 P.3     1  UNL1        0.2208
     26 O          23.9916   70.7073    1.0841 O.2     1  UNL1       -0.5170
     27 O          21.5512   70.0698    1.0142 O.3     1  UNL1       -0.4371
     28 O          22.3262   72.4232    1.8898 O.3     1  UNL1       -0.2865
     29 C          23.0873   73.5596    1.4769 C.3     1  UNL1        0.2611
     30 C          24.0667   73.9423    2.5880 C.3     1  UNL1        0.1582
     31 C          23.2787   74.2538    3.8653 C.3     1  UNL1        0.1625
     32 C          22.2162   75.3092    3.5406 C.3     1  UNL1        0.1686
     33 C          21.3744   74.8219    2.3594 C.3     1  UNL1        0.1760
     34 O          24.1670   74.7558    4.8655 O.3     1  UNL1       -0.3801
     35 O          21.3756   75.5071    4.6790 O.3     1  UNL1       -0.3794
     36 O          22.2065   74.6495    1.2130 O.3     1  UNL1       -0.3263
     37 H          23.6308   74.9377    5.6496 H       1  UNL1        0.2105
     38 H          20.7224   76.1768    4.4313 H       1  UNL1        0.2105
     39 C          26.3137   73.0439    2.8670 C.2     1  UNL1        0.2231
     40 C          27.2581   71.8972    3.1230 C.3     1  UNL1        0.0946
     41 N          24.9844   72.8287    2.8371 N.am    1  UNL1       -0.2994
     42 O          26.7507   74.1606    2.6874 O.2     1  UNL1       -0.2751
     43 H          24.6345   71.9351    2.9806 H       1  UNL1        0.1496
     44 C          20.2891   75.8545    2.0478 C.3     1  UNL1        0.1693
     45 O          19.9984   75.8332    0.6489 O.3     1  UNL1       -0.3794
     46 H          19.3121   76.4966    0.4956 H       1  UNL1        0.2105
@<TRIPOS>BOND
     1    29    30    1
     2    29    28    1
     3    29    36    1
     4    30    31    1
     5    30    41    1
     6    31    32    1
     7    31    34    1
     8    32    33    1
     9    32    35    1
    10    33    44    1
    11    33    36    1
    12    44    45    1
    13    39    40    1
    14    39    41   am
    15    39    42    2
    16    41    43    1
    17    28    25    1
    18    34    37    1
    19    35    38    1
    20    45    46    1
    21    15    16   ar
    22    15    20   ar
    23    15     6    1
    24    16    17   ar
    25    16    21    2
    26    17    18   ar
    27    17    23    1
    28    18    19   ar
    29    18    22    2
    30    19    20   ar
    31     6     7    1
    32     6    11    1
    33     7     8    1
    34     7     9    1
    35     8    13    1
    36     9    10    1
    37     9    12    1
    38    10    11    1
    39    10     5    1
    40    12    14    1
    41     5     4    1
    42     4     1    1
    43     1     2    2
    44     1     3    1
    45     1    24    1
    46    24    25    1
    47    25    26    2
    48    25    27    1
@<TRIPOS>MOLECULE
UD1
 46 48 0 0 0
SMALL
GASTEIGER

@<TRIPOS>ATOM
      1 P          23.2859   71.6205   -2.9285 P.3     1  UNL1        0.2189
      2 O          24.4313   70.6850   -2.9702 O.2     1  UNL1       -0.5170
      3 O          23.6378   72.9383   -3.7842 O.3     1  UNL1       -0.4371
      4 O          22.9892   72.0368   -1.4016 O.3     1  UNL1       -0.3112
      5 C          24.0929   71.5711   -0.6236 C.3     1  UNL1        0.1811
      6 C          23.2660   72.1105    2.8336 C.3     1  UNL1        0.2383
      7 C          21.9333   72.3349    2.0761 C.3     1  UNL1        0.1895
      8 O          20.8164   71.9685    2.8872 O.3     1  UNL1       -0.3779
      9 C          22.0793   71.3730    0.8684 C.3     1  UNL1        0.1713
     10 C          23.5983   71.1390    0.7577 C.3     1  UNL1        0.1764
     11 O          24.2308   71.9348    1.7745 O.3     1  UNL1       -0.3308
     12 O          21.3944   70.1444    1.1216 O.3     1  UNL1       -0.3794
     13 H          20.0220   72.1317    2.3602 H       1  UNL1        0.2106
     14 H          20.4608   70.3644    1.2404 H       1  UNL1        0.2105
     15 N          23.6023   73.2776    3.6498 N.ar    1  UNL1       -0.2551
     16 C          23.1791   73.3438    4.9241 C.ar    1  UNL1        0.3323
     17 N          23.4769   74.4034    5.6993 N.ar    1  UNL1       -0.2743
     18 C          24.2017   75.4262    5.2028 C.ar    1  UNL1        0.2626
     19 C          24.6486   75.3722    3.8610 C.ar    1  UNL1        0.0795
     20 C          24.3401   74.2951    3.1074 C.ar    1  UNL1        0.0869
     21 O          22.5245   72.4292    5.3863 O.2     1  UNL1       -0.2464
     22 O          24.4675   76.3868    5.9012 O.2     1  UNL1       -0.2670
     23 H          23.1674   74.4323    6.6177 H       1  UNL1        0.1734
     24 O          21.9862   70.9059   -3.5519 O.3     1  UNL1       -0.2703
     25 P          20.7057   71.7172   -3.0122 P.3     1  UNL1        0.2208
     26 O          21.0866   73.1228   -2.7513 O.2     1  UNL1       -0.5170
     27 O          20.1779   71.0431   -1.6486 O.3     1  UNL1       -0.4371
     28 O          19.5366   71.6745   -4.1177 O.3     1  UNL1       -0.2865
     29 C          19.7050   70.4607   -4.8522 C.3     1  UNL1        0.2611
     30 C          19.7036   70.7723   -6.3498 C.3     1  UNL1        0.1582
     31 C          18.3790   71.4493   -6.7197 C.3     1  UNL1        0.1625
     32 C          17.2248   70.5647   -6.2367 C.3     1  UNL1        0.1686
     33 C          17.4116   70.2712   -4.7466 C.3     1  UNL1        0.1760
     34 O          18.3028   71.6099   -8.1374 O.3     1  UNL1       -0.3801
     35 O          15.9845   71.2444   -6.4395 O.3     1  UNL1       -0.3794
     36 O          18.6367   69.5680   -4.5436 O.3     1  UNL1       -0.3263
     37 H          17.4565   72.0386   -8.3249 H       1  UNL1        0.2105
     38 H          15.2867   70.6539   -6.1219 H       1  UNL1        0.2105
     39 C          20.6160   72.9994   -6.7265 C.2     1  UNL1        0.2231
     40 C          21.7630   73.9221   -7.0511 C.3     1  UNL1        0.0946
     41 N          20.8176   71.6691   -6.6647 N.am    1  UNL1       -0.2994
     42 O          19.5110   73.4546   -6.5215 O.2     1  UNL1       -0.2751
     43 H          21.7017   71.3045   -6.8289 H       1  UNL1        0.1496
     44 C          16.2463   69.4149   -4.2467 C.3     1  UNL1        0.1693
     45 O          15.7898   68.5676   -5.3030 O.3     1  UNL1       -0.3794
     46 H          15.0572   68.0467   -4.9472 H       1  UNL1        0.2105
@<TRIPOS>BOND
     1    29    30    1
     2    29    28    1
     3    29    36    1
     4    30    31    1
     5    30    41    1
     6    31    32    1
     7    31    34    1
     8    32    33    1
     9    32    35    1
    10    33    44    1
    11    33    36    1
    12    44    45    1
    13    39    40    1
    14    39    41   am
    15    39    42    2
    16    41    43    1
    17    28    25    1
    18    34    37    1
    19    35    38    1
    20    45    46    1
    21    15    16   ar
    22    15    20   ar
    23    15     6    1
    24    16    17   ar
    25    16    21    2
    26    17    18   ar
    27    17    23    1
    28    18    19   ar
    29    18    22    2
    30    19    20   ar
    31     6     7    1
    32     6    11    1
    33     7     8    1
    34     7     9    1
    35     8    13    1
    36     9    10    1
    37     9    12    1
    38    10    11    1
    39    10     5    1
    40    12    14    1
    41     5     4    1
    42     4     1    1
    43     1     2    2
    44     1     3    1
    45     1    24    1
    46    24    25    1
    47    25    26    2
    48    25    27    1
@<TRIPOS>MOLECULE
UD1
 46 48 0 0 0
SMALL
GASTEIGER

@<TRIPOS>ATOM
      1 P          20.6636   72.9610   -1.3464 P.3     1  UNL1        0.2189
      2 O          19.6966   74.0776   -1.2627 O.2     1  UNL1       -0.5170
      3 O          22.1595   73.5327   -1.1795 O.3     1  UNL1       -0.4371
      4 O          20.5235   72.2368   -2.7777 O.3     1  UNL1       -0.3112
      5 C          21.5192   72.8062   -3.6289 C.3     1  UNL1        0.1811
      6 C          20.4151   71.1490   -6.6225 C.3     1  UNL1        0.2383
      7 C          20.9877   72.5012   -7.1161 C.3     1  UNL1        0.1895
      8 O          21.5372   72.3752   -8.4281 O.3     1  UNL1       -0.3779
      9 C          22.1016   72.7829   -6.0744 C.3     1  UNL1        0.1713
     10 C          21.7062   71.9194   -4.8609 C.3     1  UNL1        0.1764
     11 O          20.4677   71.2648   -5.1846 O.3     1  UNL1       -0.3308
     12 O          23.3761   72.3860   -6.5850 O.3     1  UNL1       -0.3794
     13 H          21.8745   73.2473   -8.6756 H       1  UNL1        0.2106
     14 H          23.5388   72.9189   -7.3747 H       1  UNL1        0.2105
     15 N          19.0349   70.9728   -7.0760 N.ar    1  UNL1       -0.2551
     16 C          18.7867   70.2820   -8.2022 C.ar    1  UNL1        0.3323
     17 N          17.5269   70.1010   -8.6409 N.ar    1  UNL1       -0.2743
     18 C          16.4879   70.6215   -7.9571 C.ar    1  UNL1        0.2626
     19 C          16.7354   71.3560   -6.7730 C.ar    1  UNL1        0.0795
     20 C          18.0084   71.5179   -6.3528 C.ar    1  UNL1        0.0869
     21 O          19.7132   69.8064   -8.8299 O.2     1  UNL1       -0.2464
     22 O          15.3489   70.4624   -8.3553 O.2     1  UNL1       -0.2670
     23 H          17.3659   69.5959   -9.4527 H       1  UNL1        0.1734
     24 O          20.3601   71.8994   -0.1760 O.3     1  UNL1       -0.2703
     25 P          21.7796   71.2999    0.2874 P.3     1  UNL1        0.2208
     26 O          22.6177   71.0400   -0.9038 O.2     1  UNL1       -0.5170
     27 O          21.5458   69.9232    1.0888 O.3     1  UNL1       -0.4371
     28 O          22.5231   72.3576    1.2460 O.3     1  UNL1       -0.2865
     29 C          22.6093   71.7558    2.5390 C.3     1  UNL1        0.2611
     30 C          22.1023   72.7441    3.5908 C.3     1  UNL1        0.1582
     31 C          22.9502   74.0196    3.5300 C.3     1  UNL1        0.1625
     32 C          24.4274   73.6327    3.6573 C.3     1  UNL1        0.1686
     33 C          24.7598   72.5795    2.5983 C.3     1  UNL1        0.1760
     34 O          22.5852   74.8889    4.6036 O.3     1  UNL1       -0.3801
     35 O          25.2432   74.7885    3.4564 O.3     1  UNL1       -0.3794
     36 O          23.9661   71.4130    2.8127 O.3     1  UNL1       -0.3263
     37 H          23.1413   75.6764    4.5269 H       1  UNL1        0.2105
     38 H          26.1629   74.5004    3.5442 H       1  UNL1        0.2105
     39 C          20.3947   74.1343    2.5488 C.2     1  UNL1        0.2231
     40 C          18.9525   74.4726    2.2698 C.3     1  UNL1        0.0946
     41 N          20.7014   73.0729    3.3191 N.am    1  UNL1       -0.2994
     42 O          21.2795   74.8183    2.0801 O.2     1  UNL1       -0.2751
     43 H          19.9935   72.5255    3.6945 H       1  UNL1        0.1496
     44 C          26.2413   72.2098    2.6958 C.3     1  UNL1        0.1693
     45 O          26.4079   70.8236    2.3913 O.3     1  UNL1       -0.3794
     46 H          27.3528   70.6327    2.4643 H       1  UNL1        0.2105
@<TRIPOS>BOND
     1    29    30    1
     2    29    28    1
     3    29    36    1
     4    30    31    1
     5    30    41    1
     6    31    32    1
     7    31    34    1
     8    32    33    1
     9    32    35    1
    10    33    44    1
    11    33    36    1
    12    44    45    1
    13    39    40    1
    14    39    41   am
    15    39    42    2
    16    41    43    1
    17    28    25    1
    18    34    37    1
    19    35    38    1
    20    45    46    1
    21    15    16   ar
    22    15    20   ar
    23    15     6    1
    24    16    17   ar
    25    16    21    2
    26    17    18   ar
    27    17    23    1
    28    18    19   ar
    29    18    22    2
    30    19    20   ar
    31     6     7    1
    32     6    11    1
    33     7     8    1
    34     7     9    1
    35     8    13    1
    36     9    10    1
    37     9    12    1
    38    10    11    1
    39    10     5    1
    40    12    14    1
    41     5     4    1
    42     4     1    1
    43     1     2    2
    44     1     3    1
    45     1    24    1
    46    24    25    1
    47    25    26    2
    48    25    27    1
