@<TRIPOS>MOLECULE
*****
 43 45 0 0 0
SMALL
GASTEIGER

@<TRIPOS>ATOM
      1 P          22.6453   71.4446   -2.4368 P.3     1  UNL1        0.2189
      2 O          22.1378   72.7750   -3.2057 O.co2   1  UNL1       -0.4371
      3 O          23.9947   70.9436   -2.8608 O.2     1  UNL1       -0.5170
      4 O          21.4209   70.4020   -2.6150 O.3     1  UNL1       -0.3112
      5 C          20.7226   70.3833   -3.8465 C.3     1  UNL1        0.1811
      6 O          18.8601   71.5386   -4.8333 O.3     1  UNL1       -0.3308
      7 O          17.1981   70.3470   -2.6404 O.3     1  UNL1       -0.3794
      8 O          16.6251   68.7362   -4.7648 O.3     1  UNL1       -0.3779
      9 C          18.3018   69.7807   -3.3472 C.3     1  UNL1        0.1713
     10 C          17.8802   69.3833   -4.7460 C.3     1  UNL1        0.1895
     11 C          19.3050   70.8929   -3.6207 C.3     1  UNL1        0.1764
     12 C          17.8581   70.7233   -5.4614 C.3     1  UNL1        0.2383
     13 H          16.5436   69.6551   -2.4543 H       1  UNL1        0.2105
     14 H          16.6914   67.8882   -4.2973 H       1  UNL1        0.2106
     15 O          15.9385   70.2393   -7.4757 O.2     1  UNL1       -0.2464
     16 O          19.1398   70.2816  -10.7914 O.2     1  UNL1       -0.2670
     17 N          18.1625   70.6033   -6.8592 N.ar    1  UNL1       -0.2551
     18 N          17.5349   70.2598   -9.1251 N.ar    1  UNL1       -0.2743
     19 C          17.1244   70.3596   -7.7892 C.ar    1  UNL1        0.3323
     20 C          19.4756   70.7283   -7.2963 C.ar    1  UNL1        0.0869
     21 C          19.8515   70.6308   -8.5730 C.ar    1  UNL1        0.0795
     22 C          18.8283   70.3762   -9.6081 C.ar    1  UNL1        0.2626
     23 H          16.8301   70.0883   -9.7908 H       1  UNL1        0.1734
     24 O          22.5417   71.8639   -0.8791 O.3     1  UNL1       -0.2703
     25 P          21.2693   71.9500    0.1146 P.3     1  UNL1        0.2208
     26 O          21.1512   70.4437    0.6955 O.co2   1  UNL1       -0.4371
     27 O          20.0158   72.4630   -0.5330 O.2     1  UNL1       -0.5170
     28 O          21.7851   72.8293    1.3648 O.3     1  UNL1       -0.2858
     29 O          23.1703   71.3358    2.5730 O.3     1  UNL1       -0.3226
     30 O          23.7648   74.8754    4.6190 O.3     1  UNL1       -0.3794
     31 O          21.0884   74.1076    3.7348 O.3     1  UNL1       -0.3775
     32 O          25.8073   73.8761    2.8077 O.3     1  UNL1       -0.3792
     33 C          23.5005   74.0577    3.4790 C.3     1  UNL1        0.1718
     34 C          22.2237   73.2500    3.7135 C.3     1  UNL1        0.1968
     35 C          24.6944   73.1207    3.2821 C.3     1  UNL1        0.1723
     36 C          22.0330   72.1982    2.6198 C.3     1  UNL1        0.2706
     37 C          24.3809   72.0246    2.2678 C.3     1  UNL1        0.1830
     38 H          23.0194   75.4793    4.7637 H       1  UNL1        0.2105
     39 H          21.2028   74.7776    4.4264 H       1  UNL1        0.2106
     40 H          26.0171   74.5773    3.4442 H       1  UNL1        0.2106
     41 O          24.8231   69.7218    2.2096 O.co2   1  UNL1       -0.5466
     42 O          26.6092   71.1181    2.4535 O.co2   1  UNL1       -0.5466
     43 C          25.4072   70.9403    2.3244 C.2     1  UNL1        0.0799
@<TRIPOS>UNITY_ATOM_ATTR
2 1
charge -1
26 1
charge -1
41 1
charge -1
@<TRIPOS>BOND
     1     1     4    1
     2     1    24    1
     3     1     2    1
     4     1     3    2
     5    25    28    1
     6    25    24    1
     7    25    26    1
     8    25    27    2
     9     6    11    1
    10     6    12    1
    11    29    36    1
    12    29    37    1
    13     7     9    1
    14     7    13    1
    15     8    10    1
    16     8    14    1
    17     4     5    1
    18    28    36    1
    19    30    33    1
    20    30    38    1
    21    31    34    1
    22    31    39    1
    23    32    35    1
    24    32    40    1
    25    41    43   ar
    26    15    19    2
    27    42    43   ar
    28    16    22    2
    29    17    12    1
    30    17    19   ar
    31    17    20   ar
    32    18    19   ar
    33    18    22   ar
    34    18    23    1
    35     9    10    1
    36     9    11    1
    37    10    12    1
    38    11     5    1
    39    33    34    1
    40    33    35    1
    41    34    36    1
    42    35    37    1
    43    37    43    1
    44    20    21   ar
    45    21    22   ar
@<TRIPOS>MOLECULE
*****
 43 45 0 0 0
SMALL
GASTEIGER

@<TRIPOS>ATOM
      1 P          23.1287   73.5026   -4.5166 P.3     1  UNL1        0.2189
      2 O          24.1902   72.3606   -4.0830 O.co2   1  UNL1       -0.4371
      3 O          23.7398   74.7914   -4.9830 O.2     1  UNL1       -0.5170
      4 O          22.1375   73.6155   -3.2427 O.3     1  UNL1       -0.3112
      5 C          21.4359   72.4581   -2.8273 C.3     1  UNL1        0.1811
      6 O          20.7888   72.0736   -0.5445 O.3     1  UNL1       -0.3308
      7 O          19.3131   74.6781   -0.7194 O.3     1  UNL1       -0.3794
      8 O          21.5891   75.3711    0.6131 O.3     1  UNL1       -0.3779
      9 C          20.5568   74.3026   -1.3117 C.3     1  UNL1        0.1713
     10 C          21.6469   74.2639   -0.2616 C.3     1  UNL1        0.1895
     11 C          20.4586   72.8400   -1.7231 C.3     1  UNL1        0.1764
     12 C          21.3611   72.9478    0.4412 C.3     1  UNL1        0.2383
     13 H          19.3517   75.6091   -0.4483 H       1  UNL1        0.2105
     14 H          21.7782   76.1843    0.1183 H       1  UNL1        0.2106
     15 O          21.5917   70.2134    1.1096 O.2     1  UNL1       -0.2464
     16 O          25.9668   70.7261    2.4658 O.2     1  UNL1       -0.2670
     17 N          22.5490   72.3401    0.9709 N.ar    1  UNL1       -0.2551
     18 N          23.7702   70.4716    1.7854 N.ar    1  UNL1       -0.2743
     19 C          22.5600   70.9580    1.2735 C.ar    1  UNL1        0.3323
     20 C          23.6861   73.1100    1.1837 C.ar    1  UNL1        0.0869
     21 C          24.8323   72.6322    1.6721 C.ar    1  UNL1        0.0795
     22 C          24.9274   71.1981    2.0151 C.ar    1  UNL1        0.2626
     23 H          23.8015   69.5125    2.0056 H       1  UNL1        0.1734
     24 O          22.2178   72.7511   -5.6203 O.3     1  UNL1       -0.2703
     25 P          21.3075   73.3358   -6.8216 P.3     1  UNL1        0.2208
     26 O          22.0951   72.8533   -8.1510 O.co2   1  UNL1       -0.4371
     27 O          21.0675   74.8160   -6.7480 O.2     1  UNL1       -0.5170
     28 O          19.9674   72.4381   -6.7939 O.3     1  UNL1       -0.2858
     29 O          19.5025   70.3008   -5.8856 O.3     1  UNL1       -0.3226
     30 O          17.2012   70.2749   -9.3166 O.3     1  UNL1       -0.3794
     31 O          19.9112   71.3651   -9.3594 O.3     1  UNL1       -0.3775
     32 O          15.9472   70.6525   -6.7213 O.3     1  UNL1       -0.3792
     33 C          17.8488   70.8587   -8.1862 C.3     1  UNL1        0.1718
     34 C          19.3562   70.6211   -8.2809 C.3     1  UNL1        0.1968
     35 C          17.2844   70.2001   -6.9255 C.3     1  UNL1        0.1723
     36 C          20.0565   71.0271   -6.9834 C.3     1  UNL1        0.2706
     37 C          18.1125   70.5540   -5.6936 C.3     1  UNL1        0.1830
     38 H          17.5441   70.6780  -10.1298 H       1  UNL1        0.2105
     39 H          19.4712   71.1127  -10.1859 H       1  UNL1        0.2106
     40 H          15.4095   70.4335   -7.4983 H       1  UNL1        0.2106
     41 O          16.8675   68.7197   -4.9278 O.co2   1  UNL1       -0.5466
     42 O          18.2219   69.7607   -3.4176 O.co2   1  UNL1       -0.5466
     43 C          17.7644   69.6625   -4.5463 C.2     1  UNL1        0.0799
@<TRIPOS>UNITY_ATOM_ATTR
2 1
charge -1
26 1
charge -1
41 1
charge -1
@<TRIPOS>BOND
     1     1     4    1
     2     1    24    1
     3     1     2    1
     4     1     3    2
     5    25    28    1
     6    25    24    1
     7    25    26    1
     8    25    27    2
     9     6    11    1
    10     6    12    1
    11    29    36    1
    12    29    37    1
    13     7     9    1
    14     7    13    1
    15     8    10    1
    16     8    14    1
    17     4     5    1
    18    28    36    1
    19    30    33    1
    20    30    38    1
    21    31    34    1
    22    31    39    1
    23    32    35    1
    24    32    40    1
    25    41    43   ar
    26    15    19    2
    27    42    43   ar
    28    16    22    2
    29    17    12    1
    30    17    19   ar
    31    17    20   ar
    32    18    19   ar
    33    18    22   ar
    34    18    23    1
    35     9    10    1
    36     9    11    1
    37    10    12    1
    38    11     5    1
    39    33    34    1
    40    33    35    1
    41    34    36    1
    42    35    37    1
    43    37    43    1
    44    20    21   ar
    45    21    22   ar
@<TRIPOS>MOLECULE
*****
 43 45 0 0 0
SMALL
GASTEIGER

@<TRIPOS>ATOM
      1 P          21.8052   73.6560   -5.5798 P.3     1  UNL1        0.2189
      2 O          21.2510   75.1481   -5.8718 O.co2   1  UNL1       -0.4371
      3 O          22.7808   73.1329   -6.5929 O.2     1  UNL1       -0.5170
      4 O          20.4628   72.7757   -5.3773 O.3     1  UNL1       -0.3112
      5 C          20.2058   72.2184   -4.1014 C.3     1  UNL1        0.1811
      6 O          18.0695   72.2376   -5.2031 O.3     1  UNL1       -0.3308
      7 O          17.0084   70.8506   -2.7655 O.3     1  UNL1       -0.3794
      8 O          17.2955   68.8002   -4.5402 O.3     1  UNL1       -0.3779
      9 C          18.2782   70.7118   -3.4034 C.3     1  UNL1        0.1713
     10 C          18.1356   69.9256   -4.6894 C.3     1  UNL1        0.1895
     11 C          18.7002   72.0829   -3.9133 C.3     1  UNL1        0.1764
     12 C          17.5569   70.9664   -5.6327 C.3     1  UNL1        0.2383
     13 H          16.7179   69.9872   -2.4314 H       1  UNL1        0.2105
     14 H          17.7079   68.1674   -3.9309 H       1  UNL1        0.2106
     15 O          15.7726   71.0037   -7.8216 O.2     1  UNL1       -0.2464
     16 O          19.1502   70.1006  -10.8250 O.2     1  UNL1       -0.2670
     17 N          17.9433   70.7442   -6.9974 N.ar    1  UNL1       -0.2551
     18 N          17.4564   70.5529   -9.3153 N.ar    1  UNL1       -0.2743
     19 C          16.9686   70.7842   -8.0224 C.ar    1  UNL1        0.3323
     20 C          19.2737   70.4918   -7.3093 C.ar    1  UNL1        0.0869
     21 C          19.7235   70.2733   -8.5465 C.ar    1  UNL1        0.0795
     22 C          18.7697   70.2970   -9.6748 C.ar    1  UNL1        0.2626
     23 H          16.7961   70.5737  -10.0453 H       1  UNL1        0.1734
     24 O          22.3921   73.7742   -4.0783 O.3     1  UNL1       -0.2703
     25 P          23.7880   73.2652   -3.4412 P.3     1  UNL1        0.2208
     26 O          24.8802   74.2627   -4.0987 O.co2   1  UNL1       -0.4371
     27 O          24.0702   71.8073   -3.6619 O.2     1  UNL1       -0.5170
     28 O          23.7152   73.7059   -1.8910 O.3     1  UNL1       -0.2858
     29 O          21.7754   72.7571   -0.9183 O.3     1  UNL1       -0.3226
     30 O          23.3393   74.9031    2.2467 O.3     1  UNL1       -0.3794
     31 O          23.3034   76.0442   -0.4424 O.3     1  UNL1       -0.3775
     32 O          23.6148   72.0102    2.1674 O.3     1  UNL1       -0.3792
     33 C          23.3846   74.1307    1.0469 C.3     1  UNL1        0.1718
     34 C          22.6185   74.8574   -0.0588 C.3     1  UNL1        0.1968
     35 C          22.7424   72.7718    1.3348 C.3     1  UNL1        0.1723
     36 C          22.4487   73.9615   -1.2865 C.3     1  UNL1        0.2706
     37 C          22.4909   71.9908    0.0482 C.3     1  UNL1        0.1830
     38 H          23.7421   75.7713    2.0879 H       1  UNL1        0.2105
     39 H          23.4148   76.6173    0.3319 H       1  UNL1        0.2106
     40 H          23.7831   72.4963    2.9897 H       1  UNL1        0.2106
     41 O          20.6202   70.7633   -0.6556 O.co2   1  UNL1       -0.5466
     42 O          21.6807   70.0516    1.2333 O.co2   1  UNL1       -0.5466
     43 C          21.5801   70.8334    0.2997 C.2     1  UNL1        0.0799
@<TRIPOS>UNITY_ATOM_ATTR
2 1
charge -1
26 1
charge -1
41 1
charge -1
@<TRIPOS>BOND
     1     1     4    1
     2     1    24    1
     3     1     2    1
     4     1     3    2
     5    25    28    1
     6    25    24    1
     7    25    26    1
     8    25    27    2
     9     6    11    1
    10     6    12    1
    11    29    36    1
    12    29    37    1
    13     7     9    1
    14     7    13    1
    15     8    10    1
    16     8    14    1
    17     4     5    1
    18    28    36    1
    19    30    33    1
    20    30    38    1
    21    31    34    1
    22    31    39    1
    23    32    35    1
    24    32    40    1
    25    41    43   ar
    26    15    19    2
    27    42    43   ar
    28    16    22    2
    29    17    12    1
    30    17    19   ar
    31    17    20   ar
    32    18    19   ar
    33    18    22   ar
    34    18    23    1
    35     9    10    1
    36     9    11    1
    37    10    12    1
    38    11     5    1
    39    33    34    1
    40    33    35    1
    41    34    36    1
    42    35    37    1
    43    37    43    1
    44    20    21   ar
    45    21    22   ar
@<TRIPOS>MOLECULE
*****
 43 45 0 0 0
SMALL
GASTEIGER

@<TRIPOS>ATOM
      1 P          22.8835   71.4361   -2.4671 P.3     1  UNL1        0.2189
      2 O          22.4183   72.7986   -3.2060 O.co2   1  UNL1       -0.4371
      3 O          24.1362   70.8155   -3.0125 O.2     1  UNL1       -0.5170
      4 O          21.5625   70.5026   -2.5061 O.3     1  UNL1       -0.3112
      5 C          20.8232   70.4271   -3.7112 C.3     1  UNL1        0.1811
      6 O          18.9310   71.5792   -4.6439 O.3     1  UNL1       -0.3308
      7 O          17.3181   70.3163   -2.4542 O.3     1  UNL1       -0.3794
      8 O          16.7342   68.7461   -4.6058 O.3     1  UNL1       -0.3779
      9 C          18.4184   69.7809   -3.1899 C.3     1  UNL1        0.1713
     10 C          17.9809   69.4094   -4.5909 C.3     1  UNL1        0.1895
     11 C          19.4026   70.9125   -3.4530 C.3     1  UNL1        0.1764
     12 C          17.9304   70.7648   -5.2753 C.3     1  UNL1        0.2383
     13 H          16.6756   69.6117   -2.2741 H       1  UNL1        0.2105
     14 H          16.8187   67.8888   -4.1587 H       1  UNL1        0.2106
     15 O          16.0117   70.1619   -7.2582 O.2     1  UNL1       -0.2464
     16 O          19.1358   70.4674  -10.6332 O.2     1  UNL1       -0.2670
     17 N          18.2152   70.6803   -6.6799 N.ar    1  UNL1       -0.2551
     18 N          17.5697   70.3136   -8.9371 N.ar    1  UNL1       -0.2743
     19 C          17.1793   70.3708   -7.5927 C.ar    1  UNL1        0.3323
     20 C          19.5070   70.9044   -7.1403 C.ar    1  UNL1        0.0869
     21 C          19.8638   70.8465   -8.4249 C.ar    1  UNL1        0.0795
     22 C          18.8415   70.5281   -9.4432 C.ar    1  UNL1        0.2626
     23 H          16.8662   70.0978   -9.5912 H       1  UNL1        0.1734
     24 O          22.9712   71.8770   -0.9145 O.3     1  UNL1       -0.2703
     25 P          22.3557   71.1990    0.4178 P.3     1  UNL1        0.2208
     26 O          23.5493   70.2304    0.9252 O.co2   1  UNL1       -0.4371
     27 O          21.0428   70.5027    0.2042 O.2     1  UNL1       -0.5170
     28 O          22.3116   72.3930    1.5017 O.3     1  UNL1       -0.2858
     29 O          21.9371   72.5255    3.8365 O.3     1  UNL1       -0.3226
     30 O          19.8581   75.8210    2.4632 O.3     1  UNL1       -0.3794
     31 O          19.7175   73.2788    1.0307 O.3     1  UNL1       -0.3775
     32 O          22.4323   76.1605    3.7706 O.3     1  UNL1       -0.3792
     33 C          20.8976   74.8425    2.4619 C.3     1  UNL1        0.1718
     34 C          20.2872   73.4476    2.3236 C.3     1  UNL1        0.1968
     35 C          21.6604   74.9611    3.7833 C.3     1  UNL1        0.1723
     36 C          21.3427   72.3638    2.5481 C.3     1  UNL1        0.2706
     37 C          22.6011   73.7778    3.9916 C.3     1  UNL1        0.1830
     38 H          19.3595   75.7644    1.6328 H       1  UNL1        0.2105
     39 H          19.0471   73.9633    0.8814 H       1  UNL1        0.2106
     40 H          21.8454   76.9213    3.6385 H       1  UNL1        0.2106
     41 O          24.1154   74.5911    5.5875 O.co2   1  UNL1       -0.5466
     42 O          22.6226   73.0126    6.2797 O.co2   1  UNL1       -0.5466
     43 C          23.0858   73.7278    5.4040 C.2     1  UNL1        0.0799
@<TRIPOS>UNITY_ATOM_ATTR
2 1
charge -1
26 1
charge -1
41 1
charge -1
@<TRIPOS>BOND
     1     1     4    1
     2     1    24    1
     3     1     2    1
     4     1     3    2
     5    25    28    1
     6    25    24    1
     7    25    26    1
     8    25    27    2
     9     6    11    1
    10     6    12    1
    11    29    36    1
    12    29    37    1
    13     7     9    1
    14     7    13    1
    15     8    10    1
    16     8    14    1
    17     4     5    1
    18    28    36    1
    19    30    33    1
    20    30    38    1
    21    31    34    1
    22    31    39    1
    23    32    35    1
    24    32    40    1
    25    41    43   ar
    26    15    19    2
    27    42    43   ar
    28    16    22    2
    29    17    12    1
    30    17    19   ar
    31    17    20   ar
    32    18    19   ar
    33    18    22   ar
    34    18    23    1
    35     9    10    1
    36     9    11    1
    37    10    12    1
    38    11     5    1
    39    33    34    1
    40    33    35    1
    41    34    36    1
    42    35    37    1
    43    37    43    1
    44    20    21   ar
    45    21    22   ar
@<TRIPOS>MOLECULE
*****
 43 45 0 0 0
SMALL
GASTEIGER

@<TRIPOS>ATOM
      1 P          22.7404   71.9943   -3.5639 P.3     1  UNL1        0.2189
      2 O          23.5960   72.5672   -4.8124 O.co2   1  UNL1       -0.4371
      3 O          23.3446   70.8068   -2.8736 O.2     1  UNL1       -0.5170
      4 O          21.2596   71.7723   -4.1770 O.3     1  UNL1       -0.3112
      5 C          20.5055   70.6579   -3.7365 C.3     1  UNL1        0.1811
      6 O          18.6215   71.6912   -4.8138 O.3     1  UNL1       -0.3308
      7 O          16.9374   70.3946   -2.6986 O.3     1  UNL1       -0.3794
      8 O          16.5705   68.7506   -4.8430 O.3     1  UNL1       -0.3779
      9 C          18.1076   69.9007   -3.3507 C.3     1  UNL1        0.1713
     10 C          17.7792   69.4772   -4.7667 C.3     1  UNL1        0.1895
     11 C          19.0490   71.0752   -3.5796 C.3     1  UNL1        0.1764
     12 C          17.7049   70.8131   -5.4862 C.3     1  UNL1        0.2383
     13 H          16.3207   69.6620   -2.5417 H       1  UNL1        0.2105
     14 H          16.6690   67.9086   -4.3705 H       1  UNL1        0.2106
     15 O          15.9199   70.1979   -7.5866 O.2     1  UNL1       -0.2464
     16 O          19.2636   70.4561  -10.7484 O.2     1  UNL1       -0.2670
     17 N          18.0823   70.7132   -6.8677 N.ar    1  UNL1       -0.2551
     18 N          17.5872   70.3261   -9.1592 N.ar    1  UNL1       -0.2743
     19 C          17.1082   70.3986   -7.8445 C.ar    1  UNL1        0.3323
     20 C          19.4030   70.9272   -7.2431 C.ar    1  UNL1        0.0869
     21 C          19.8445   70.8547   -8.5003 C.ar    1  UNL1        0.0795
     22 C          18.8909   70.5302   -9.5814 C.ar    1  UNL1        0.2626
     23 H          16.9278   70.1065   -9.8566 H       1  UNL1        0.1734
     24 O          22.5532   73.2962   -2.6243 O.3     1  UNL1       -0.2703
     25 P          23.6131   74.4167   -2.1399 P.3     1  UNL1        0.2208
     26 O          22.6735   75.6874   -1.7892 O.co2   1  UNL1       -0.4371
     27 O          24.7000   74.7070   -3.1340 O.2     1  UNL1       -0.5170
     28 O          24.1384   73.8913   -0.7079 O.3     1  UNL1       -0.2858
     29 O          22.4149   73.4387    0.8522 O.3     1  UNL1       -0.3226
     30 O          25.7892   73.1406    3.2172 O.3     1  UNL1       -0.3794
     31 O          25.5473   75.2825    1.2454 O.3     1  UNL1       -0.3775
     32 O          24.3977   70.7397    2.3509 O.3     1  UNL1       -0.3792
     33 C          25.0286   73.0403    2.0132 C.3     1  UNL1        0.1718
     34 C          24.4858   74.4186    1.6346 C.3     1  UNL1        0.1968
     35 C          23.8764   72.0644    2.2616 C.3     1  UNL1        0.1723
     36 C          23.4818   74.3144    0.4857 C.3     1  UNL1        0.2706
     37 C          22.8533   72.1108    1.1304 C.3     1  UNL1        0.1830
     38 H          26.5273   73.7558    3.0833 H       1  UNL1        0.2105
     39 H          26.1884   75.3530    1.9696 H       1  UNL1        0.2106
     40 H          25.0503   70.6966    3.0672 H       1  UNL1        0.2106
     41 O          21.5654   70.1526    1.0387 O.co2   1  UNL1       -0.5466
     42 O          20.7009   71.9126    2.2024 O.co2   1  UNL1       -0.5466
     43 C          21.5911   71.4171    1.5279 C.2     1  UNL1        0.0799
@<TRIPOS>UNITY_ATOM_ATTR
2 1
charge -1
26 1
charge -1
41 1
charge -1
@<TRIPOS>BOND
     1     1     4    1
     2     1    24    1
     3     1     2    1
     4     1     3    2
     5    25    28    1
     6    25    24    1
     7    25    26    1
     8    25    27    2
     9     6    11    1
    10     6    12    1
    11    29    36    1
    12    29    37    1
    13     7     9    1
    14     7    13    1
    15     8    10    1
    16     8    14    1
    17     4     5    1
    18    28    36    1
    19    30    33    1
    20    30    38    1
    21    31    34    1
    22    31    39    1
    23    32    35    1
    24    32    40    1
    25    41    43   ar
    26    15    19    2
    27    42    43   ar
    28    16    22    2
    29    17    12    1
    30    17    19   ar
    31    17    20   ar
    32    18    19   ar
    33    18    22   ar
    34    18    23    1
    35     9    10    1
    36     9    11    1
    37    10    12    1
    38    11     5    1
    39    33    34    1
    40    33    35    1
    41    34    36    1
    42    35    37    1
    43    37    43    1
    44    20    21   ar
    45    21    22   ar
@<TRIPOS>MOLECULE
*****
 43 45 0 0 0
SMALL
GASTEIGER

@<TRIPOS>ATOM
      1 P          23.3874   73.6898   -4.0800 P.3     1  UNL1        0.2189
      2 O          22.8695   75.2208   -3.9982 O.co2   1  UNL1       -0.4371
      3 O          24.8782   73.5226   -4.0439 O.2     1  UNL1       -0.5170
      4 O          22.6456   73.0982   -5.3906 O.3     1  UNL1       -0.3112
      5 C          21.4722   72.3262   -5.2126 C.3     1  UNL1        0.1811
      6 O          20.4119   70.3818   -6.1469 O.3     1  UNL1       -0.3308
      7 O          20.6079   71.7762   -8.7943 O.3     1  UNL1       -0.3794
      8 O          18.0050   72.1894   -8.0945 O.3     1  UNL1       -0.3779
      9 C          20.3588   72.3252   -7.5001 C.3     1  UNL1        0.1713
     10 C          18.9465   72.0053   -7.0581 C.3     1  UNL1        0.1895
     11 C          21.1923   71.5470   -6.4912 C.3     1  UNL1        0.1764
     12 C          19.0708   70.5523   -6.6323 C.3     1  UNL1        0.2383
     13 H          20.0861   72.2573   -9.4560 H       1  UNL1        0.2105
     14 H          17.9626   73.1301   -8.3294 H       1  UNL1        0.2106
     15 O          16.4263   69.6624   -7.0694 O.2     1  UNL1       -0.2464
     16 O          15.6222   69.2543   -2.5494 O.2     1  UNL1       -0.2670
     17 N          18.1487   70.2066   -5.5877 N.ar    1  UNL1       -0.2551
     18 N          16.0280   69.4609   -4.8178 N.ar    1  UNL1       -0.2743
     19 C          16.8429   69.7706   -5.9146 C.ar    1  UNL1        0.3323
     20 C          18.5408   70.2992   -4.2578 C.ar    1  UNL1        0.0869
     21 C          17.7528   70.0004   -3.2231 C.ar    1  UNL1        0.0795
     22 C          16.3728   69.5378   -3.4781 C.ar    1  UNL1        0.2626
     23 H          15.1137   69.1571   -5.0203 H       1  UNL1        0.1734
     24 O          22.6000   72.9748   -2.8629 O.3     1  UNL1       -0.2703
     25 P          22.8143   71.5344   -2.1607 P.3     1  UNL1        0.2208
     26 O          24.1746   70.9874   -2.8467 O.co2   1  UNL1       -0.4371
     27 O          21.6410   70.6065   -2.2883 O.2     1  UNL1       -0.5170
     28 O          23.2340   71.8780   -0.6415 O.3     1  UNL1       -0.2858
     29 O          24.5815   70.9235    1.0563 O.3     1  UNL1       -0.3226
     30 O          21.1743   71.9407    3.1597 O.3     1  UNL1       -0.3794
     31 O          20.9720   70.7365    0.5057 O.3     1  UNL1       -0.3775
     32 O          23.5807   73.5521    3.4124 O.3     1  UNL1       -0.3792
     33 C          22.1652   72.0741    2.1407 C.3     1  UNL1        0.1718
     34 C          22.1718   70.8202    1.2660 C.3     1  UNL1        0.1968
     35 C          23.5233   72.2547    2.8225 C.3     1  UNL1        0.1723
     36 C          23.3668   70.8251    0.3117 C.3     1  UNL1        0.2706
     37 C          24.6698   72.1215    1.8243 C.3     1  UNL1        0.1830
     38 H          20.3025   71.8247    2.7500 H       1  UNL1        0.2105
     39 H          20.2096   70.7332    1.1050 H       1  UNL1        0.2106
     40 H          22.8560   73.6498    4.0497 H       1  UNL1        0.2106
     41 O          26.4812   70.7254    2.3452 O.co2   1  UNL1       -0.5466
     42 O          26.5216   72.8417    3.1931 O.co2   1  UNL1       -0.5466
     43 C          25.9759   71.9696    2.5338 C.2     1  UNL1        0.0799
@<TRIPOS>UNITY_ATOM_ATTR
2 1
charge -1
26 1
charge -1
41 1
charge -1
@<TRIPOS>BOND
     1     1     4    1
     2     1    24    1
     3     1     2    1
     4     1     3    2
     5    25    28    1
     6    25    24    1
     7    25    26    1
     8    25    27    2
     9     6    11    1
    10     6    12    1
    11    29    36    1
    12    29    37    1
    13     7     9    1
    14     7    13    1
    15     8    10    1
    16     8    14    1
    17     4     5    1
    18    28    36    1
    19    30    33    1
    20    30    38    1
    21    31    34    1
    22    31    39    1
    23    32    35    1
    24    32    40    1
    25    41    43   ar
    26    15    19    2
    27    42    43   ar
    28    16    22    2
    29    17    12    1
    30    17    19   ar
    31    17    20   ar
    32    18    19   ar
    33    18    22   ar
    34    18    23    1
    35     9    10    1
    36     9    11    1
    37    10    12    1
    38    11     5    1
    39    33    34    1
    40    33    35    1
    41    34    36    1
    42    35    37    1
    43    37    43    1
    44    20    21   ar
    45    21    22   ar
@<TRIPOS>MOLECULE
*****
 43 45 0 0 0
SMALL
GASTEIGER

@<TRIPOS>ATOM
      1 P          21.4498   72.6495   -4.6528 P.3     1  UNL1        0.2189
      2 O          21.1822   74.2128   -4.3316 O.co2   1  UNL1       -0.4371
      3 O          22.3985   72.3888   -5.7859 O.2     1  UNL1       -0.5170
      4 O          19.9656   72.0280   -4.8219 O.3     1  UNL1       -0.3112
      5 C          19.4143   71.2914   -3.7458 C.3     1  UNL1        0.1811
      6 O          17.5463   71.7175   -5.1973 O.3     1  UNL1       -0.3308
      7 O          15.9036   70.1546   -3.2350 O.3     1  UNL1       -0.3794
      8 O          16.3390   68.3417   -5.2249 O.3     1  UNL1       -0.3779
      9 C          17.2550   69.9497   -3.6478 C.3     1  UNL1        0.1713
     10 C          17.2937   69.3667   -5.0445 C.3     1  UNL1        0.1895
     11 C          17.8951   71.3156   -3.8548 C.3     1  UNL1        0.1764
     12 C          17.0109   70.5872   -5.9037 C.3     1  UNL1        0.2383
     13 H          15.4737   69.2957   -3.0964 H       1  UNL1        0.2105
     14 H          16.5632   67.5874   -4.6569 H       1  UNL1        0.2106
     15 O          15.6214   70.7344   -8.3581 O.2     1  UNL1       -0.2464
     16 O          19.5052   70.2606  -10.7944 O.2     1  UNL1       -0.2670
     17 N          17.6342   70.5051   -7.1943 N.ar    1  UNL1       -0.2551
     18 N          17.5570   70.4972   -9.5692 N.ar    1  UNL1       -0.2743
     19 C          16.8453   70.5900   -8.3658 C.ar    1  UNL1        0.3323
     20 C          19.0111   70.3442   -7.2905 C.ar    1  UNL1        0.0869
     21 C          19.6752   70.2576   -8.4447 C.ar    1  UNL1        0.0795
     22 C          18.9253   70.3363   -9.7155 C.ar    1  UNL1        0.2626
     23 H          17.0290   70.5516  -10.3984 H       1  UNL1        0.1734
     24 O          21.9290   72.0625   -3.2249 O.3     1  UNL1       -0.2703
     25 P          23.3924   71.9982   -2.5408 P.3     1  UNL1        0.2208
     26 O          24.0639   73.4069   -2.9710 O.co2   1  UNL1       -0.4371
     27 O          24.1967   70.7885   -2.9197 O.2     1  UNL1       -0.5170
     28 O          23.1117   72.1472   -0.9592 O.3     1  UNL1       -0.2858
     29 O          24.3819   71.0446    0.7081 O.3     1  UNL1       -0.3226
     30 O          20.8418   71.7892    2.7034 O.3     1  UNL1       -0.3794
     31 O          20.8135   70.8600   -0.0661 O.3     1  UNL1       -0.3775
     32 O          23.1958   73.4027    3.2565 O.3     1  UNL1       -0.3792
     33 C          21.8851   72.0413    1.7621 C.3     1  UNL1        0.1718
     34 C          21.9670   70.8836    0.7668 C.3     1  UNL1        0.1968
     35 C          23.1989   72.1718    2.5360 C.3     1  UNL1        0.1723
     36 C          23.2131   71.0044   -0.1115 C.3     1  UNL1        0.2706
     37 C          24.4019   72.1589    1.5974 C.3     1  UNL1        0.1830
     38 H          19.9969   71.7025    2.2344 H       1  UNL1        0.2105
     39 H          20.0191   70.7837    0.4847 H       1  UNL1        0.2106
     40 H          22.4348   73.4237    3.8576 H       1  UNL1        0.2106
     41 O          26.1433   70.6982    2.1767 O.co2   1  UNL1       -0.5466
     42 O          26.2117   72.7998    3.0588 O.co2   1  UNL1       -0.5466
     43 C          25.6692   71.9551    2.3621 C.2     1  UNL1        0.0799
@<TRIPOS>UNITY_ATOM_ATTR
2 1
charge -1
26 1
charge -1
41 1
charge -1
@<TRIPOS>BOND
     1     1     4    1
     2     1    24    1
     3     1     2    1
     4     1     3    2
     5    25    28    1
     6    25    24    1
     7    25    26    1
     8    25    27    2
     9     6    11    1
    10     6    12    1
    11    29    36    1
    12    29    37    1
    13     7     9    1
    14     7    13    1
    15     8    10    1
    16     8    14    1
    17     4     5    1
    18    28    36    1
    19    30    33    1
    20    30    38    1
    21    31    34    1
    22    31    39    1
    23    32    35    1
    24    32    40    1
    25    41    43   ar
    26    15    19    2
    27    42    43   ar
    28    16    22    2
    29    17    12    1
    30    17    19   ar
    31    17    20   ar
    32    18    19   ar
    33    18    22   ar
    34    18    23    1
    35     9    10    1
    36     9    11    1
    37    10    12    1
    38    11     5    1
    39    33    34    1
    40    33    35    1
    41    34    36    1
    42    35    37    1
    43    37    43    1
    44    20    21   ar
    45    21    22   ar
@<TRIPOS>MOLECULE
*****
 43 45 0 0 0
SMALL
GASTEIGER

@<TRIPOS>ATOM
      1 P          23.4263   71.9554   -3.3377 P.3     1  UNL1        0.2189
      2 O          24.1463   73.0092   -4.3327 O.co2   1  UNL1       -0.4371
      3 O          24.2220   70.7179   -3.0421 O.2     1  UNL1       -0.5170
      4 O          21.9755   71.7135   -4.0119 O.3     1  UNL1       -0.3112
      5 C          21.5750   72.5577   -5.0756 C.3     1  UNL1        0.1811
      6 O          20.6821   70.5362   -6.0210 O.3     1  UNL1       -0.3308
      7 O          21.0299   71.8525   -8.6927 O.3     1  UNL1       -0.3794
      8 O          18.3628   72.1639   -8.2177 O.3     1  UNL1       -0.3779
      9 C          20.6521   72.4304   -7.4430 C.3     1  UNL1        0.1713
     10 C          19.2244   72.0581   -7.1036 C.3     1  UNL1        0.1895
     11 C          21.4350   71.7255   -6.3437 C.3     1  UNL1        0.1764
     12 C          19.3786   70.6271   -6.6174 C.3     1  UNL1        0.2383
     13 H          20.5425   72.2868   -9.4106 H       1  UNL1        0.2105
     14 H          18.2976   73.0935   -8.4888 H       1  UNL1        0.2106
     15 O          16.7478   69.8033   -7.2311 O.2     1  UNL1       -0.2464
     16 O          15.6751   69.2882   -2.7782 O.2     1  UNL1       -0.2670
     17 N          18.3911   70.2718   -5.6379 N.ar    1  UNL1       -0.2551
     18 N          16.2157   69.5485   -5.0127 N.ar    1  UNL1       -0.2743
     19 C          17.0986   69.8715   -6.0516 C.ar    1  UNL1        0.3323
     20 C          18.7069   70.3200   -4.2855 C.ar    1  UNL1        0.0869
     21 C          17.8548   70.0091   -3.3068 C.ar    1  UNL1        0.0795
     22 C          16.4835   69.5818   -3.6538 C.ar    1  UNL1        0.2626
     23 H          15.3092   69.2689   -5.2761 H       1  UNL1        0.1734
     24 O          23.0793   72.8581   -2.0425 O.3     1  UNL1       -0.2703
     25 P          22.4502   74.3424   -1.9209 P.3     1  UNL1        0.2208
     26 O          20.8735   74.0995   -2.1951 O.co2   1  UNL1       -0.4371
     27 O          23.0863   75.3569   -2.8266 O.2     1  UNL1       -0.5170
     28 O          22.5404   74.6977   -0.3499 O.3     1  UNL1       -0.2858
     29 O          21.6088   72.7660    0.6549 O.3     1  UNL1       -0.3226
     30 O          23.0662   74.8029    3.9405 O.3     1  UNL1       -0.3794
     31 O          21.6838   76.2362    1.8030 O.3     1  UNL1       -0.3775
     32 O          24.4846   72.4815    2.9157 O.3     1  UNL1       -0.3792
     33 C          23.0377   74.3781    2.5779 C.3     1  UNL1        0.1718
     34 C          21.7244   74.8197    1.9316 C.3     1  UNL1        0.1968
     35 C          23.1553   72.8525    2.5555 C.3     1  UNL1        0.1723
     36 C          21.5561   74.1891    0.5485 C.3     1  UNL1        0.2706
     37 C          22.8505   72.2905    1.1700 C.3     1  UNL1        0.1830
     38 H          22.9928   75.7695    3.9797 H       1  UNL1        0.2105
     39 H          21.7903   76.6429    2.6769 H       1  UNL1        0.2106
     40 H          24.6913   72.8332    3.7957 H       1  UNL1        0.2106
     41 O          23.8248   70.1713    1.4176 O.co2   1  UNL1       -0.5466
     42 O          21.5643   70.2496    1.1297 O.co2   1  UNL1       -0.5466
     43 C          22.6443   70.8119    1.2308 C.2     1  UNL1        0.0799
@<TRIPOS>UNITY_ATOM_ATTR
2 1
charge -1
26 1
charge -1
41 1
charge -1
@<TRIPOS>BOND
     1     1     4    1
     2     1    24    1
     3     1     2    1
     4     1     3    2
     5    25    28    1
     6    25    24    1
     7    25    26    1
     8    25    27    2
     9     6    11    1
    10     6    12    1
    11    29    36    1
    12    29    37    1
    13     7     9    1
    14     7    13    1
    15     8    10    1
    16     8    14    1
    17     4     5    1
    18    28    36    1
    19    30    33    1
    20    30    38    1
    21    31    34    1
    22    31    39    1
    23    32    35    1
    24    32    40    1
    25    41    43   ar
    26    15    19    2
    27    42    43   ar
    28    16    22    2
    29    17    12    1
    30    17    19   ar
    31    17    20   ar
    32    18    19   ar
    33    18    22   ar
    34    18    23    1
    35     9    10    1
    36     9    11    1
    37    10    12    1
    38    11     5    1
    39    33    34    1
    40    33    35    1
    41    34    36    1
    42    35    37    1
    43    37    43    1
    44    20    21   ar
    45    21    22   ar
@<TRIPOS>MOLECULE
*****
 43 45 0 0 0
SMALL
GASTEIGER

@<TRIPOS>ATOM
      1 P          22.1421   73.1709   -6.6104 P.3     1  UNL1        0.2189
      2 O          23.2205   72.2978   -5.7775 O.co2   1  UNL1       -0.4371
      3 O          21.2892   74.0843   -5.7797 O.2     1  UNL1       -0.5170
      4 O          21.3446   72.0694   -7.4873 O.3     1  UNL1       -0.3112
      5 C          19.9368   72.1778   -7.5905 C.3     1  UNL1        0.1811
      6 O          18.8744   70.0688   -7.1421 O.3     1  UNL1       -0.3308
      7 O          18.1316   70.0365  -10.0470 O.3     1  UNL1       -0.3794
      8 O          15.8172   70.8393   -8.8490 O.3     1  UNL1       -0.3779
      9 C          18.2113   71.1419   -9.1469 C.3     1  UNL1        0.1713
     10 C          17.0347   71.1281   -8.1942 C.3     1  UNL1        0.1895
     11 C          19.3848   70.8991   -8.2076 C.3     1  UNL1        0.1764
     12 C          17.4397   70.0452   -7.2086 C.3     1  UNL1        0.2383
     13 H          17.3888   70.1689  -10.6573 H       1  UNL1        0.2105
     14 H          15.6031   71.5581   -9.4651 H       1  UNL1        0.2106
     15 O          16.4064   68.0200   -5.5331 O.2     1  UNL1       -0.2464
     16 O          15.4240   71.0350   -2.1881 O.2     1  UNL1       -0.2670
     17 N          16.9075   70.2731   -5.8949 N.ar    1  UNL1       -0.2551
     18 N          15.9172   69.5237   -3.8692 N.ar    1  UNL1       -0.2743
     19 C          16.4131   69.1865   -5.1354 C.ar    1  UNL1        0.3323
     20 C          16.8806   71.5599   -5.3711 C.ar    1  UNL1        0.0869
     21 C          16.4048   71.8657   -4.1625 C.ar    1  UNL1        0.0795
     22 C          15.8686   70.7883   -3.3052 C.ar    1  UNL1        0.2626
     23 H          15.5656   68.7841   -3.3226 H       1  UNL1        0.1734
     24 O          23.0560   73.9207   -7.7128 O.3     1  UNL1       -0.2703
     25 P          23.3020   75.4933   -7.9956 P.3     1  UNL1        0.2208
     26 O          24.4222   75.8955   -6.8984 O.co2   1  UNL1       -0.4371
     27 O          22.0569   76.3305   -7.9436 O.2     1  UNL1       -0.5170
     28 O          24.0807   75.5384   -9.4077 O.3     1  UNL1       -0.2858
     29 O          24.7215   73.7571  -10.8310 O.3     1  UNL1       -0.3226
     30 O          27.7254   76.5078  -11.5222 O.3     1  UNL1       -0.3794
     31 O          26.7525   76.0277   -8.8097 O.3     1  UNL1       -0.3775
     32 O          25.6187   76.1230  -13.4880 O.3     1  UNL1       -0.3792
     33 C          26.4014   76.0750  -11.2098 C.3     1  UNL1        0.1718
     34 C          26.4271   75.2255   -9.9389 C.3     1  UNL1        0.1968
     35 C          25.8823   75.2511  -12.3904 C.3     1  UNL1        0.1723
     36 C          25.0728   74.5562   -9.7008 C.3     1  UNL1        0.2706
     37 C          24.5948   74.5146  -12.0324 C.3     1  UNL1        0.1830
     38 H          28.0761   77.0335  -10.7860 H       1  UNL1        0.2105
     39 H          27.6107   76.4557   -8.9541 H       1  UNL1        0.2106
     40 H          26.4303   76.5981  -13.7258 H       1  UNL1        0.2106
     41 O          24.2976   72.2351  -12.4986 O.co2   1  UNL1       -0.5466
     42 O          24.0326   73.6943  -14.2306 O.co2   1  UNL1       -0.5466
     43 C          24.2783   73.4719  -13.0546 C.2     1  UNL1        0.0799
@<TRIPOS>UNITY_ATOM_ATTR
2 1
charge -1
26 1
charge -1
41 1
charge -1
@<TRIPOS>BOND
     1     1     4    1
     2     1    24    1
     3     1     2    1
     4     1     3    2
     5    25    28    1
     6    25    24    1
     7    25    26    1
     8    25    27    2
     9     6    11    1
    10     6    12    1
    11    29    36    1
    12    29    37    1
    13     7     9    1
    14     7    13    1
    15     8    10    1
    16     8    14    1
    17     4     5    1
    18    28    36    1
    19    30    33    1
    20    30    38    1
    21    31    34    1
    22    31    39    1
    23    32    35    1
    24    32    40    1
    25    41    43   ar
    26    15    19    2
    27    42    43   ar
    28    16    22    2
    29    17    12    1
    30    17    19   ar
    31    17    20   ar
    32    18    19   ar
    33    18    22   ar
    34    18    23    1
    35     9    10    1
    36     9    11    1
    37    10    12    1
    38    11     5    1
    39    33    34    1
    40    33    35    1
    41    34    36    1
    42    35    37    1
    43    37    43    1
    44    20    21   ar
    45    21    22   ar
@<TRIPOS>MOLECULE
*****
 43 45 0 0 0
SMALL
GASTEIGER

@<TRIPOS>ATOM
      1 P          23.4805   72.4212   -3.3944 P.3     1  UNL1        0.2189
      2 O          24.0430   70.9157   -3.2047 O.co2   1  UNL1       -0.4371
      3 O          24.4910   73.4185   -3.8803 O.2     1  UNL1       -0.5170
      4 O          22.7875   72.7591   -1.9720 O.3     1  UNL1       -0.3112
      5 C          23.6038   72.8047   -0.8161 C.3     1  UNL1        0.1811
      6 O          24.6242   71.2823    0.7391 O.3     1  UNL1       -0.3308
      7 O          21.8591   70.2380    1.2445 O.3     1  UNL1       -0.3794
      8 O          22.2846   71.8623    3.3932 O.3     1  UNL1       -0.3779
      9 C          22.2858   71.5743    0.9788 C.3     1  UNL1        0.1713
     10 C          22.9728   72.1570    2.1957 C.3     1  UNL1        0.1895
     11 C          23.4241   71.5121   -0.0305 C.3     1  UNL1        0.1764
     12 C          24.3408   71.4995    2.1305 C.3     1  UNL1        0.2383
     13 H          21.1321   70.2521    1.8871 H       1  UNL1        0.2105
     14 H          21.4203   72.3038    3.3864 H       1  UNL1        0.2106
     15 O          27.0297   70.6955    2.4472 O.2     1  UNL1       -0.2464
     16 O          28.2126   74.7446    4.3045 O.2     1  UNL1       -0.2670
     17 N          25.3724   72.3237    2.6939 N.ar    1  UNL1       -0.2551
     18 N          27.6160   72.7126    3.3728 N.ar    1  UNL1       -0.2743
     19 C          26.6913   71.8242    2.8084 C.ar    1  UNL1        0.3323
     20 C          25.0741   73.6109    3.1241 C.ar    1  UNL1        0.0869
     21 C          25.9663   74.4461    3.6600 C.ar    1  UNL1        0.0795
     22 C          27.3668   74.0014    3.8160 C.ar    1  UNL1        0.2626
     23 H          28.5404   72.3865    3.4648 H       1  UNL1        0.1734
     24 O          22.2131   72.2140   -4.3760 O.3     1  UNL1       -0.2703
     25 P          20.8072   71.4492   -4.1473 P.3     1  UNL1        0.2208
     26 O          20.0558   72.3760   -3.0533 O.co2   1  UNL1       -0.4371
     27 O          20.9477   70.0094   -3.7461 O.2     1  UNL1       -0.5170
     28 O          19.9852   71.6860   -5.5150 O.3     1  UNL1       -0.2858
     29 O          18.7684   69.6771   -5.8197 O.3     1  UNL1       -0.3226
     30 O          17.3204   72.0130   -8.9043 O.3     1  UNL1       -0.3794
     31 O          20.1727   71.9960   -8.2727 O.3     1  UNL1       -0.3775
     32 O          15.7055   71.5689   -6.5282 O.3     1  UNL1       -0.3792
     33 C          17.8528   71.7535   -7.6054 C.3     1  UNL1        0.1718
     34 C          19.2208   71.0838   -7.7374 C.3     1  UNL1        0.1968
     35 C          16.8775   70.8314   -6.8702 C.3     1  UNL1        0.1723
     36 C          19.7185   70.5839   -6.3805 C.3     1  UNL1        0.2706
     37 C          17.4944   70.2749   -5.5902 C.3     1  UNL1        0.1830
     38 H          17.9236   72.5973   -9.3903 H       1  UNL1        0.2105
     39 H          19.8631   72.3175   -9.1337 H       1  UNL1        0.2106
     40 H          15.3033   71.9287   -7.3342 H       1  UNL1        0.2106
     41 O          16.8006   69.0536   -3.7117 O.co2   1  UNL1       -0.5466
     42 O          15.9989   68.3874   -5.7397 O.co2   1  UNL1       -0.5466
     43 C          16.6815   69.1390   -5.0599 C.2     1  UNL1        0.0799
@<TRIPOS>UNITY_ATOM_ATTR
2 1
charge -1
26 1
charge -1
41 1
charge -1
@<TRIPOS>BOND
     1     1     4    1
     2     1    24    1
     3     1     2    1
     4     1     3    2
     5    25    28    1
     6    25    24    1
     7    25    26    1
     8    25    27    2
     9     6    11    1
    10     6    12    1
    11    29    36    1
    12    29    37    1
    13     7     9    1
    14     7    13    1
    15     8    10    1
    16     8    14    1
    17     4     5    1
    18    28    36    1
    19    30    33    1
    20    30    38    1
    21    31    34    1
    22    31    39    1
    23    32    35    1
    24    32    40    1
    25    41    43   ar
    26    15    19    2
    27    42    43   ar
    28    16    22    2
    29    17    12    1
    30    17    19   ar
    31    17    20   ar
    32    18    19   ar
    33    18    22   ar
    34    18    23    1
    35     9    10    1
    36     9    11    1
    37    10    12    1
    38    11     5    1
    39    33    34    1
    40    33    35    1
    41    34    36    1
    42    35    37    1
    43    37    43    1
    44    20    21   ar
    45    21    22   ar
@<TRIPOS>MOLECULE
*****
 43 45 0 0 0
SMALL
GASTEIGER

@<TRIPOS>ATOM
      1 P          21.9056   72.4729   -5.7658 P.3     1  UNL1        0.2189
      2 O          21.3040   73.8950   -5.2817 O.co2   1  UNL1       -0.4371
      3 O          23.0630   72.5652   -6.7165 O.2     1  UNL1       -0.5170
      4 O          20.6115   71.6687   -6.3104 O.3     1  UNL1       -0.3112
      5 C          20.0807   72.0192   -7.5753 C.3     1  UNL1        0.1811
      6 O          18.9036   69.9680   -7.1456 O.3     1  UNL1       -0.3308
      7 O          18.1127   70.0332  -10.0373 O.3     1  UNL1       -0.3794
      8 O          15.8695   70.9477   -8.7852 O.3     1  UNL1       -0.3779
      9 C          18.2721   71.1152   -9.1194 C.3     1  UNL1        0.1713
     10 C          17.1124   71.1525   -8.1467 C.3     1  UNL1        0.1895
     11 C          19.4444   70.7868   -8.2050 C.3     1  UNL1        0.1764
     12 C          17.4691   70.0296   -7.1876 C.3     1  UNL1        0.2383
     13 H          17.3692   70.2203  -10.6321 H       1  UNL1        0.2105
     14 H          15.6879   71.6891   -9.3847 H       1  UNL1        0.2106
     15 O          16.2934   68.0498   -5.5522 O.2     1  UNL1       -0.2464
     16 O          15.6002   71.0413   -2.1150 O.2     1  UNL1       -0.2670
     17 N          16.9728   70.2637   -5.8610 N.ar    1  UNL1       -0.2551
     18 N          15.9483   69.5419   -3.8422 N.ar    1  UNL1       -0.2743
     19 C          16.4001   69.2005   -5.1238 C.ar    1  UNL1        0.3323
     20 C          17.0573   71.5335   -5.3029 C.ar    1  UNL1        0.0869
     21 C          16.6224   71.8436   -4.0800 C.ar    1  UNL1        0.0795
     22 C          16.0100   70.7901   -3.2442 C.ar    1  UNL1        0.2626
     23 H          15.5439   68.8186   -3.3106 H       1  UNL1        0.1734
     24 O          22.2375   71.7256   -4.3714 O.3     1  UNL1       -0.2703
     25 P          23.4739   71.8962   -3.3439 P.3     1  UNL1        0.2208
     26 O          24.3586   73.0703   -4.0214 O.co2   1  UNL1       -0.4371
     27 O          24.2310   70.6279   -3.0755 O.2     1  UNL1       -0.5170
     28 O          22.8260   72.5791   -2.0338 O.3     1  UNL1       -0.2858
     29 O          22.9938   71.0861   -0.2030 O.3     1  UNL1       -0.3226
     30 O          20.9553   74.2588    1.4839 O.3     1  UNL1       -0.3794
     31 O          20.2790   73.3228   -1.1995 O.3     1  UNL1       -0.3775
     32 O          23.7755   73.8612    2.0663 O.3     1  UNL1       -0.3792
     33 C          21.8794   73.6266    0.5984 C.3     1  UNL1        0.1718
     34 C          21.1349   72.6342   -0.2951 C.3     1  UNL1        0.1968
     35 C          22.9247   72.8986    1.4466 C.3     1  UNL1        0.1723
     36 C          22.1156   71.7748   -1.0940 C.3     1  UNL1        0.2706
     37 C          23.7818   71.9663    0.5953 C.3     1  UNL1        0.1830
     38 H          20.2813   74.7279    0.9672 H       1  UNL1        0.2105
     39 H          19.6542   73.8704   -0.6994 H       1  UNL1        0.2106
     40 H          23.2422   74.4609    2.6111 H       1  UNL1        0.2106
     41 O          23.9204   70.8108    2.6317 O.co2   1  UNL1       -0.5466
     42 O          25.6321   70.5219    1.1533 O.co2   1  UNL1       -0.5466
     43 C          24.5628   71.0288    1.4575 C.2     1  UNL1        0.0799
@<TRIPOS>UNITY_ATOM_ATTR
2 1
charge -1
26 1
charge -1
41 1
charge -1
@<TRIPOS>BOND
     1     1     4    1
     2     1    24    1
     3     1     2    1
     4     1     3    2
     5    25    28    1
     6    25    24    1
     7    25    26    1
     8    25    27    2
     9     6    11    1
    10     6    12    1
    11    29    36    1
    12    29    37    1
    13     7     9    1
    14     7    13    1
    15     8    10    1
    16     8    14    1
    17     4     5    1
    18    28    36    1
    19    30    33    1
    20    30    38    1
    21    31    34    1
    22    31    39    1
    23    32    35    1
    24    32    40    1
    25    41    43   ar
    26    15    19    2
    27    42    43   ar
    28    16    22    2
    29    17    12    1
    30    17    19   ar
    31    17    20   ar
    32    18    19   ar
    33    18    22   ar
    34    18    23    1
    35     9    10    1
    36     9    11    1
    37    10    12    1
    38    11     5    1
    39    33    34    1
    40    33    35    1
    41    34    36    1
    42    35    37    1
    43    37    43    1
    44    20    21   ar
    45    21    22   ar
@<TRIPOS>MOLECULE
*****
 43 45 0 0 0
SMALL
GASTEIGER

@<TRIPOS>ATOM
      1 P          20.7827   73.9070   -3.0120 P.3     1  UNL1        0.2189
      2 O          19.1948   73.7812   -3.2976 O.co2   1  UNL1       -0.4371
      3 O          21.2262   75.2355   -2.4733 O.2     1  UNL1       -0.5170
      4 O          21.4655   73.4507   -4.4061 O.3     1  UNL1       -0.3112
      5 C          21.8327   72.0928   -4.5666 C.3     1  UNL1        0.1811
      6 O          20.5990   70.5365   -5.9207 O.3     1  UNL1       -0.3308
      7 O          21.0187   72.4589   -8.1834 O.3     1  UNL1       -0.3794
      8 O          18.4553   72.9888   -7.4190 O.3     1  UNL1       -0.3779
      9 C          20.7920   72.7277   -6.7996 C.3     1  UNL1        0.1713
     10 C          19.3415   72.4744   -6.4472 C.3     1  UNL1        0.1895
     11 C          21.5086   71.6560   -5.9894 C.3     1  UNL1        0.1764
     12 C          19.2982   70.9583   -6.3604 C.3     1  UNL1        0.2383
     13 H          20.5703   73.1307   -8.7213 H       1  UNL1        0.2105
     14 H          18.5200   73.9571   -7.4353 H       1  UNL1        0.2106
     15 O          16.6175   70.3684   -7.0258 O.2     1  UNL1       -0.2464
     16 O          15.6130   69.1716   -2.6897 O.2     1  UNL1       -0.2670
     17 N          18.3147   70.4908   -5.4249 N.ar    1  UNL1       -0.2551
     18 N          16.1195   69.7739   -4.8653 N.ar    1  UNL1       -0.2743
     19 C          16.9956   70.2241   -5.8617 C.ar    1  UNL1        0.3323
     20 C          18.6605   70.2997   -4.0927 C.ar    1  UNL1        0.0869
     21 C          17.8144   69.8699   -3.1545 C.ar    1  UNL1        0.0795
     22 C          16.4167   69.5691   -3.5277 C.ar    1  UNL1        0.2626
     23 H          15.1949   69.5835   -5.1450 H       1  UNL1        0.1734
     24 O          21.0763   72.6526   -2.0359 O.3     1  UNL1       -0.2703
     25 P          20.4257   72.2382   -0.6151 P.3     1  UNL1        0.2208
     26 O          20.2757   70.6306   -0.7318 O.co2   1  UNL1       -0.4371
     27 O          19.1482   72.9565   -0.2899 O.2     1  UNL1       -0.5170
     28 O          21.6101   72.4597    0.4576 O.3     1  UNL1       -0.2858
     29 O          22.8874   71.0393    1.8576 O.3     1  UNL1       -0.3226
     30 O          22.1928   74.2658    4.3426 O.3     1  UNL1       -0.3794
     31 O          20.0615   73.2238    2.6380 O.3     1  UNL1       -0.3775
     32 O          24.8038   73.9035    3.1169 O.3     1  UNL1       -0.3792
     33 C          22.4132   73.6039    3.0971 C.3     1  UNL1        0.1718
     34 C          21.3076   72.5744    2.8620 C.3     1  UNL1        0.1968
     35 C          23.7776   72.9139    3.1632 C.3     1  UNL1        0.1723
     36 C          21.6315   71.6891    1.6578 C.3     1  UNL1        0.2706
     37 C          23.9733   71.9533    1.9939 C.3     1  UNL1        0.1830
     38 H          21.3313   74.7115    4.3241 H       1  UNL1        0.2105
     39 H          19.8498   73.7875    3.3981 H       1  UNL1        0.2106
     40 H          24.6907   74.5215    3.8559 H       1  UNL1        0.2106
     41 O          24.8061   69.7606    1.9999 O.co2   1  UNL1       -0.5466
     42 O          26.2487   71.4228    2.5960 O.co2   1  UNL1       -0.5466
     43 C          25.1409   71.0532    2.2364 C.2     1  UNL1        0.0799
@<TRIPOS>UNITY_ATOM_ATTR
2 1
charge -1
26 1
charge -1
41 1
charge -1
@<TRIPOS>BOND
     1     1     4    1
     2     1    24    1
     3     1     2    1
     4     1     3    2
     5    25    28    1
     6    25    24    1
     7    25    26    1
     8    25    27    2
     9     6    11    1
    10     6    12    1
    11    29    36    1
    12    29    37    1
    13     7     9    1
    14     7    13    1
    15     8    10    1
    16     8    14    1
    17     4     5    1
    18    28    36    1
    19    30    33    1
    20    30    38    1
    21    31    34    1
    22    31    39    1
    23    32    35    1
    24    32    40    1
    25    41    43   ar
    26    15    19    2
    27    42    43   ar
    28    16    22    2
    29    17    12    1
    30    17    19   ar
    31    17    20   ar
    32    18    19   ar
    33    18    22   ar
    34    18    23    1
    35     9    10    1
    36     9    11    1
    37    10    12    1
    38    11     5    1
    39    33    34    1
    40    33    35    1
    41    34    36    1
    42    35    37    1
    43    37    43    1
    44    20    21   ar
    45    21    22   ar
@<TRIPOS>MOLECULE
*****
 43 45 0 0 0
SMALL
GASTEIGER

@<TRIPOS>ATOM
      1 P          23.0464   71.4247   -3.2375 P.3     1  UNL1        0.2189
      2 O          21.7330   70.4991   -3.0454 O.co2   1  UNL1       -0.4371
      3 O          24.3500   70.7451   -2.9363 O.2     1  UNL1       -0.5170
      4 O          22.7231   72.7449   -2.3597 O.3     1  UNL1       -0.3112
      5 C          21.8290   72.6289   -1.2681 C.3     1  UNL1        0.1811
      6 O          23.8472   72.3870    0.0147 O.3     1  UNL1       -0.3308
      7 O          22.1765   70.9065    2.0168 O.3     1  UNL1       -0.3794
      8 O          22.4029   73.3800    3.1424 O.3     1  UNL1       -0.3779
      9 C          21.8304   72.0282    1.2040 C.3     1  UNL1        0.1713
     10 C          22.4883   73.2838    1.7359 C.3     1  UNL1        0.1895
     11 C          22.5131   71.8583   -0.1463 C.3     1  UNL1        0.1764
     12 C          23.9174   73.1226    1.2465 C.3     1  UNL1        0.2383
     13 H          21.7518   70.9927    2.8851 H       1  UNL1        0.2105
     14 H          21.4737   73.4815    3.4037 H       1  UNL1        0.2106
     15 O          25.3942   74.5627    3.1758 O.2     1  UNL1       -0.2464
     16 O          26.3325   77.9505    0.1948 O.2     1  UNL1       -0.2670
     17 N          24.5583   74.3836    1.0014 N.ar    1  UNL1       -0.2551
     18 N          25.8593   76.2491    1.6895 N.ar    1  UNL1       -0.2743
     19 C          25.2756   75.0243    2.0392 C.ar    1  UNL1        0.3323
     20 C          24.4743   74.9717   -0.2548 C.ar    1  UNL1        0.0869
     21 C          25.0361   76.1395   -0.5731 C.ar    1  UNL1        0.0795
     22 C          25.8028   76.8743    0.4544 C.ar    1  UNL1        0.2626
     23 H          26.3622   76.7150    2.3962 H       1  UNL1        0.1734
     24 O          22.8984   71.9539   -4.7577 O.3     1  UNL1       -0.2703
     25 P          22.0176   73.1575   -5.3816 P.3     1  UNL1        0.2208
     26 O          22.7588   73.4682   -6.7867 O.co2   1  UNL1       -0.4371
     27 O          21.8773   74.3494   -4.4796 O.2     1  UNL1       -0.5170
     28 O          20.6212   72.4676   -5.8016 O.3     1  UNL1       -0.2858
     29 O          19.8505   70.2469   -5.5121 O.3     1  UNL1       -0.3226
     30 O          18.0710   71.2945   -9.0903 O.3     1  UNL1       -0.3794
     31 O          20.8421   72.0386   -8.5408 O.3     1  UNL1       -0.3775
     32 O          16.4947   71.1991   -6.6496 O.3     1  UNL1       -0.3792
     33 C          18.5973   71.5175   -7.7822 C.3     1  UNL1        0.1718
     34 C          20.0769   71.1335   -7.7535 C.3     1  UNL1        0.1968
     35 C          17.8039   70.6532   -6.7996 C.3     1  UNL1        0.1723
     36 C          20.6160   71.1396   -6.3224 C.3     1  UNL1        0.2706
     37 C          18.4741   70.6095   -5.4293 C.3     1  UNL1        0.1830
     38 H          18.5599   71.8335   -9.7320 H       1  UNL1        0.2105
     39 H          20.5052   72.0400   -9.4502 H       1  UNL1        0.2106
     40 H          16.0573   71.2325   -7.5147 H       1  UNL1        0.2106
     41 O          18.7614   69.1471   -3.6182 O.co2   1  UNL1       -0.5466
     42 O          16.7816   69.0327   -4.7435 O.co2   1  UNL1       -0.5466
     43 C          17.8905   69.5215   -4.5879 C.2     1  UNL1        0.0799
@<TRIPOS>UNITY_ATOM_ATTR
2 1
charge -1
26 1
charge -1
41 1
charge -1
@<TRIPOS>BOND
     1     1     4    1
     2     1    24    1
     3     1     2    1
     4     1     3    2
     5    25    28    1
     6    25    24    1
     7    25    26    1
     8    25    27    2
     9     6    11    1
    10     6    12    1
    11    29    36    1
    12    29    37    1
    13     7     9    1
    14     7    13    1
    15     8    10    1
    16     8    14    1
    17     4     5    1
    18    28    36    1
    19    30    33    1
    20    30    38    1
    21    31    34    1
    22    31    39    1
    23    32    35    1
    24    32    40    1
    25    41    43   ar
    26    15    19    2
    27    42    43   ar
    28    16    22    2
    29    17    12    1
    30    17    19   ar
    31    17    20   ar
    32    18    19   ar
    33    18    22   ar
    34    18    23    1
    35     9    10    1
    36     9    11    1
    37    10    12    1
    38    11     5    1
    39    33    34    1
    40    33    35    1
    41    34    36    1
    42    35    37    1
    43    37    43    1
    44    20    21   ar
    45    21    22   ar
@<TRIPOS>MOLECULE
*****
 43 45 0 0 0
SMALL
GASTEIGER

@<TRIPOS>ATOM
      1 P          21.3276   71.9541   -1.5709 P.3     1  UNL1        0.2189
      2 O          22.3857   70.8144   -2.0184 O.co2   1  UNL1       -0.4371
      3 O          20.4190   71.5667   -0.4412 O.2     1  UNL1       -0.5170
      4 O          20.5940   72.3672   -2.9526 O.3     1  UNL1       -0.3112
      5 C          19.9973   71.3473   -3.7324 C.3     1  UNL1        0.1811
      6 O          18.0486   71.9628   -4.9979 O.3     1  UNL1       -0.3308
      7 O          16.4591   70.5418   -2.8894 O.3     1  UNL1       -0.3794
      8 O          16.5291   68.7165   -4.9142 O.3     1  UNL1       -0.3779
      9 C          17.7395   70.2145   -3.4299 C.3     1  UNL1        0.1713
     10 C          17.5896   69.6449   -4.8246 C.3     1  UNL1        0.1895
     11 C          18.4838   71.5159   -3.6955 C.3     1  UNL1        0.1764
     12 C          17.3435   70.8954   -5.6513 C.3     1  UNL1        0.2383
     13 H          15.9648   69.7259   -2.7114 H       1  UNL1        0.2105
     14 H          16.7337   67.9386   -4.3711 H       1  UNL1        0.2106
     15 O          15.7169   70.3313   -7.8901 O.2     1  UNL1       -0.2464
     16 O          19.3204   70.4300  -10.7623 O.2     1  UNL1       -0.2670
     17 N          17.8306   70.7683   -6.9957 N.ar    1  UNL1       -0.2551
     18 N          17.5133   70.3800   -9.3184 N.ar    1  UNL1       -0.2743
     19 C          16.9297   70.4831   -8.0488 C.ar    1  UNL1        0.3323
     20 C          19.1854   70.9271   -7.2605 C.ar    1  UNL1        0.0869
     21 C          19.7270   70.8260   -8.4759 C.ar    1  UNL1        0.0795
     22 C          18.8548   70.5291   -9.6311 C.ar    1  UNL1        0.2626
     23 H          16.9063   70.1799  -10.0673 H       1  UNL1        0.1734
     24 O          22.2742   73.2287   -1.2668 O.3     1  UNL1       -0.2703
     25 P          22.0395   74.5259   -0.3309 P.3     1  UNL1        0.2208
     26 O          20.4643   74.8433   -0.5269 O.co2   1  UNL1       -0.4371
     27 O          22.9465   75.6813   -0.6413 O.2     1  UNL1       -0.5170
     28 O          22.1578   73.9685    1.1783 O.3     1  UNL1       -0.2858
     29 O          24.4094   73.6209    1.8253 O.3     1  UNL1       -0.3226
     30 O          22.3567   72.0626    5.0543 O.3     1  UNL1       -0.3794
     31 O          21.4474   71.5376    2.3281 O.3     1  UNL1       -0.3775
     32 O          23.6459   74.6600    5.2604 O.3     1  UNL1       -0.3792
     33 C          22.5774   72.9422    3.9517 C.3     1  UNL1        0.1718
     34 C          22.6980   72.1277    2.6635 C.3     1  UNL1        0.1968
     35 C          23.8713   73.7156    4.2155 C.3     1  UNL1        0.1723
     36 C          23.1611   73.0074    1.5014 C.3     1  UNL1        0.2706
     37 C          24.3349   74.4668    2.9707 C.3     1  UNL1        0.1830
     38 H          21.5395   71.5603    4.9088 H       1  UNL1        0.2105
     39 H          21.1473   70.9782    3.0613 H       1  UNL1        0.2106
     40 H          23.3502   74.1948    6.0585 H       1  UNL1        0.2106
     41 O          26.3253   74.3556    4.2068 O.co2   1  UNL1       -0.5466
     42 O          26.3016   75.7408    2.3958 O.co2   1  UNL1       -0.5466
     43 C          25.7431   74.9400    3.1305 C.2     1  UNL1        0.0799
@<TRIPOS>UNITY_ATOM_ATTR
2 1
charge -1
26 1
charge -1
41 1
charge -1
@<TRIPOS>BOND
     1     1     4    1
     2     1    24    1
     3     1     2    1
     4     1     3    2
     5    25    28    1
     6    25    24    1
     7    25    26    1
     8    25    27    2
     9     6    11    1
    10     6    12    1
    11    29    36    1
    12    29    37    1
    13     7     9    1
    14     7    13    1
    15     8    10    1
    16     8    14    1
    17     4     5    1
    18    28    36    1
    19    30    33    1
    20    30    38    1
    21    31    34    1
    22    31    39    1
    23    32    35    1
    24    32    40    1
    25    41    43   ar
    26    15    19    2
    27    42    43   ar
    28    16    22    2
    29    17    12    1
    30    17    19   ar
    31    17    20   ar
    32    18    19   ar
    33    18    22   ar
    34    18    23    1
    35     9    10    1
    36     9    11    1
    37    10    12    1
    38    11     5    1
    39    33    34    1
    40    33    35    1
    41    34    36    1
    42    35    37    1
    43    37    43    1
    44    20    21   ar
    45    21    22   ar
@<TRIPOS>MOLECULE
*****
 43 45 0 0 0
SMALL
GASTEIGER

@<TRIPOS>ATOM
      1 P          23.4464   72.2124   -3.5199 P.3     1  UNL1        0.2189
      2 O          23.9890   70.7295   -3.1657 O.co2   1  UNL1       -0.4371
      3 O          24.4824   73.1537   -4.0609 O.2     1  UNL1       -0.5170
      4 O          22.7043   72.6889   -2.1633 O.3     1  UNL1       -0.3112
      5 C          23.4464   72.7084   -0.9578 C.3     1  UNL1        0.1811
      6 O          24.4377   71.0453    0.4667 O.3     1  UNL1       -0.3308
      7 O          21.6352   70.2026    1.1204 O.3     1  UNL1       -0.3794
      8 O          22.3308   71.6955    3.2938 O.3     1  UNL1       -0.3779
      9 C          22.1515   71.5111    0.8759 C.3     1  UNL1        0.1713
     10 C          22.9615   71.9853    2.0639 C.3     1  UNL1        0.1895
     11 C          23.2130   71.4019   -0.2102 C.3     1  UNL1        0.1764
     12 C          24.2640   71.2250    1.8812 C.3     1  UNL1        0.2383
     13 H          20.9550   70.2470    1.8111 H       1  UNL1        0.2105
     14 H          21.5068   72.2039    3.3623 H       1  UNL1        0.2106
     15 O          24.2435   73.9684    2.5522 O.2     1  UNL1       -0.2464
     16 O          28.6573   73.8649    3.8757 O.2     1  UNL1       -0.2670
     17 N          25.3939   71.9404    2.4032 N.ar    1  UNL1       -0.2551
     18 N          26.4421   73.9144    3.2098 N.ar    1  UNL1       -0.2743
     19 C          25.2784   73.3173    2.7076 C.ar    1  UNL1        0.3323
     20 C          26.5984   71.2789    2.6101 C.ar    1  UNL1        0.0869
     21 C          27.6990   71.8615    3.0895 C.ar    1  UNL1        0.0795
     22 C          27.6630   73.2984    3.4321 C.ar    1  UNL1        0.2626
     23 H          26.3867   74.8731    3.4271 H       1  UNL1        0.1734
     24 O          22.2143   71.9179   -4.5239 O.3     1  UNL1       -0.2703
     25 P          21.5344   72.8360   -5.6677 P.3     1  UNL1        0.2208
     26 O          22.4297   72.5178   -6.9782 O.co2   1  UNL1       -0.4371
     27 O          21.4478   74.2932   -5.3168 O.2     1  UNL1       -0.5170
     28 O          20.1130   72.1335   -5.9651 O.3     1  UNL1       -0.2858
     29 O          19.3523   69.9557   -5.4284 O.3     1  UNL1       -0.3226
     30 O          17.3568   70.6942   -8.9697 O.3     1  UNL1       -0.3794
     31 O          20.1600   71.4571   -8.6626 O.3     1  UNL1       -0.3775
     32 O          15.9360   70.8349   -6.4374 O.3     1  UNL1       -0.3792
     33 C          17.9649   71.0290   -7.7222 C.3     1  UNL1        0.1718
     34 C          19.4417   70.6343   -7.7506 C.3     1  UNL1        0.1968
     35 C          17.2309   70.2648   -6.6181 C.3     1  UNL1        0.1723
     36 C          20.0695   70.7641   -6.3621 C.3     1  UNL1        0.2706
     37 C          17.9853   70.3381   -5.2937 C.3     1  UNL1        0.1830
     38 H          17.8069   71.1683   -9.6866 H       1  UNL1        0.2105
     39 H          19.7669   71.3799   -9.5457 H       1  UNL1        0.2106
     40 H          15.4455   70.7947   -7.2732 H       1  UNL1        0.2106
     41 O          18.3772   69.0462   -3.3757 O.co2   1  UNL1       -0.5466
     42 O          16.3338   68.8432   -4.3668 O.co2   1  UNL1       -0.5466
     43 C          17.4509   69.3363   -4.3226 C.2     1  UNL1        0.0799
@<TRIPOS>UNITY_ATOM_ATTR
2 1
charge -1
26 1
charge -1
41 1
charge -1
@<TRIPOS>BOND
     1     1     4    1
     2     1    24    1
     3     1     2    1
     4     1     3    2
     5    25    28    1
     6    25    24    1
     7    25    26    1
     8    25    27    2
     9     6    11    1
    10     6    12    1
    11    29    36    1
    12    29    37    1
    13     7     9    1
    14     7    13    1
    15     8    10    1
    16     8    14    1
    17     4     5    1
    18    28    36    1
    19    30    33    1
    20    30    38    1
    21    31    34    1
    22    31    39    1
    23    32    35    1
    24    32    40    1
    25    41    43   ar
    26    15    19    2
    27    42    43   ar
    28    16    22    2
    29    17    12    1
    30    17    19   ar
    31    17    20   ar
    32    18    19   ar
    33    18    22   ar
    34    18    23    1
    35     9    10    1
    36     9    11    1
    37    10    12    1
    38    11     5    1
    39    33    34    1
    40    33    35    1
    41    34    36    1
    42    35    37    1
    43    37    43    1
    44    20    21   ar
    45    21    22   ar
@<TRIPOS>MOLECULE
*****
 43 45 0 0 0
SMALL
GASTEIGER

@<TRIPOS>ATOM
      1 P          18.5381   72.5971   -2.2649 P.3     1  UNL1        0.2189
      2 O          17.0133   72.6617   -1.7267 O.co2   1  UNL1       -0.4371
      3 O          19.2923   71.3569   -1.8843 O.2     1  UNL1       -0.5170
      4 O          19.1854   73.9938   -1.7667 O.3     1  UNL1       -0.3112
      5 C          20.2158   73.9535   -0.7965 C.3     1  UNL1        0.1811
      6 O          20.2801   72.4311    1.0624 O.3     1  UNL1       -0.3308
      7 O          18.8044   74.5399    2.6008 O.3     1  UNL1       -0.3794
      8 O          21.3699   74.8539    3.4700 O.3     1  UNL1       -0.3779
      9 C          19.8174   74.6897    1.6059 C.3     1  UNL1        0.1713
     10 C          21.1709   74.3228    2.1766 C.3     1  UNL1        0.1895
     11 C          19.6095   73.6058    0.5569 C.3     1  UNL1        0.1764
     12 C          21.1150   72.8047    2.1701 C.3     1  UNL1        0.2383
     13 H          18.9166   75.2216    3.2822 H       1  UNL1        0.2105
     14 H          21.3984   75.8228    3.4208 H       1  UNL1        0.2106
     15 O          21.5566   70.2178    1.1263 O.2     1  UNL1       -0.2464
     16 O          26.1270   70.6232    1.5635 O.2     1  UNL1       -0.2670
     17 N          22.4102   72.2094    2.0002 N.ar    1  UNL1       -0.2551
     18 N          23.8325   70.4218    1.3460 N.ar    1  UNL1       -0.2743
     19 C          22.5224   70.9035    1.4670 C.ar    1  UNL1        0.3323
     20 C          23.5512   72.9171    2.3581 C.ar    1  UNL1        0.0869
     21 C          24.7933   72.4447    2.2368 C.ar    1  UNL1        0.0795
     22 C          24.9980   71.0878    1.6888 C.ar    1  UNL1        0.2626
     23 H          23.9358   69.5140    0.9790 H       1  UNL1        0.1734
     24 O          18.3708   72.8216   -3.8569 O.3     1  UNL1       -0.2703
     25 P          19.4205   73.3401   -4.9718 P.3     1  UNL1        0.2208
     26 O          20.8157   72.6614   -4.5102 O.co2   1  UNL1       -0.4371
     27 O          19.4773   74.8334   -5.1167 O.2     1  UNL1       -0.5170
     28 O          19.0101   72.5520   -6.3182 O.3     1  UNL1       -0.2858
     29 O          18.6433   70.2975   -5.6923 O.3     1  UNL1       -0.3226
     30 O          17.7584   70.2045   -9.7267 O.3     1  UNL1       -0.3794
     31 O          20.0639   71.7099   -8.7506 O.3     1  UNL1       -0.3775
     32 O          15.6168   70.1524   -7.7615 O.3     1  UNL1       -0.3792
     33 C          17.8455   70.7834   -8.4246 C.3     1  UNL1        0.1718
     34 C          19.3043   70.7968   -7.9671 C.3     1  UNL1        0.1968
     35 C          16.9970   69.9370   -7.4731 C.3     1  UNL1        0.1723
     36 C          19.4121   71.1947   -6.4944 C.3     1  UNL1        0.2706
     37 C          17.2547   70.3097   -6.0159 C.3     1  UNL1        0.1830
     38 H          18.2901   70.7257  -10.3487 H       1  UNL1        0.2105
     39 H          19.9998   71.4636   -9.6863 H       1  UNL1        0.2106
     40 H          15.4395   69.9191   -8.6862 H       1  UNL1        0.2106
     41 O          16.9504   69.5923   -3.8036 O.co2   1  UNL1       -0.5466
     42 O          16.0669   68.2869   -5.4512 O.co2   1  UNL1       -0.5466
     43 C          16.6868   69.2782   -5.0962 C.2     1  UNL1        0.0799
@<TRIPOS>UNITY_ATOM_ATTR
2 1
charge -1
26 1
charge -1
41 1
charge -1
@<TRIPOS>BOND
     1     1     4    1
     2     1    24    1
     3     1     2    1
     4     1     3    2
     5    25    28    1
     6    25    24    1
     7    25    26    1
     8    25    27    2
     9     6    11    1
    10     6    12    1
    11    29    36    1
    12    29    37    1
    13     7     9    1
    14     7    13    1
    15     8    10    1
    16     8    14    1
    17     4     5    1
    18    28    36    1
    19    30    33    1
    20    30    38    1
    21    31    34    1
    22    31    39    1
    23    32    35    1
    24    32    40    1
    25    41    43   ar
    26    15    19    2
    27    42    43   ar
    28    16    22    2
    29    17    12    1
    30    17    19   ar
    31    17    20   ar
    32    18    19   ar
    33    18    22   ar
    34    18    23    1
    35     9    10    1
    36     9    11    1
    37    10    12    1
    38    11     5    1
    39    33    34    1
    40    33    35    1
    41    34    36    1
    42    35    37    1
    43    37    43    1
    44    20    21   ar
    45    21    22   ar
@<TRIPOS>MOLECULE
*****
 43 45 0 0 0
SMALL
GASTEIGER

@<TRIPOS>ATOM
      1 P          21.3060   71.9827   -1.7261 P.3     1  UNL1        0.2189
      2 O          22.6325   71.6158   -0.8749 O.co2   1  UNL1       -0.4371
      3 O          20.2104   72.6408   -0.9398 O.2     1  UNL1       -0.5170
      4 O          20.9121   70.5908   -2.4508 O.3     1  UNL1       -0.3112
      5 C          20.3384   70.6406   -3.7443 C.3     1  UNL1        0.1811
      6 O          18.4804   71.6682   -4.8710 O.3     1  UNL1       -0.3308
      7 O          16.7469   70.3833   -2.7888 O.3     1  UNL1       -0.3794
      8 O          16.4300   68.7278   -4.9323 O.3     1  UNL1       -0.3779
      9 C          17.9319   69.8857   -3.4106 C.3     1  UNL1        0.1713
     10 C          17.6367   69.4546   -4.8316 C.3     1  UNL1        0.1895
     11 C          18.8787   71.0589   -3.6238 C.3     1  UNL1        0.1764
     12 C          17.5796   70.7866   -5.5599 C.3     1  UNL1        0.2383
     13 H          16.1265   69.6517   -2.6424 H       1  UNL1        0.2105
     14 H          16.5172   67.8884   -4.4530 H       1  UNL1        0.2106
     15 O          15.8346   70.2129   -7.7052 O.2     1  UNL1       -0.2464
     16 O          19.2616   70.3983  -10.7817 O.2     1  UNL1       -0.2670
     17 N          17.9893   70.6792   -6.9316 N.ar    1  UNL1       -0.2551
     18 N          17.5433   70.3048   -9.2353 N.ar    1  UNL1       -0.2743
     19 C          17.0332   70.3871   -7.9329 C.ar    1  UNL1        0.3323
     20 C          19.3234   70.8638   -7.2735 C.ar    1  UNL1        0.0869
     21 C          19.7946   70.7823   -8.5193 C.ar    1  UNL1        0.0795
     22 C          18.8614   70.4799   -9.6244 C.ar    1  UNL1        0.2626
     23 H          16.8969   70.1005   -9.9493 H       1  UNL1        0.1734
     24 O          21.8901   72.8730   -2.9423 O.3     1  UNL1       -0.2703
     25 P          23.4106   73.2059   -3.3792 P.3     1  UNL1        0.2208
     26 O          24.0244   71.7479   -3.7224 O.co2   1  UNL1       -0.4371
     27 O          24.1900   73.9796   -2.3556 O.2     1  UNL1       -0.5170
     28 O          23.2744   73.9375   -4.8105 O.3     1  UNL1       -0.2858
     29 O          24.1464   75.6111   -6.2415 O.3     1  UNL1       -0.3226
     30 O          20.3428   77.0408   -5.4960 O.3     1  UNL1       -0.3794
     31 O          21.9391   75.8844   -3.3399 O.3     1  UNL1       -0.3775
     32 O          20.9620   75.8058   -8.0537 O.3     1  UNL1       -0.3792
     33 C          21.3457   76.0430   -5.6870 C.3     1  UNL1        0.1718
     34 C          22.4397   76.2085   -4.6318 C.3     1  UNL1        0.1968
     35 C          21.9287   76.2211   -7.0906 C.3     1  UNL1        0.1723
     36 C          23.6384   75.3105   -4.9411 C.3     1  UNL1        0.2706
     37 C          23.1934   75.3880   -7.2784 C.3     1  UNL1        0.1830
     38 H          19.9579   76.9474   -4.6103 H       1  UNL1        0.2105
     39 H          21.1781   76.4502   -3.1372 H       1  UNL1        0.2106
     40 H          20.1520   76.3282   -7.9449 H       1  UNL1        0.2106
     41 O          25.2485   75.5138   -8.4018 O.co2   1  UNL1       -0.5466
     42 O          23.4211   76.3493   -9.4796 O.co2   1  UNL1       -0.5466
     43 C          23.9297   75.8112   -8.5076 C.2     1  UNL1        0.0799
@<TRIPOS>UNITY_ATOM_ATTR
2 1
charge -1
26 1
charge -1
41 1
charge -1
@<TRIPOS>BOND
     1     1     4    1
     2     1    24    1
     3     1     2    1
     4     1     3    2
     5    25    28    1
     6    25    24    1
     7    25    26    1
     8    25    27    2
     9     6    11    1
    10     6    12    1
    11    29    36    1
    12    29    37    1
    13     7     9    1
    14     7    13    1
    15     8    10    1
    16     8    14    1
    17     4     5    1
    18    28    36    1
    19    30    33    1
    20    30    38    1
    21    31    34    1
    22    31    39    1
    23    32    35    1
    24    32    40    1
    25    41    43   ar
    26    15    19    2
    27    42    43   ar
    28    16    22    2
    29    17    12    1
    30    17    19   ar
    31    17    20   ar
    32    18    19   ar
    33    18    22   ar
    34    18    23    1
    35     9    10    1
    36     9    11    1
    37    10    12    1
    38    11     5    1
    39    33    34    1
    40    33    35    1
    41    34    36    1
    42    35    37    1
    43    37    43    1
    44    20    21   ar
    45    21    22   ar
@<TRIPOS>MOLECULE
*****
 43 45 0 0 0
SMALL
GASTEIGER

@<TRIPOS>ATOM
      1 P          22.5622   73.0580   -4.7130 P.3     1  UNL1        0.2189
      2 O          24.0360   72.4385   -4.4621 O.co2   1  UNL1       -0.4371
      3 O          22.5407   74.3591   -5.4603 O.2     1  UNL1       -0.5170
      4 O          21.8953   73.0833   -3.2390 O.3     1  UNL1       -0.3112
      5 C          22.7301   72.8710   -2.1154 C.3     1  UNL1        0.1811
      6 O          23.4267   71.1307   -0.6109 O.3     1  UNL1       -0.3308
      7 O          20.5189   70.4458   -0.3529 O.3     1  UNL1       -0.3794
      8 O          21.0021   71.8617    1.9270 O.3     1  UNL1       -0.3779
      9 C          21.1366   71.7249   -0.4969 C.3     1  UNL1        0.1713
     10 C          21.8066   72.1322    0.7982 C.3     1  UNL1        0.1895
     11 C          22.3254   71.5694   -1.4355 C.3     1  UNL1        0.1764
     12 C          23.0766   71.2989    0.7720 C.3     1  UNL1        0.2383
     13 H          19.7563   70.5199    0.2427 H       1  UNL1        0.2105
     14 H          20.2066   72.4169    1.8976 H       1  UNL1        0.2106
     15 O          24.9521   69.9496    2.3962 O.2     1  UNL1       -0.2464
     16 O          27.2134   73.8526    3.3436 O.2     1  UNL1       -0.2670
     17 N          24.1656   71.9380    1.4550 N.ar    1  UNL1       -0.2551
     18 N          26.0760   71.8949    2.8674 N.ar    1  UNL1       -0.2743
     19 C          25.0512   71.1689    2.2463 C.ar    1  UNL1        0.3323
     20 C          24.3489   73.3104    1.3364 C.ar    1  UNL1        0.0869
     21 C          25.3305   73.9884    1.9343 C.ar    1  UNL1        0.0795
     22 C          26.2986   73.2596    2.7799 C.ar    1  UNL1        0.2626
     23 H          26.7039   71.3813    3.4252 H       1  UNL1        0.1734
     24 O          21.7797   71.8479   -5.4452 O.3     1  UNL1       -0.2703
     25 P          20.9822   71.7962   -6.8505 P.3     1  UNL1        0.2208
     26 O          21.3280   70.3201   -7.4179 O.co2   1  UNL1       -0.4371
     27 O          21.3204   72.9156   -7.7921 O.2     1  UNL1       -0.5170
     28 O          19.4254   71.7182   -6.4349 O.3     1  UNL1       -0.2858
     29 O          17.9003   70.1120   -5.5962 O.3     1  UNL1       -0.3226
     30 O          15.7193   71.8229   -8.6595 O.3     1  UNL1       -0.3794
     31 O          18.5507   71.2031   -9.0245 O.3     1  UNL1       -0.3775
     32 O          15.1295   72.4987   -5.8943 O.3     1  UNL1       -0.3792
     33 C          16.6765   71.7919   -7.6009 C.3     1  UNL1        0.1718
     34 C          17.7630   70.7657   -7.9232 C.3     1  UNL1        0.1968
     35 C          15.9451   71.4060   -6.3132 C.3     1  UNL1        0.1723
     36 C          18.6755   70.5380   -6.7173 C.3     1  UNL1        0.2706
     37 C          16.9267   71.0728   -5.1934 C.3     1  UNL1        0.1830
     38 H          16.1613   72.0659   -9.4883 H       1  UNL1        0.2105
     39 H          17.9780   71.3498   -9.7931 H       1  UNL1        0.2106
     40 H          14.5002   72.7209   -6.5982 H       1  UNL1        0.2106
     41 O          16.1887   69.0494   -4.2645 O.co2   1  UNL1       -0.5466
     42 O          15.7595   70.9532   -3.0852 O.co2   1  UNL1       -0.5466
     43 C          16.2292   70.3898   -4.0624 C.2     1  UNL1        0.0799
@<TRIPOS>UNITY_ATOM_ATTR
2 1
charge -1
26 1
charge -1
41 1
charge -1
@<TRIPOS>BOND
     1     1     4    1
     2     1    24    1
     3     1     2    1
     4     1     3    2
     5    25    28    1
     6    25    24    1
     7    25    26    1
     8    25    27    2
     9     6    11    1
    10     6    12    1
    11    29    36    1
    12    29    37    1
    13     7     9    1
    14     7    13    1
    15     8    10    1
    16     8    14    1
    17     4     5    1
    18    28    36    1
    19    30    33    1
    20    30    38    1
    21    31    34    1
    22    31    39    1
    23    32    35    1
    24    32    40    1
    25    41    43   ar
    26    15    19    2
    27    42    43   ar
    28    16    22    2
    29    17    12    1
    30    17    19   ar
    31    17    20   ar
    32    18    19   ar
    33    18    22   ar
    34    18    23    1
    35     9    10    1
    36     9    11    1
    37    10    12    1
    38    11     5    1
    39    33    34    1
    40    33    35    1
    41    34    36    1
    42    35    37    1
    43    37    43    1
    44    20    21   ar
    45    21    22   ar
@<TRIPOS>MOLECULE
*****
 43 45 0 0 0
SMALL
GASTEIGER

@<TRIPOS>ATOM
      1 P          22.7309   71.4264   -3.3720 P.3     1  UNL1        0.2189
      2 O          21.6196   70.2632   -3.1958 O.co2   1  UNL1       -0.4371
      3 O          24.1344   71.0184   -3.0322 O.2     1  UNL1       -0.5170
      4 O          22.1340   72.6662   -2.5209 O.3     1  UNL1       -0.3112
      5 C          21.6950   72.4277   -1.1962 C.3     1  UNL1        0.1811
      6 O          22.2340   73.5704    0.8487 O.3     1  UNL1       -0.3308
      7 O          21.8760   76.1150   -0.6967 O.3     1  UNL1       -0.3794
      8 O          24.5880   75.8404   -0.6211 O.3     1  UNL1       -0.3779
      9 C          22.4182   74.8659   -1.1258 C.3     1  UNL1        0.1713
     10 C          23.8029   74.6688   -0.5461 C.3     1  UNL1        0.1895
     11 C          21.6284   73.7537   -0.4494 C.3     1  UNL1        0.1764
     12 C          23.4912   74.2642    0.8846 C.3     1  UNL1        0.2383
     13 H          22.3646   76.8411   -1.1159 H       1  UNL1        0.2105
     14 H          24.7591   76.0559   -1.5518 H       1  UNL1        0.2106
     15 O          25.7319   75.1424    2.3627 O.2     1  UNL1       -0.2464
     16 O          27.2567   70.8339    2.9586 O.2     1  UNL1       -0.2670
     17 N          24.4895   73.3933    1.4377 N.ar    1  UNL1       -0.2551
     18 N          26.4897   72.9958    2.6572 N.ar    1  UNL1       -0.2743
     19 C          25.5758   73.9362    2.1639 C.ar    1  UNL1        0.3323
     20 C          24.3862   72.0190    1.2604 C.ar    1  UNL1        0.0869
     21 C          25.2652   71.1351    1.7367 C.ar    1  UNL1        0.0795
     22 C          26.4298   71.6198    2.5061 C.ar    1  UNL1        0.2626
     23 H          27.2557   73.3500    3.1643 H       1  UNL1        0.1734
     24 O          22.5196   71.9012   -4.9026 O.3     1  UNL1       -0.2703
     25 P          21.5862   73.0597   -5.5354 P.3     1  UNL1        0.2208
     26 O          22.2484   73.3147   -6.9903 O.co2   1  UNL1       -0.4371
     27 O          21.4706   74.2909   -4.6841 O.2     1  UNL1       -0.5170
     28 O          20.1828   72.3286   -5.8493 O.3     1  UNL1       -0.2858
     29 O          19.4453   70.1115   -5.4624 O.3     1  UNL1       -0.3226
     30 O          17.5458   71.0212   -9.0166 O.3     1  UNL1       -0.3794
     31 O          20.3243   71.8102   -8.5782 O.3     1  UNL1       -0.3775
     32 O          16.0462   70.9924   -6.5264 O.3     1  UNL1       -0.3792
     33 C          18.1095   71.2931   -7.7335 C.3     1  UNL1        0.1718
     34 C          19.5933   70.9246   -7.7380 C.3     1  UNL1        0.1968
     35 C          17.3559   70.4546   -6.6987 C.3     1  UNL1        0.1723
     36 C          20.1760   70.9839   -6.3252 C.3     1  UNL1        0.2706
     37 C          18.0682   70.4633   -5.3491 C.3     1  UNL1        0.1830
     38 H          18.0091   71.5431   -9.6907 H       1  UNL1        0.2105
     39 H          19.9597   71.7778   -9.4763 H       1  UNL1        0.2106
     40 H          15.5821   70.9926   -7.3782 H       1  UNL1        0.2106
     41 O          18.4823   68.9428   -3.6119 O.co2   1  UNL1       -0.5466
     42 O          16.3707   68.9905   -4.4711 O.co2   1  UNL1       -0.5466
     43 C          17.5224   69.3986   -4.4544 C.2     1  UNL1        0.0799
@<TRIPOS>UNITY_ATOM_ATTR
2 1
charge -1
26 1
charge -1
41 1
charge -1
@<TRIPOS>BOND
     1     1     4    1
     2     1    24    1
     3     1     2    1
     4     1     3    2
     5    25    28    1
     6    25    24    1
     7    25    26    1
     8    25    27    2
     9     6    11    1
    10     6    12    1
    11    29    36    1
    12    29    37    1
    13     7     9    1
    14     7    13    1
    15     8    10    1
    16     8    14    1
    17     4     5    1
    18    28    36    1
    19    30    33    1
    20    30    38    1
    21    31    34    1
    22    31    39    1
    23    32    35    1
    24    32    40    1
    25    41    43   ar
    26    15    19    2
    27    42    43   ar
    28    16    22    2
    29    17    12    1
    30    17    19   ar
    31    17    20   ar
    32    18    19   ar
    33    18    22   ar
    34    18    23    1
    35     9    10    1
    36     9    11    1
    37    10    12    1
    38    11     5    1
    39    33    34    1
    40    33    35    1
    41    34    36    1
    42    35    37    1
    43    37    43    1
    44    20    21   ar
    45    21    22   ar
@<TRIPOS>MOLECULE
*****
 43 45 0 0 0
SMALL
GASTEIGER

@<TRIPOS>ATOM
      1 P          23.3857   72.1973   -3.3106 P.3     1  UNL1        0.2189
      2 O          23.8106   70.6540   -3.0728 O.co2   1  UNL1       -0.4371
      3 O          24.2640   72.9569   -4.2611 O.2     1  UNL1       -0.5170
      4 O          23.2777   72.8054   -1.8151 O.3     1  UNL1       -0.3112
      5 C          23.5638   71.9573   -0.7181 C.3     1  UNL1        0.1811
      6 O          23.4961   71.9701    1.6846 O.3     1  UNL1       -0.3308
      7 O          21.7090   74.3651    1.4360 O.3     1  UNL1       -0.3794
      8 O          24.1220   75.4823    2.0403 O.3     1  UNL1       -0.3779
      9 C          22.8253   73.9832    0.6319 C.3     1  UNL1        0.1713
     10 C          24.1188   74.2353    1.3773 C.3     1  UNL1        0.1895
     11 C          22.8187   72.4656    0.5094 C.3     1  UNL1        0.1764
     12 C          24.1620   73.0610    2.3401 C.3     1  UNL1        0.2383
     13 H          21.6921   75.3309    1.5286 H       1  UNL1        0.2105
     14 H          24.0940   76.1972    1.3845 H       1  UNL1        0.2106
     15 O          25.2386   70.5044    1.8100 O.2     1  UNL1       -0.2464
     16 O          29.3229   71.6496    3.6130 O.2     1  UNL1       -0.2670
     17 N          25.5039   72.6642    2.6606 N.ar    1  UNL1       -0.2551
     18 N          27.2715   71.0769    2.7095 N.ar    1  UNL1       -0.2743
     19 C          25.9457   71.3559    2.3521 C.ar    1  UNL1        0.3323
     20 C          26.3667   73.5660    3.2714 C.ar    1  UNL1        0.0869
     21 C          27.6278   73.2856    3.6059 C.ar    1  UNL1        0.0795
     22 C          28.1674   71.9403    3.3189 C.ar    1  UNL1        0.2626
     23 H          27.6011   70.1716    2.5065 H       1  UNL1        0.1734
     24 O          21.8398   72.0817   -3.7684 O.3     1  UNL1       -0.2703
     25 P          20.5064   71.7298   -2.9246 P.3     1  UNL1        0.2208
     26 O          20.0373   73.1710   -2.3562 O.co2   1  UNL1       -0.4371
     27 O          20.7053   70.6829   -1.8671 O.2     1  UNL1       -0.5170
     28 O          19.4035   71.3535   -4.0402 O.3     1  UNL1       -0.2858
     29 O          19.4134   71.7068   -6.3820 O.3     1  UNL1       -0.3226
     30 O          15.3923   72.0475   -5.4973 O.3     1  UNL1       -0.3794
     31 O          17.3996   73.2613   -3.7561 O.3     1  UNL1       -0.3775
     32 O          16.4078   69.6380   -6.7676 O.3     1  UNL1       -0.3792
     33 C          16.7234   71.5553   -5.3430 C.3     1  UNL1        0.1718
     34 C          17.6682   72.7196   -5.0442 C.3     1  UNL1        0.1968
     35 C          17.1263   70.8643   -6.6477 C.3     1  UNL1        0.1723
     36 C          19.1281   72.2676   -5.1000 C.3     1  UNL1        0.2706
     37 C          18.6210   70.5589   -6.6779 C.3     1  UNL1        0.1830
     38 H          15.1146   72.4909   -4.6802 H       1  UNL1        0.2105
     39 H          16.4748   73.5499   -3.7136 H       1  UNL1        0.2106
     40 H          15.4549   69.8184   -6.7496 H       1  UNL1        0.2106
     41 O          20.4012   69.9962   -8.0977 O.co2   1  UNL1       -0.5466
     42 O          18.3200   70.0864   -9.0247 O.co2   1  UNL1       -0.5466
     43 C          19.0603   70.1949   -8.0587 C.2     1  UNL1        0.0799
@<TRIPOS>UNITY_ATOM_ATTR
2 1
charge -1
26 1
charge -1
41 1
charge -1
@<TRIPOS>BOND
     1     1     4    1
     2     1    24    1
     3     1     2    1
     4     1     3    2
     5    25    28    1
     6    25    24    1
     7    25    26    1
     8    25    27    2
     9     6    11    1
    10     6    12    1
    11    29    36    1
    12    29    37    1
    13     7     9    1
    14     7    13    1
    15     8    10    1
    16     8    14    1
    17     4     5    1
    18    28    36    1
    19    30    33    1
    20    30    38    1
    21    31    34    1
    22    31    39    1
    23    32    35    1
    24    32    40    1
    25    41    43   ar
    26    15    19    2
    27    42    43   ar
    28    16    22    2
    29    17    12    1
    30    17    19   ar
    31    17    20   ar
    32    18    19   ar
    33    18    22   ar
    34    18    23    1
    35     9    10    1
    36     9    11    1
    37    10    12    1
    38    11     5    1
    39    33    34    1
    40    33    35    1
    41    34    36    1
    42    35    37    1
    43    37    43    1
    44    20    21   ar
    45    21    22   ar
