@<TRIPOS>MOLECULE
*****
 43 45 0 0 0
SMALL
GASTEIGER

@<TRIPOS>ATOM
      1 P          22.7510   71.4550   -2.5779 P.3     1  UNL1        0.2189
      2 O          23.1483   72.9377   -3.0903 O.co2   1  UNL1       -0.4371
      3 O          23.4522   70.3317   -3.2838 O.2     1  UNL1       -0.5170
      4 O          21.1351   71.4359   -2.6590 O.3     1  UNL1       -0.3112
      5 C          20.5012   72.1716   -3.6893 C.3     1  UNL1        0.1811
      6 O          18.3620   72.3224   -4.7750 O.3     1  UNL1       -0.3308
      7 O          17.2529   70.9052   -2.3764 O.3     1  UNL1       -0.3794
      8 O          17.4379   68.9032   -4.2187 O.3     1  UNL1       -0.3779
      9 C          18.5117   70.7307   -3.0272 C.3     1  UNL1        0.1713
     10 C          18.3269   69.9942   -4.3371 C.3     1  UNL1        0.1895
     11 C          18.9921   72.0976   -3.4953 C.3     1  UNL1        0.1764
     12 C          17.7904   71.0901   -5.2421 C.3     1  UNL1        0.2383
     13 H          16.9257   70.0451   -2.0685 H       1  UNL1        0.2105
     14 H          17.8248   68.2329   -3.6330 H       1  UNL1        0.2106
     15 O          15.9672   70.4824   -7.3117 O.2     1  UNL1       -0.2464
     16 O          19.3164   70.3652  -10.4760 O.2     1  UNL1       -0.2670
     17 N          18.1589   70.8956   -6.6159 N.ar    1  UNL1       -0.2551
     18 N          17.6372   70.4236   -8.8855 N.ar    1  UNL1       -0.2743
     19 C          17.1655   70.5938   -7.5772 C.ar    1  UNL1        0.3323
     20 C          19.4900   71.0058   -6.9992 C.ar    1  UNL1        0.0869
     21 C          19.9244   70.8410   -8.2502 C.ar    1  UNL1        0.0795
     22 C          18.9507   70.5226   -9.3150 C.ar    1  UNL1        0.2626
     23 H          16.9643   70.2108   -9.5720 H       1  UNL1        0.1734
     24 O          23.0341   71.5324   -0.9883 O.3     1  UNL1       -0.2703
     25 P          22.4102   70.6910    0.2431 P.3     1  UNL1        0.2208
     26 O          23.4876   69.5030    0.4628 O.co2   1  UNL1       -0.4371
     27 O          21.0043   70.2164    0.0150 O.2     1  UNL1       -0.5170
     28 O          22.5932   71.6493    1.5279 O.3     1  UNL1       -0.2858
     29 O          21.6948   72.5515    3.5249 O.3     1  UNL1       -0.3226
     30 O          21.4434   75.7781    0.9569 O.3     1  UNL1       -0.3794
     31 O          20.7432   73.0952    0.0370 O.3     1  UNL1       -0.3775
     32 O          23.5144   75.6933    2.9952 O.3     1  UNL1       -0.3792
     33 C          22.0011   74.5766    1.4893 C.3     1  UNL1        0.1718
     34 C          20.9722   73.4496    1.3959 C.3     1  UNL1        0.1968
     35 C          22.3755   74.8358    2.9503 C.3     1  UNL1        0.1723
     36 C          21.4452   72.2123    2.1603 C.3     1  UNL1        0.2706
     37 C          22.7134   73.5376    3.6775 C.3     1  UNL1        0.1830
     38 H          21.1978   75.6373    0.0290 H       1  UNL1        0.2105
     39 H          20.4431   73.8757   -0.4541 H       1  UNL1        0.2106
     40 H          23.3126   76.5233    2.5356 H       1  UNL1        0.2106
     41 O          21.9904   72.8311    5.7940 O.co2   1  UNL1       -0.5466
     42 O          23.3859   74.6327    5.7195 O.co2   1  UNL1       -0.5466
     43 C          22.7535   73.7524    5.1555 C.2     1  UNL1        0.0799
@<TRIPOS>UNITY_ATOM_ATTR
2 1
charge -1
26 1
charge -1
41 1
charge -1
@<TRIPOS>BOND
     1     1     4    1
     2     1    24    1
     3     1     2    1
     4     1     3    2
     5    25    28    1
     6    25    24    1
     7    25    26    1
     8    25    27    2
     9     6    11    1
    10     6    12    1
    11    29    36    1
    12    29    37    1
    13     7     9    1
    14     7    13    1
    15     8    10    1
    16     8    14    1
    17     4     5    1
    18    28    36    1
    19    30    33    1
    20    30    38    1
    21    31    34    1
    22    31    39    1
    23    32    35    1
    24    32    40    1
    25    41    43   ar
    26    15    19    2
    27    42    43   ar
    28    16    22    2
    29    17    12    1
    30    17    19   ar
    31    17    20   ar
    32    18    19   ar
    33    18    22   ar
    34    18    23    1
    35     9    10    1
    36     9    11    1
    37    10    12    1
    38    11     5    1
    39    33    34    1
    40    33    35    1
    41    34    36    1
    42    35    37    1
    43    37    43    1
    44    20    21   ar
    45    21    22   ar
@<TRIPOS>MOLECULE
*****
 43 45 0 0 0
SMALL
GASTEIGER

@<TRIPOS>ATOM
      1 P          21.9804   73.7996   -6.0734 P.3     1  UNL1        0.2189
      2 O          21.9768   75.0532   -5.0500 O.co2   1  UNL1       -0.4371
      3 O          22.9225   73.9319   -7.2339 O.2     1  UNL1       -0.5170
      4 O          20.4199   73.6042   -6.4539 O.3     1  UNL1       -0.3112
      5 C          19.8885   74.3509   -7.5330 C.3     1  UNL1        0.1811
      6 O          19.6009   72.0442   -8.1447 O.3     1  UNL1       -0.3308
      7 O          17.9001   73.0477  -10.4011 O.3     1  UNL1       -0.3794
      8 O          16.0465   72.2301   -8.5758 O.3     1  UNL1       -0.3779
      9 C          18.0263   73.5518   -9.0713 C.3     1  UNL1        0.1713
     10 C          17.3090   72.6428   -8.0959 C.3     1  UNL1        0.1895
     11 C          19.4794   73.3934   -8.6449 C.3     1  UNL1        0.1764
     12 C          18.2887   71.4897   -7.9605 C.3     1  UNL1        0.2383
     13 H          16.9799   73.1383  -10.6956 H       1  UNL1        0.2105
     14 H          15.4592   72.9998   -8.6441 H       1  UNL1        0.2106
     15 O          16.0691   70.0248   -7.0096 O.2     1  UNL1       -0.2464
     16 O          18.1479   69.1312   -2.9941 O.2     1  UNL1       -0.2670
     17 N          18.2231   70.8636   -6.6703 N.ar    1  UNL1       -0.2551
     18 N          17.1062   69.5820   -5.0102 N.ar    1  UNL1       -0.2743
     19 C          17.0614   70.1511   -6.2897 C.ar    1  UNL1        0.3323
     20 C          19.3012   70.9569   -5.7986 C.ar    1  UNL1        0.0869
     21 C          19.3292   70.4090   -4.5821 C.ar    1  UNL1        0.0795
     22 C          18.1549   69.6482   -4.1072 C.ar    1  UNL1        0.2626
     23 H          16.3080   69.0827   -4.7221 H       1  UNL1        0.1734
     24 O          22.2785   72.5408   -5.1042 O.3     1  UNL1       -0.2703
     25 P          23.1337   72.4335   -3.7364 P.3     1  UNL1        0.2208
     26 O          24.3365   73.4917   -3.9682 O.co2   1  UNL1       -0.4371
     27 O          23.5895   71.0425   -3.4027 O.2     1  UNL1       -0.5170
     28 O          22.1989   73.1189   -2.6144 O.3     1  UNL1       -0.2858
     29 O          21.4365   71.2044   -1.4471 O.3     1  UNL1       -0.3226
     30 O          20.2322   74.2555    1.0646 O.3     1  UNL1       -0.3794
     31 O          19.9220   74.5100   -1.8291 O.3     1  UNL1       -0.3775
     32 O          22.5471   72.6339    1.7444 O.3     1  UNL1       -0.3792
     33 C          21.0727   73.6102    0.1080 C.3     1  UNL1        0.1718
     34 C          20.2689   73.3052   -1.1563 C.3     1  UNL1        0.1968
     35 C          21.5929   72.3141    0.7337 C.3     1  UNL1        0.1723
     36 C          21.0661   72.4140   -2.1097 C.3     1  UNL1        0.2706
     37 C          22.2649   71.4235   -0.3074 C.3     1  UNL1        0.1830
     38 H          19.8897   75.0819    0.6890 H       1  UNL1        0.2105
     39 H          19.4162   75.0804   -1.2298 H       1  UNL1        0.2106
     40 H          22.1320   73.2006    2.4133 H       1  UNL1        0.2106
     41 O          23.7729   69.6801    0.1258 O.co2   1  UNL1       -0.5466
     42 O          21.5926   69.3355    0.6973 O.co2   1  UNL1       -0.5466
     43 C          22.4706   70.0439    0.2281 C.2     1  UNL1        0.0799
@<TRIPOS>UNITY_ATOM_ATTR
2 1
charge -1
26 1
charge -1
41 1
charge -1
@<TRIPOS>BOND
     1     1     4    1
     2     1    24    1
     3     1     2    1
     4     1     3    2
     5    25    28    1
     6    25    24    1
     7    25    26    1
     8    25    27    2
     9     6    11    1
    10     6    12    1
    11    29    36    1
    12    29    37    1
    13     7     9    1
    14     7    13    1
    15     8    10    1
    16     8    14    1
    17     4     5    1
    18    28    36    1
    19    30    33    1
    20    30    38    1
    21    31    34    1
    22    31    39    1
    23    32    35    1
    24    32    40    1
    25    41    43   ar
    26    15    19    2
    27    42    43   ar
    28    16    22    2
    29    17    12    1
    30    17    19   ar
    31    17    20   ar
    32    18    19   ar
    33    18    22   ar
    34    18    23    1
    35     9    10    1
    36     9    11    1
    37    10    12    1
    38    11     5    1
    39    33    34    1
    40    33    35    1
    41    34    36    1
    42    35    37    1
    43    37    43    1
    44    20    21   ar
    45    21    22   ar
@<TRIPOS>MOLECULE
*****
 43 45 0 0 0
SMALL
GASTEIGER

@<TRIPOS>ATOM
      1 P          21.6674   70.2968   -1.0227 P.3     1  UNL1        0.2189
      2 O          23.1645   70.7036   -1.4832 O.co2   1  UNL1       -0.4371
      3 O          21.5908   69.4836    0.2361 O.2     1  UNL1       -0.5170
      4 O          21.0278   69.6119   -2.3417 O.3     1  UNL1       -0.3112
      5 C          20.7607   70.4296   -3.4662 C.3     1  UNL1        0.1811
      6 O          19.0528   71.7435   -4.5313 O.3     1  UNL1       -0.3308
      7 O          17.2059   70.7356   -2.3949 O.3     1  UNL1       -0.3794
      8 O          16.5638   69.1631   -4.5282 O.3     1  UNL1       -0.3779
      9 C          18.2772   70.0612   -3.0552 C.3     1  UNL1        0.1713
     10 C          17.8726   69.6902   -4.4661 C.3     1  UNL1        0.1895
     11 C          19.3898   71.0719   -3.2981 C.3     1  UNL1        0.1764
     12 C          18.0028   71.0188   -5.1913 C.3     1  UNL1        0.2383
     13 H          16.4829   70.1099   -2.2290 H       1  UNL1        0.2105
     14 H          16.5329   68.3176   -4.0525 H       1  UNL1        0.2106
     15 O          16.1445   70.4438   -7.2388 O.2     1  UNL1       -0.2464
     16 O          19.4339   70.4160  -10.4673 O.2     1  UNL1       -0.2670
     17 N          18.3464   70.8561   -6.5756 N.ar    1  UNL1       -0.2551
     18 N          17.7847   70.4295   -8.8446 N.ar    1  UNL1       -0.2743
     19 C          17.3369   70.5686   -7.5244 C.ar    1  UNL1        0.3323
     20 C          19.6694   70.9831   -6.9814 C.ar    1  UNL1        0.0869
     21 C          20.0809   70.8479   -8.2436 C.ar    1  UNL1        0.0795
     22 C          19.0892   70.5461   -9.2966 C.ar    1  UNL1        0.2626
     23 H          17.1003   70.2271   -9.5228 H       1  UNL1        0.1734
     24 O          20.9099   71.7229   -0.9502 O.3     1  UNL1       -0.2703
     25 P          21.3650   73.1350   -0.3079 P.3     1  UNL1        0.2208
     26 O          22.7953   72.7905    0.3672 O.co2   1  UNL1       -0.4371
     27 O          20.3632   73.7331    0.6369 O.2     1  UNL1       -0.5170
     28 O          21.7267   74.0639   -1.5763 O.3     1  UNL1       -0.2858
     29 O          22.6819   73.4346   -3.6501 O.3     1  UNL1       -0.3226
     30 O          24.0803   77.2980   -3.2184 O.3     1  UNL1       -0.3794
     31 O          24.0361   75.4753   -0.9357 O.3     1  UNL1       -0.3775
     32 O          21.9144   76.7287   -5.0719 O.3     1  UNL1       -0.3792
     33 C          23.1526   76.2234   -3.0678 C.3     1  UNL1        0.1718
     34 C          23.8096   75.0860   -2.2854 C.3     1  UNL1        0.1968
     35 C          22.7513   75.7459   -4.4652 C.3     1  UNL1        0.1723
     36 C          22.9329   73.8330   -2.3019 C.3     1  UNL1        0.2706
     37 C          21.9884   74.4256   -4.4050 C.3     1  UNL1        0.1830
     38 H          24.3497   77.6179   -2.3429 H       1  UNL1        0.2105
     39 H          24.5916   76.2701   -0.9178 H       1  UNL1        0.2106
     40 H          22.3881   77.5740   -5.1162 H       1  UNL1        0.2106
     41 O          22.7440   72.7585   -5.8717 O.co2   1  UNL1       -0.5466
     42 O          21.1465   74.1854   -6.6533 O.co2   1  UNL1       -0.5466
     43 C          21.8910   73.8069   -5.7615 C.2     1  UNL1        0.0799
@<TRIPOS>UNITY_ATOM_ATTR
2 1
charge -1
26 1
charge -1
41 1
charge -1
@<TRIPOS>BOND
     1     1     4    1
     2     1    24    1
     3     1     2    1
     4     1     3    2
     5    25    28    1
     6    25    24    1
     7    25    26    1
     8    25    27    2
     9     6    11    1
    10     6    12    1
    11    29    36    1
    12    29    37    1
    13     7     9    1
    14     7    13    1
    15     8    10    1
    16     8    14    1
    17     4     5    1
    18    28    36    1
    19    30    33    1
    20    30    38    1
    21    31    34    1
    22    31    39    1
    23    32    35    1
    24    32    40    1
    25    41    43   ar
    26    15    19    2
    27    42    43   ar
    28    16    22    2
    29    17    12    1
    30    17    19   ar
    31    17    20   ar
    32    18    19   ar
    33    18    22   ar
    34    18    23    1
    35     9    10    1
    36     9    11    1
    37    10    12    1
    38    11     5    1
    39    33    34    1
    40    33    35    1
    41    34    36    1
    42    35    37    1
    43    37    43    1
    44    20    21   ar
    45    21    22   ar
@<TRIPOS>MOLECULE
*****
 43 45 0 0 0
SMALL
GASTEIGER

@<TRIPOS>ATOM
      1 P          22.9348   71.6842   -2.5234 P.3     1  UNL1        0.2189
      2 O          23.8038   73.0408   -2.6766 O.co2   1  UNL1       -0.4371
      3 O          23.4700   70.5007   -3.2748 O.2     1  UNL1       -0.5170
      4 O          21.4312   72.1403   -2.9095 O.3     1  UNL1       -0.3112
      5 C          20.6430   71.2704   -3.7011 C.3     1  UNL1        0.1811
      6 O          18.7217   72.1509   -4.8460 O.3     1  UNL1       -0.3308
      7 O          17.0946   71.0223   -2.5942 O.3     1  UNL1       -0.3794
      8 O          16.7448   69.1729   -4.5673 O.3     1  UNL1       -0.3779
      9 C          18.2693   70.4964   -3.2123 C.3     1  UNL1        0.1713
     10 C          17.9357   69.9320   -4.5770 C.3     1  UNL1        0.1895
     11 C          19.1784   71.6659   -3.5647 C.3     1  UNL1        0.1764
     12 C          17.8198   71.1910   -5.4192 C.3     1  UNL1        0.2383
     13 H          16.4982   70.2935   -2.3599 H       1  UNL1        0.2105
     14 H          16.8697   68.3824   -4.0182 H       1  UNL1        0.2106
     15 O          16.0078   70.4296   -7.4474 O.2     1  UNL1       -0.2464
     16 O          19.3283   70.3661  -10.6433 O.2     1  UNL1       -0.2670
     17 N          18.1839   70.9688   -6.7899 N.ar    1  UNL1       -0.2551
     18 N          17.6635   70.3977   -9.0370 N.ar    1  UNL1       -0.2743
     19 C          17.1969   70.5886   -7.7298 C.ar    1  UNL1        0.3323
     20 C          19.5046   71.1290   -7.1915 C.ar    1  UNL1        0.0869
     21 C          19.9342   70.9436   -8.4412 C.ar    1  UNL1        0.0795
     22 C          18.9666   70.5443   -9.4842 C.ar    1  UNL1        0.2626
     23 H          16.9950   70.1307   -9.7086 H       1  UNL1        0.1734
     24 O          22.8537   71.4842   -0.9214 O.3     1  UNL1       -0.2703
     25 P          21.9049   70.5384   -0.0165 P.3     1  UNL1        0.2208
     26 O          22.9624   69.6029    0.7753 O.co2   1  UNL1       -0.4371
     27 O          20.8698   69.7793   -0.7951 O.2     1  UNL1       -0.5170
     28 O          21.3052   71.5214    1.1133 O.3     1  UNL1       -0.2858
     29 O          21.2549   73.8701    1.4139 O.3     1  UNL1       -0.3226
     30 O          21.9454   72.5442    5.2653 O.3     1  UNL1       -0.3794
     31 O          23.3332   71.3180    3.0059 O.3     1  UNL1       -0.3775
     32 O          19.3066   73.4940    4.5001 O.3     1  UNL1       -0.3792
     33 C          21.4193   72.4803    3.9398 C.3     1  UNL1        0.1718
     34 C          22.5677   72.5151    2.9311 C.3     1  UNL1        0.1968
     35 C          20.4973   73.6850    3.7384 C.3     1  UNL1        0.1723
     36 C          22.0390   72.6800    1.5056 C.3     1  UNL1        0.2706
     37 C          20.1154   73.8550    2.2708 C.3     1  UNL1        0.1830
     38 H          22.5346   71.7883    5.4163 H       1  UNL1        0.2105
     39 H          23.6716   71.2069    3.9079 H       1  UNL1        0.2106
     40 H          19.5358   73.3843    5.4363 H       1  UNL1        0.2106
     41 O          18.1538   75.1382    2.1852 O.co2   1  UNL1       -0.5466
     42 O          20.1180   76.2103    1.7475 O.co2   1  UNL1       -0.5466
     43 C          19.5003   75.1959    2.0346 C.2     1  UNL1        0.0799
@<TRIPOS>UNITY_ATOM_ATTR
2 1
charge -1
26 1
charge -1
41 1
charge -1
@<TRIPOS>BOND
     1     1     4    1
     2     1    24    1
     3     1     2    1
     4     1     3    2
     5    25    28    1
     6    25    24    1
     7    25    26    1
     8    25    27    2
     9     6    11    1
    10     6    12    1
    11    29    36    1
    12    29    37    1
    13     7     9    1
    14     7    13    1
    15     8    10    1
    16     8    14    1
    17     4     5    1
    18    28    36    1
    19    30    33    1
    20    30    38    1
    21    31    34    1
    22    31    39    1
    23    32    35    1
    24    32    40    1
    25    41    43   ar
    26    15    19    2
    27    42    43   ar
    28    16    22    2
    29    17    12    1
    30    17    19   ar
    31    17    20   ar
    32    18    19   ar
    33    18    22   ar
    34    18    23    1
    35     9    10    1
    36     9    11    1
    37    10    12    1
    38    11     5    1
    39    33    34    1
    40    33    35    1
    41    34    36    1
    42    35    37    1
    43    37    43    1
    44    20    21   ar
    45    21    22   ar
@<TRIPOS>MOLECULE
*****
 43 45 0 0 0
SMALL
GASTEIGER

@<TRIPOS>ATOM
      1 P          22.6167   72.7000   -4.0645 P.3     1  UNL1        0.2189
      2 O          23.1320   73.3577   -5.4504 O.co2   1  UNL1       -0.4371
      3 O          23.5470   71.6910   -3.4576 O.2     1  UNL1       -0.5170
      4 O          21.1317   72.1634   -4.4176 O.3     1  UNL1       -0.3112
      5 C          20.5173   71.2435   -3.5340 C.3     1  UNL1        0.1811
      6 O          18.5867   72.0948   -4.6855 O.3     1  UNL1       -0.3308
      7 O          16.9611   70.8425   -2.4990 O.3     1  UNL1       -0.3794
      8 O          16.7076   69.0452   -4.5341 O.3     1  UNL1       -0.3779
      9 C          18.1633   70.3758   -3.1118 C.3     1  UNL1        0.1713
     10 C          17.8721   69.8436   -4.4990 C.3     1  UNL1        0.1895
     11 C          19.0379   71.5855   -3.4118 C.3     1  UNL1        0.1764
     12 C          17.7278   71.1238   -5.3041 C.3     1  UNL1        0.2383
     13 H          16.3860   70.0872   -2.2980 H       1  UNL1        0.2105
     14 H          16.8500   68.2425   -4.0074 H       1  UNL1        0.2106
     15 O          15.9845   70.3329   -7.3807 O.2     1  UNL1       -0.2464
     16 O          19.3510   70.5155  -10.5235 O.2     1  UNL1       -0.2670
     17 N          18.1223   70.9569   -6.6742 N.ar    1  UNL1       -0.2551
     18 N          17.6631   70.4236   -8.9438 N.ar    1  UNL1       -0.2743
     19 C          17.1686   70.5561   -7.6396 C.ar    1  UNL1        0.3323
     20 C          19.4395   71.1909   -7.0501 C.ar    1  UNL1        0.0869
     21 C          19.8959   71.0605   -8.2973 C.ar    1  UNL1        0.0795
     22 C          18.9641   70.6444   -9.3660 C.ar    1  UNL1        0.2626
     23 H          17.0182   70.1436   -9.6330 H       1  UNL1        0.1734
     24 O          22.3254   73.9910   -3.1365 O.3     1  UNL1       -0.2703
     25 P          23.2550   74.7521   -2.0547 P.3     1  UNL1        0.2208
     26 O          22.6079   76.2344   -1.9887 O.co2   1  UNL1       -0.4371
     27 O          24.7207   74.7311   -2.3791 O.2     1  UNL1       -0.5170
     28 O          22.8728   74.0776   -0.6400 O.3     1  UNL1       -0.2858
     29 O          21.5404   72.1225   -0.5326 O.3     1  UNL1       -0.3226
     30 O          21.1571   73.6127    3.3015 O.3     1  UNL1       -0.3794
     31 O          21.0612   75.4077    0.9986 O.3     1  UNL1       -0.3775
     32 O          22.8742   71.3233    2.7907 O.3     1  UNL1       -0.3792
     33 C          21.8172   73.3617    2.0609 C.3     1  UNL1        0.1718
     34 C          21.0161   73.9877    0.9191 C.3     1  UNL1        0.1968
     35 C          21.9137   71.8458    1.8748 C.3     1  UNL1        0.1723
     36 C          21.5638   73.5473   -0.4392 C.3     1  UNL1        0.2706
     37 C          22.3457   71.4850    0.4564 C.3     1  UNL1        0.1830
     38 H          21.0842   74.5700    3.4413 H       1  UNL1        0.2105
     39 H          20.7153   75.6941    1.8581 H       1  UNL1        0.2106
     40 H          22.6110   71.5461    3.6973 H       1  UNL1        0.2106
     41 O          20.9211   69.8372   -0.4134 O.co2   1  UNL1       -0.5466
     42 O          22.9066   69.1384    0.4633 O.co2   1  UNL1       -0.5466
     43 C          22.1213   70.0327    0.1868 C.2     1  UNL1        0.0799
@<TRIPOS>UNITY_ATOM_ATTR
2 1
charge -1
26 1
charge -1
41 1
charge -1
@<TRIPOS>BOND
     1     1     4    1
     2     1    24    1
     3     1     2    1
     4     1     3    2
     5    25    28    1
     6    25    24    1
     7    25    26    1
     8    25    27    2
     9     6    11    1
    10     6    12    1
    11    29    36    1
    12    29    37    1
    13     7     9    1
    14     7    13    1
    15     8    10    1
    16     8    14    1
    17     4     5    1
    18    28    36    1
    19    30    33    1
    20    30    38    1
    21    31    34    1
    22    31    39    1
    23    32    35    1
    24    32    40    1
    25    41    43   ar
    26    15    19    2
    27    42    43   ar
    28    16    22    2
    29    17    12    1
    30    17    19   ar
    31    17    20   ar
    32    18    19   ar
    33    18    22   ar
    34    18    23    1
    35     9    10    1
    36     9    11    1
    37    10    12    1
    38    11     5    1
    39    33    34    1
    40    33    35    1
    41    34    36    1
    42    35    37    1
    43    37    43    1
    44    20    21   ar
    45    21    22   ar
@<TRIPOS>MOLECULE
*****
 43 45 0 0 0
SMALL
GASTEIGER

@<TRIPOS>ATOM
      1 P          21.6082   70.4090   -1.1475 P.3     1  UNL1        0.2189
      2 O          23.1545   70.7176   -1.5114 O.co2   1  UNL1       -0.4371
      3 O          21.3860   69.7904    0.2015 O.2     1  UNL1       -0.5170
      4 O          21.0759   69.5495   -2.4108 O.3     1  UNL1       -0.3112
      5 C          20.7224   70.2380   -3.5963 C.3     1  UNL1        0.1811
      6 O          19.0295   71.6096   -4.6116 O.3     1  UNL1       -0.3308
      7 O          17.1786   70.5667   -2.4955 O.3     1  UNL1       -0.3794
      8 O          16.5005   69.0690   -4.6711 O.3     1  UNL1       -0.3779
      9 C          18.2356   69.8959   -3.1820 C.3     1  UNL1        0.1713
     10 C          17.8176   69.5737   -4.6010 C.3     1  UNL1        0.1895
     11 C          19.3625   70.8961   -3.4011 C.3     1  UNL1        0.1764
     12 C          17.9648   70.9213   -5.2868 C.3     1  UNL1        0.2383
     13 H          16.4468   69.9475   -2.3442 H       1  UNL1        0.2105
     14 H          16.4589   68.2103   -4.2208 H       1  UNL1        0.2106
     15 O          16.0834   70.4634   -7.3428 O.2     1  UNL1       -0.2464
     16 O          19.3579   70.4538  -10.5866 O.2     1  UNL1       -0.2670
     17 N          18.2983   70.7950   -6.6773 N.ar    1  UNL1       -0.2551
     18 N          17.7162   70.4580   -8.9563 N.ar    1  UNL1       -0.2743
     19 C          17.2776   70.5656   -7.6300 C.ar    1  UNL1        0.3323
     20 C          19.6225   70.8999   -7.0853 C.ar    1  UNL1        0.0869
     21 C          20.0252   70.7953   -8.3532 C.ar    1  UNL1        0.0795
     22 C          19.0215   70.5546   -9.4106 C.ar    1  UNL1        0.2626
     23 H          17.0239   70.2962   -9.6374 H       1  UNL1        0.1734
     24 O          20.8929   71.8434   -1.3566 O.3     1  UNL1       -0.2703
     25 P          21.2052   73.2900   -0.7061 P.3     1  UNL1        0.2208
     26 O          19.7894   74.0649   -0.8304 O.co2   1  UNL1       -0.4371
     27 O          22.3621   74.0112   -1.3349 O.2     1  UNL1       -0.5170
     28 O          21.3742   73.0013    0.8720 O.3     1  UNL1       -0.2858
     29 O          22.5841   74.7769    1.8681 O.3     1  UNL1       -0.3226
     30 O          22.0222   72.2378    5.0783 O.3     1  UNL1       -0.3794
     31 O          22.7456   71.1721    2.4561 O.3     1  UNL1       -0.3775
     32 O          20.4312   74.6588    4.8368 O.3     1  UNL1       -0.3792
     33 C          21.6916   72.8643    3.8388 C.3     1  UNL1        0.1718
     34 C          22.7721   72.5518    2.8032 C.3     1  UNL1        0.1968
     35 C          21.6058   74.3731    4.0797 C.3     1  UNL1        0.1723
     36 C          22.5751   73.3876    1.5378 C.3     1  UNL1        0.2706
     37 C          21.5380   75.1442    2.7647 C.3     1  UNL1        0.1830
     38 H          22.0823   71.2780    4.9497 H       1  UNL1        0.2105
     39 H          22.8697   70.6358    3.2545 H       1  UNL1        0.2106
     40 H          20.4618   74.1739    5.6763 H       1  UNL1        0.2106
     41 O          21.6167   77.2983    1.8399 O.co2   1  UNL1       -0.5466
     42 O          22.0946   77.1018    4.0607 O.co2   1  UNL1       -0.5466
     43 C          21.7853   76.6003    2.9902 C.2     1  UNL1        0.0799
@<TRIPOS>UNITY_ATOM_ATTR
2 1
charge -1
26 1
charge -1
41 1
charge -1
@<TRIPOS>BOND
     1     1     4    1
     2     1    24    1
     3     1     2    1
     4     1     3    2
     5    25    28    1
     6    25    24    1
     7    25    26    1
     8    25    27    2
     9     6    11    1
    10     6    12    1
    11    29    36    1
    12    29    37    1
    13     7     9    1
    14     7    13    1
    15     8    10    1
    16     8    14    1
    17     4     5    1
    18    28    36    1
    19    30    33    1
    20    30    38    1
    21    31    34    1
    22    31    39    1
    23    32    35    1
    24    32    40    1
    25    41    43   ar
    26    15    19    2
    27    42    43   ar
    28    16    22    2
    29    17    12    1
    30    17    19   ar
    31    17    20   ar
    32    18    19   ar
    33    18    22   ar
    34    18    23    1
    35     9    10    1
    36     9    11    1
    37    10    12    1
    38    11     5    1
    39    33    34    1
    40    33    35    1
    41    34    36    1
    42    35    37    1
    43    37    43    1
    44    20    21   ar
    45    21    22   ar
@<TRIPOS>MOLECULE
*****
 43 45 0 0 0
SMALL
GASTEIGER

@<TRIPOS>ATOM
      1 P          21.5916   70.3462   -1.0213 P.3     1  UNL1        0.2189
      2 O          23.0485   70.7685   -1.5853 O.co2   1  UNL1       -0.4371
      3 O          21.6131   69.4871    0.2089 O.2     1  UNL1       -0.5170
      4 O          20.8457   69.7109   -2.3089 O.3     1  UNL1       -0.3112
      5 C          20.6065   70.5420   -3.4300 C.3     1  UNL1        0.1811
      6 O          18.8993   71.8068   -4.5540 O.3     1  UNL1       -0.3308
      7 O          17.0197   70.7846   -2.4531 O.3     1  UNL1       -0.3794
      8 O          16.4657   69.1741   -4.5827 O.3     1  UNL1       -0.3779
      9 C          18.1216   70.1256   -3.0777 C.3     1  UNL1        0.1713
     10 C          17.7611   69.7297   -4.4939 C.3     1  UNL1        0.1895
     11 C          19.2185   71.1568   -3.3046 C.3     1  UNL1        0.1764
     12 C          17.8820   71.0522   -5.2316 C.3     1  UNL1        0.2383
     13 H          16.3060   70.1457   -2.2980 H       1  UNL1        0.2105
     14 H          16.4403   68.3338   -4.0978 H       1  UNL1        0.2106
     15 O          16.0778   70.4955   -7.3318 O.2     1  UNL1       -0.2464
     16 O          19.4608   70.4146  -10.4611 O.2     1  UNL1       -0.2670
     17 N          18.2643   70.8809   -6.6046 N.ar    1  UNL1       -0.2551
     18 N          17.7646   70.4547   -8.8882 N.ar    1  UNL1       -0.2743
     19 C          17.2797   70.6037   -7.5822 C.ar    1  UNL1        0.3323
     20 C          19.6003   70.9892   -6.9713 C.ar    1  UNL1        0.0869
     21 C          20.0473   70.8448   -8.2203 C.ar    1  UNL1        0.0795
     22 C          19.0833   70.5528   -9.3015 C.ar    1  UNL1        0.2626
     23 H          17.0979   70.2592   -9.5859 H       1  UNL1        0.1734
     24 O          20.8478   71.7693   -0.8359 O.3     1  UNL1       -0.2703
     25 P          21.3855   73.1809   -0.2599 P.3     1  UNL1        0.2208
     26 O          22.5733   72.7408    0.7480 O.co2   1  UNL1       -0.4371
     27 O          20.3230   74.0333    0.3713 O.2     1  UNL1       -0.5170
     28 O          22.1435   73.8695   -1.5064 O.3     1  UNL1       -0.2858
     29 O          24.1278   75.1460   -1.7125 O.3     1  UNL1       -0.3226
     30 O          21.6308   77.0322   -4.4098 O.3     1  UNL1       -0.3794
     31 O          20.6218   76.1785   -1.8045 O.3     1  UNL1       -0.3775
     32 O          23.7401   75.2712   -5.3589 O.3     1  UNL1       -0.3792
     33 C          22.1539   75.9296   -3.6691 C.3     1  UNL1        0.1718
     34 C          21.9962   76.1978   -2.1722 C.3     1  UNL1        0.1968
     35 C          23.6334   75.7770   -4.0295 C.3     1  UNL1        0.1723
     36 C          22.7473   75.1520   -1.3469 C.3     1  UNL1        0.2706
     37 C          24.3409   74.8123   -3.0823 C.3     1  UNL1        0.1830
     38 H          20.6914   77.1484   -4.1969 H       1  UNL1        0.2105
     39 H          20.1391   76.8396   -2.3245 H       1  UNL1        0.2106
     40 H          23.2936   75.8760   -5.9718 H       1  UNL1        0.2106
     41 O          26.3799   75.4246   -2.0977 O.co2   1  UNL1       -0.5466
     42 O          26.4573   74.5961   -4.2206 O.co2   1  UNL1       -0.5466
     43 C          25.8242   74.9193   -3.2268 C.2     1  UNL1        0.0799
@<TRIPOS>UNITY_ATOM_ATTR
2 1
charge -1
26 1
charge -1
41 1
charge -1
@<TRIPOS>BOND
     1     1     4    1
     2     1    24    1
     3     1     2    1
     4     1     3    2
     5    25    28    1
     6    25    24    1
     7    25    26    1
     8    25    27    2
     9     6    11    1
    10     6    12    1
    11    29    36    1
    12    29    37    1
    13     7     9    1
    14     7    13    1
    15     8    10    1
    16     8    14    1
    17     4     5    1
    18    28    36    1
    19    30    33    1
    20    30    38    1
    21    31    34    1
    22    31    39    1
    23    32    35    1
    24    32    40    1
    25    41    43   ar
    26    15    19    2
    27    42    43   ar
    28    16    22    2
    29    17    12    1
    30    17    19   ar
    31    17    20   ar
    32    18    19   ar
    33    18    22   ar
    34    18    23    1
    35     9    10    1
    36     9    11    1
    37    10    12    1
    38    11     5    1
    39    33    34    1
    40    33    35    1
    41    34    36    1
    42    35    37    1
    43    37    43    1
    44    20    21   ar
    45    21    22   ar
@<TRIPOS>MOLECULE
*****
 43 45 0 0 0
SMALL
GASTEIGER

@<TRIPOS>ATOM
      1 P          23.2199   72.9314   -3.9069 P.3     1  UNL1        0.2189
      2 O          24.6073   73.7637   -3.8709 O.co2   1  UNL1       -0.4371
      3 O          23.2956   71.5483   -3.3297 O.2     1  UNL1       -0.5170
      4 O          22.7520   73.0229   -5.4531 O.3     1  UNL1       -0.3112
      5 C          21.7049   73.9139   -5.7910 C.3     1  UNL1        0.1811
      6 O          21.1104   72.9983   -7.9325 O.3     1  UNL1       -0.3308
      7 O          21.3805   75.7901   -8.9930 O.3     1  UNL1       -0.3794
      8 O          18.6806   75.5104   -8.7321 O.3     1  UNL1       -0.3779
      9 C          20.8889   75.3477   -7.7276 C.3     1  UNL1        0.1713
     10 C          19.5092   74.7440   -7.8833 C.3     1  UNL1        0.1895
     11 C          21.7164   74.1445   -7.2967 C.3     1  UNL1        0.1764
     12 C          19.8274   73.3742   -8.4580 C.3     1  UNL1        0.2383
     13 H          20.8671   76.5584   -9.2891 H       1  UNL1        0.2105
     14 H          18.5069   76.3727   -8.3219 H       1  UNL1        0.2106
     15 O          19.0432   71.2073  -10.0909 O.2     1  UNL1       -0.2464
     16 O          16.1061   69.6336   -6.9064 O.2     1  UNL1       -0.2670
     17 N          18.8597   72.3832   -8.0804 N.ar    1  UNL1       -0.2551
     18 N          17.5803   70.4262   -8.5037 N.ar    1  UNL1       -0.2743
     19 C          18.5368   71.3353   -8.9746 C.ar    1  UNL1        0.3323
     20 C          18.2434   72.4541   -6.8370 C.ar    1  UNL1        0.0869
     21 C          17.3336   71.5801   -6.4021 C.ar    1  UNL1        0.0795
     22 C          16.9393   70.4555   -7.2757 C.ar    1  UNL1        0.2626
     23 H          17.3377   69.6890   -9.1095 H       1  UNL1        0.1734
     24 O          22.1846   73.9191   -3.1549 O.3     1  UNL1       -0.2703
     25 P          22.4205   75.0204   -1.9951 P.3     1  UNL1        0.2208
     26 O          21.0924   75.9416   -2.0842 O.co2   1  UNL1       -0.4371
     27 O          23.7095   75.7800   -2.1202 O.2     1  UNL1       -0.5170
     28 O          22.2567   74.2023   -0.6144 O.3     1  UNL1       -0.2858
     29 O          21.1423   72.1140   -0.5350 O.3     1  UNL1       -0.3226
     30 O          21.0001   73.2938    3.4218 O.3     1  UNL1       -0.3794
     31 O          20.4959   75.2193    1.2833 O.3     1  UNL1       -0.3775
     32 O          22.8757   71.2392    2.5782 O.3     1  UNL1       -0.3792
     33 C          21.5540   73.1983    2.1095 C.3     1  UNL1        0.1718
     34 C          20.5841   73.8111    1.0988 C.3     1  UNL1        0.1968
     35 C          21.7811   71.7172    1.7986 C.3     1  UNL1        0.1723
     36 C          21.0336   73.5238   -0.3344 C.3     1  UNL1        0.2706
     37 C          22.1021   71.5006    0.3226 C.3     1  UNL1        0.1830
     38 H          20.8471   74.2264    3.6413 H       1  UNL1        0.2105
     39 H          20.2114   75.4088    2.1908 H       1  UNL1        0.2106
     40 H          22.6842   71.3714    3.5198 H       1  UNL1        0.2106
     41 O          20.9583   69.8455   -0.8830 O.co2   1  UNL1       -0.5466
     42 O          22.7412   69.1745    0.3701 O.co2   1  UNL1       -0.5466
     43 C          21.9969   70.0542   -0.0364 C.2     1  UNL1        0.0799
@<TRIPOS>UNITY_ATOM_ATTR
2 1
charge -1
26 1
charge -1
41 1
charge -1
@<TRIPOS>BOND
     1     1     4    1
     2     1    24    1
     3     1     2    1
     4     1     3    2
     5    25    28    1
     6    25    24    1
     7    25    26    1
     8    25    27    2
     9     6    11    1
    10     6    12    1
    11    29    36    1
    12    29    37    1
    13     7     9    1
    14     7    13    1
    15     8    10    1
    16     8    14    1
    17     4     5    1
    18    28    36    1
    19    30    33    1
    20    30    38    1
    21    31    34    1
    22    31    39    1
    23    32    35    1
    24    32    40    1
    25    41    43   ar
    26    15    19    2
    27    42    43   ar
    28    16    22    2
    29    17    12    1
    30    17    19   ar
    31    17    20   ar
    32    18    19   ar
    33    18    22   ar
    34    18    23    1
    35     9    10    1
    36     9    11    1
    37    10    12    1
    38    11     5    1
    39    33    34    1
    40    33    35    1
    41    34    36    1
    42    35    37    1
    43    37    43    1
    44    20    21   ar
    45    21    22   ar
@<TRIPOS>MOLECULE
*****
 43 45 0 0 0
SMALL
GASTEIGER

@<TRIPOS>ATOM
      1 P          22.6796   71.5749   -1.9709 P.3     1  UNL1        0.2189
      2 O          23.1051   70.6818   -3.2516 O.co2   1  UNL1       -0.4371
      3 O          22.9057   70.9211   -0.6393 O.2     1  UNL1       -0.5170
      4 O          21.1542   72.0100   -2.2901 O.3     1  UNL1       -0.3112
      5 C          20.4974   71.4125   -3.3928 C.3     1  UNL1        0.1811
      6 O          18.5623   72.1993   -4.5818 O.3     1  UNL1       -0.3308
      7 O          16.9372   70.8926   -2.4270 O.3     1  UNL1       -0.3794
      8 O          16.7834   69.0886   -4.4661 O.3     1  UNL1       -0.3779
      9 C          18.1660   70.4665   -3.0162 C.3     1  UNL1        0.1713
     10 C          17.9196   69.9255   -4.4086 C.3     1  UNL1        0.1895
     11 C          19.0054   71.7048   -3.2995 C.3     1  UNL1        0.1764
     12 C          17.7483   71.2005   -5.2167 C.3     1  UNL1        0.2383
     13 H          16.3838   70.1185   -2.2370 H       1  UNL1        0.2105
     14 H          16.9422   68.2910   -3.9366 H       1  UNL1        0.2106
     15 O          16.0793   70.3295   -7.3220 O.2     1  UNL1       -0.2464
     16 O          19.4916   70.6499  -10.4037 O.2     1  UNL1       -0.2670
     17 N          18.1748   71.0474   -6.5789 N.ar    1  UNL1       -0.2551
     18 N          17.7807   70.4889   -8.8547 N.ar    1  UNL1       -0.2743
     19 C          17.2572   70.6031   -7.5601 C.ar    1  UNL1        0.3323
     20 C          19.4872   71.3373   -6.9315 C.ar    1  UNL1        0.0869
     21 C          19.9716   71.2237   -8.1698 C.ar    1  UNL1        0.0795
     22 C          19.0784   70.7649   -9.2538 C.ar    1  UNL1        0.2626
     23 H          17.1612   70.1795   -9.5545 H       1  UNL1        0.1734
     24 O          23.5035   72.9473   -2.1956 O.3     1  UNL1       -0.2703
     25 P          23.6008   73.9293   -3.4762 P.3     1  UNL1        0.2208
     26 O          23.6279   72.9032   -4.7279 O.co2   1  UNL1       -0.4371
     27 O          24.7590   74.8837   -3.4338 O.2     1  UNL1       -0.5170
     28 O          22.1534   74.6365   -3.5606 O.3     1  UNL1       -0.2858
     29 O          21.6052   75.5156   -1.4309 O.3     1  UNL1       -0.3226
     30 O          25.3329   77.1705   -2.0894 O.3     1  UNL1       -0.3794
     31 O          23.3671   77.0432   -4.2467 O.3     1  UNL1       -0.3775
     32 O          25.0302   74.9430   -0.2461 O.3     1  UNL1       -0.3792
     33 C          24.3124   76.1769   -2.1870 C.3     1  UNL1        0.1718
     34 C          23.0850   76.7703   -2.8790 C.3     1  UNL1        0.1968
     35 C          23.9569   75.7232   -0.7694 C.3     1  UNL1        0.1723
     36 C          21.8948   75.8134   -2.7972 C.3     1  UNL1        0.2706
     37 C          22.6874   74.8767   -0.7574 C.3     1  UNL1        0.1830
     38 H          25.5751   77.4740   -2.9785 H       1  UNL1        0.2105
     39 H          24.1215   77.6496   -4.3060 H       1  UNL1        0.2106
     40 H          25.8443   75.4703   -0.2484 H       1  UNL1        0.2106
     41 O          22.5528   75.7616    1.4107 O.co2   1  UNL1       -0.5466
     42 O          21.4903   73.7808    1.0279 O.co2   1  UNL1       -0.5466
     43 C          22.1690   74.7176    0.6349 C.2     1  UNL1        0.0799
@<TRIPOS>UNITY_ATOM_ATTR
2 1
charge -1
26 1
charge -1
41 1
charge -1
@<TRIPOS>BOND
     1     1     4    1
     2     1    24    1
     3     1     2    1
     4     1     3    2
     5    25    28    1
     6    25    24    1
     7    25    26    1
     8    25    27    2
     9     6    11    1
    10     6    12    1
    11    29    36    1
    12    29    37    1
    13     7     9    1
    14     7    13    1
    15     8    10    1
    16     8    14    1
    17     4     5    1
    18    28    36    1
    19    30    33    1
    20    30    38    1
    21    31    34    1
    22    31    39    1
    23    32    35    1
    24    32    40    1
    25    41    43   ar
    26    15    19    2
    27    42    43   ar
    28    16    22    2
    29    17    12    1
    30    17    19   ar
    31    17    20   ar
    32    18    19   ar
    33    18    22   ar
    34    18    23    1
    35     9    10    1
    36     9    11    1
    37    10    12    1
    38    11     5    1
    39    33    34    1
    40    33    35    1
    41    34    36    1
    42    35    37    1
    43    37    43    1
    44    20    21   ar
    45    21    22   ar
@<TRIPOS>MOLECULE
*****
 43 45 0 0 0
SMALL
GASTEIGER

@<TRIPOS>ATOM
      1 P          22.7625   71.3862   -2.0915 P.3     1  UNL1        0.2189
      2 O          23.1738   70.5780   -3.4318 O.co2   1  UNL1       -0.4371
      3 O          23.0092   70.6505   -0.8072 O.2     1  UNL1       -0.5170
      4 O          21.2312   71.8334   -2.3621 O.3     1  UNL1       -0.3112
      5 C          20.5403   71.2535   -3.4534 C.3     1  UNL1        0.1811
      6 O          18.6458   72.1294   -4.6456 O.3     1  UNL1       -0.3308
      7 O          16.9601   70.9267   -2.4768 O.3     1  UNL1       -0.3794
      8 O          16.7087   69.1160   -4.5003 O.3     1  UNL1       -0.3779
      9 C          18.1638   70.4326   -3.0646 C.3     1  UNL1        0.1713
     10 C          17.8868   69.8934   -4.4519 C.3     1  UNL1        0.1895
     11 C          19.0655   71.6234   -3.3599 C.3     1  UNL1        0.1764
     12 C          17.7799   71.1687   -5.2705 C.3     1  UNL1        0.2383
     13 H          16.3678   70.1838   -2.2793 H       1  UNL1        0.2105
     14 H          16.8272   68.3157   -3.9642 H       1  UNL1        0.2106
     15 O          16.0591   70.3876   -7.3694 O.2     1  UNL1       -0.2464
     16 O          19.4811   70.4842  -10.4555 O.2     1  UNL1       -0.2670
     17 N          18.1948   70.9823   -6.6321 N.ar    1  UNL1       -0.2551
     18 N          17.7653   70.4355   -8.9043 N.ar    1  UNL1       -0.2743
     19 C          17.2510   70.5885   -7.6100 C.ar    1  UNL1        0.3323
     20 C          19.5219   71.1906   -6.9874 C.ar    1  UNL1        0.0869
     21 C          19.9972   71.0408   -8.2253 C.ar    1  UNL1        0.0795
     22 C          19.0768   70.6304   -9.3060 C.ar    1  UNL1        0.2626
     23 H          17.1275   70.1598   -9.6018 H       1  UNL1        0.1734
     24 O          23.5779   72.7740   -2.2400 O.3     1  UNL1       -0.2703
     25 P          23.4387   73.9776   -3.3103 P.3     1  UNL1        0.2208
     26 O          23.2390   73.2009   -4.7164 O.co2   1  UNL1       -0.4371
     27 O          24.5837   74.9486   -3.2974 O.2     1  UNL1       -0.5170
     28 O          21.9989   74.6361   -3.0008 O.3     1  UNL1       -0.2858
     29 O          22.2696   76.8966   -3.6534 O.3     1  UNL1       -0.3226
     30 O          22.9523   74.9075   -7.2094 O.3     1  UNL1       -0.3794
     31 O          20.7838   74.0731   -5.4386 O.3     1  UNL1       -0.3775
     32 O          25.1800   76.0180   -5.7077 O.3     1  UNL1       -0.3792
     33 C          22.9604   75.0845   -5.7929 C.3     1  UNL1        0.1718
     34 C          21.5284   75.2769   -5.2929 C.3     1  UNL1        0.1968
     35 C          23.8055   76.3203   -5.4756 C.3     1  UNL1        0.1723
     36 C          21.5141   75.6966   -3.8224 C.3     1  UNL1        0.2706
     37 C          23.6395   76.7501   -4.0208 C.3     1  UNL1        0.1830
     38 H          22.4210   74.1277   -7.4350 H       1  UNL1        0.2105
     39 H          20.7889   73.8008   -6.3693 H       1  UNL1        0.2106
     40 H          25.2992   75.7428   -6.6301 H       1  UNL1        0.2106
     41 O          24.2148   78.8161   -4.9708 O.co2   1  UNL1       -0.5466
     42 O          24.5732   78.5643   -2.7330 O.co2   1  UNL1       -0.5466
     43 C          24.1929   78.1213   -3.8064 C.2     1  UNL1        0.0799
@<TRIPOS>UNITY_ATOM_ATTR
2 1
charge -1
26 1
charge -1
41 1
charge -1
@<TRIPOS>BOND
     1     1     4    1
     2     1    24    1
     3     1     2    1
     4     1     3    2
     5    25    28    1
     6    25    24    1
     7    25    26    1
     8    25    27    2
     9     6    11    1
    10     6    12    1
    11    29    36    1
    12    29    37    1
    13     7     9    1
    14     7    13    1
    15     8    10    1
    16     8    14    1
    17     4     5    1
    18    28    36    1
    19    30    33    1
    20    30    38    1
    21    31    34    1
    22    31    39    1
    23    32    35    1
    24    32    40    1
    25    41    43   ar
    26    15    19    2
    27    42    43   ar
    28    16    22    2
    29    17    12    1
    30    17    19   ar
    31    17    20   ar
    32    18    19   ar
    33    18    22   ar
    34    18    23    1
    35     9    10    1
    36     9    11    1
    37    10    12    1
    38    11     5    1
    39    33    34    1
    40    33    35    1
    41    34    36    1
    42    35    37    1
    43    37    43    1
    44    20    21   ar
    45    21    22   ar
@<TRIPOS>MOLECULE
*****
 43 45 0 0 0
SMALL
GASTEIGER

@<TRIPOS>ATOM
      1 P          22.6960   71.8034   -2.9009 P.3     1  UNL1        0.2189
      2 O          23.4976   70.4314   -3.2074 O.co2   1  UNL1       -0.4371
      3 O          22.9348   72.3859   -1.5388 O.2     1  UNL1       -0.5170
      4 O          21.1582   71.4413   -3.2504 O.3     1  UNL1       -0.3112
      5 C          20.3419   72.4439   -3.8273 C.3     1  UNL1        0.1811
      6 O          18.1724   72.1988   -4.8327 O.3     1  UNL1       -0.3308
      7 O          17.4289   70.6132   -2.3987 O.3     1  UNL1       -0.3794
      8 O          17.9068   68.6709   -4.2521 O.3     1  UNL1       -0.3779
      9 C          18.6735   70.6679   -3.0961 C.3     1  UNL1        0.1713
     10 C          18.5776   69.9048   -4.4003 C.3     1  UNL1        0.1895
     11 C          18.8797   72.0975   -3.5778 C.3     1  UNL1        0.1764
     12 C          17.8177   70.8813   -5.2818 C.3     1  UNL1        0.2383
     13 H          17.2752   69.7091   -2.0813 H       1  UNL1        0.2105
     14 H          18.4306   68.0845   -3.6831 H       1  UNL1        0.2106
     15 O          15.9532   70.4454   -7.3579 O.2     1  UNL1       -0.2464
     16 O          19.2616   70.3994  -10.5667 O.2     1  UNL1       -0.2670
     17 N          18.1645   70.7516   -6.6688 N.ar    1  UNL1       -0.2551
     18 N          17.6028   70.4219   -8.9539 N.ar    1  UNL1       -0.2743
     19 C          17.1514   70.5341   -7.6323 C.ar    1  UNL1        0.3323
     20 C          19.4941   70.8416   -7.0626 C.ar    1  UNL1        0.0869
     21 C          19.9090   70.7327   -8.3262 C.ar    1  UNL1        0.0795
     22 C          18.9139   70.5037   -9.3943 C.ar    1  UNL1        0.2626
     23 H          16.9160   70.2681   -9.6424 H       1  UNL1        0.1734
     24 O          23.1320   72.7604   -4.1284 O.3     1  UNL1       -0.2703
     25 P          23.5433   74.3235   -4.1614 P.3     1  UNL1        0.2208
     26 O          25.1558   74.2846   -4.0240 O.co2   1  UNL1       -0.4371
     27 O          22.8545   75.1635   -3.1251 O.2     1  UNL1       -0.5170
     28 O          23.2754   74.7852   -5.6837 O.3     1  UNL1       -0.2858
     29 O          21.3628   75.7893   -6.6549 O.3     1  UNL1       -0.3226
     30 O          22.8234   73.5451   -9.8011 O.3     1  UNL1       -0.3794
     31 O          22.7687   72.4433   -7.0960 O.3     1  UNL1       -0.3775
     32 O          23.2025   76.4271   -9.7648 O.3     1  UNL1       -0.3792
     33 C          22.9060   74.3319   -8.6128 C.3     1  UNL1        0.1718
     34 C          22.1235   73.6484   -7.4911 C.3     1  UNL1        0.1968
     35 C          22.3102   75.7087   -8.9148 C.3     1  UNL1        0.1723
     36 C          21.9957   74.5668   -6.2749 C.3     1  UNL1        0.2706
     37 C          22.0972   76.5160   -7.6376 C.3     1  UNL1        0.1830
     38 H          23.1962   72.6653   -9.6331 H       1  UNL1        0.2105
     39 H          22.8533   71.8559   -7.8629 H       1  UNL1        0.2106
     40 H          23.3466   75.9239  -10.5814 H       1  UNL1        0.2106
     41 O          20.5184   77.5331   -9.0427 O.co2   1  UNL1       -0.5466
     42 O          21.1540   78.6898   -7.1833 O.co2   1  UNL1       -0.5466
     43 C          21.2263   77.7016   -7.8984 C.2     1  UNL1        0.0799
@<TRIPOS>UNITY_ATOM_ATTR
2 1
charge -1
26 1
charge -1
41 1
charge -1
@<TRIPOS>BOND
     1     1     4    1
     2     1    24    1
     3     1     2    1
     4     1     3    2
     5    25    28    1
     6    25    24    1
     7    25    26    1
     8    25    27    2
     9     6    11    1
    10     6    12    1
    11    29    36    1
    12    29    37    1
    13     7     9    1
    14     7    13    1
    15     8    10    1
    16     8    14    1
    17     4     5    1
    18    28    36    1
    19    30    33    1
    20    30    38    1
    21    31    34    1
    22    31    39    1
    23    32    35    1
    24    32    40    1
    25    41    43   ar
    26    15    19    2
    27    42    43   ar
    28    16    22    2
    29    17    12    1
    30    17    19   ar
    31    17    20   ar
    32    18    19   ar
    33    18    22   ar
    34    18    23    1
    35     9    10    1
    36     9    11    1
    37    10    12    1
    38    11     5    1
    39    33    34    1
    40    33    35    1
    41    34    36    1
    42    35    37    1
    43    37    43    1
    44    20    21   ar
    45    21    22   ar
@<TRIPOS>MOLECULE
*****
 43 45 0 0 0
SMALL
GASTEIGER

@<TRIPOS>ATOM
      1 P          22.3625   72.5542   -2.8908 P.3     1  UNL1        0.2189
      2 O          22.9595   71.5292   -1.7900 O.co2   1  UNL1       -0.4371
      3 O          21.4374   73.6020   -2.3449 O.2     1  UNL1       -0.5170
      4 O          21.7354   71.5848   -4.0244 O.3     1  UNL1       -0.3112
      5 C          20.8658   70.5439   -3.6183 C.3     1  UNL1        0.1811
      6 O          19.0606   71.7647   -4.6324 O.3     1  UNL1       -0.3308
      7 O          17.3359   70.6753   -2.4347 O.3     1  UNL1       -0.3794
      8 O          16.7067   69.0620   -4.5413 O.3     1  UNL1       -0.3779
      9 C          18.4185   70.0526   -3.1268 C.3     1  UNL1        0.1713
     10 C          17.9884   69.6548   -4.5229 C.3     1  UNL1        0.1895
     11 C          19.4701   71.1170   -3.4085 C.3     1  UNL1        0.1764
     12 C          18.0282   70.9847   -5.2561 C.3     1  UNL1        0.2383
     13 H          16.6512   70.0147   -2.2437 H       1  UNL1        0.2105
     14 H          16.7338   68.2184   -4.0621 H       1  UNL1        0.2106
     15 O          16.1155   70.4342   -7.2599 O.2     1  UNL1       -0.2464
     16 O          19.3205   70.4227  -10.5723 O.2     1  UNL1       -0.2670
     17 N          18.3354   70.8329   -6.6502 N.ar    1  UNL1       -0.2551
     18 N          17.7138   70.4280   -8.9076 N.ar    1  UNL1       -0.2743
     19 C          17.3007   70.5571   -7.5750 C.ar    1  UNL1        0.3323
     20 C          19.6479   70.9586   -7.0889 C.ar    1  UNL1        0.0869
     21 C          20.0263   70.8330   -8.3624 C.ar    1  UNL1        0.0795
     22 C          19.0067   70.5438   -9.3920 C.ar    1  UNL1        0.2626
     23 H          17.0114   70.2339   -9.5696 H       1  UNL1        0.1734
     24 O          23.6916   73.1351   -3.6042 O.3     1  UNL1       -0.2703
     25 P          24.1168   74.6475   -3.9856 P.3     1  UNL1        0.2208
     26 O          23.7764   75.4782   -2.6386 O.co2   1  UNL1       -0.4371
     27 O          23.4553   75.1794   -5.2239 O.2     1  UNL1       -0.5170
     28 O          25.7285   74.6161   -4.0483 O.3     1  UNL1       -0.2858
     29 O          27.3516   75.9072   -2.9047 O.3     1  UNL1       -0.3226
     30 O          29.1908   75.2827   -6.5509 O.3     1  UNL1       -0.3794
     31 O          26.3457   75.9324   -6.4195 O.3     1  UNL1       -0.3775
     32 O          30.0460   73.7862   -4.2099 O.3     1  UNL1       -0.3792
     33 C          28.3452   74.9627   -5.4461 C.3     1  UNL1        0.1718
     34 C          27.2458   76.0177   -5.3208 C.3     1  UNL1        0.1968
     35 C          29.2073   74.9396   -4.1819 C.3     1  UNL1        0.1723
     36 C          26.4620   75.8392   -4.0198 C.3     1  UNL1        0.2706
     37 C          28.3476   74.8870   -2.9223 C.3     1  UNL1        0.1830
     38 H          28.6646   75.3031   -7.3657 H       1  UNL1        0.2105
     39 H          26.8363   76.0445   -7.2484 H       1  UNL1        0.2106
     40 H          30.5984   73.8074   -5.0070 H       1  UNL1        0.2106
     41 O          29.8411   74.0943   -1.2967 O.co2   1  UNL1       -0.5466
     42 O          29.2218   76.2846   -1.1605 O.co2   1  UNL1       -0.5466
     43 C          29.1642   75.1945   -1.7095 C.2     1  UNL1        0.0799
@<TRIPOS>UNITY_ATOM_ATTR
2 1
charge -1
26 1
charge -1
41 1
charge -1
@<TRIPOS>BOND
     1     1     4    1
     2     1    24    1
     3     1     2    1
     4     1     3    2
     5    25    28    1
     6    25    24    1
     7    25    26    1
     8    25    27    2
     9     6    11    1
    10     6    12    1
    11    29    36    1
    12    29    37    1
    13     7     9    1
    14     7    13    1
    15     8    10    1
    16     8    14    1
    17     4     5    1
    18    28    36    1
    19    30    33    1
    20    30    38    1
    21    31    34    1
    22    31    39    1
    23    32    35    1
    24    32    40    1
    25    41    43   ar
    26    15    19    2
    27    42    43   ar
    28    16    22    2
    29    17    12    1
    30    17    19   ar
    31    17    20   ar
    32    18    19   ar
    33    18    22   ar
    34    18    23    1
    35     9    10    1
    36     9    11    1
    37    10    12    1
    38    11     5    1
    39    33    34    1
    40    33    35    1
    41    34    36    1
    42    35    37    1
    43    37    43    1
    44    20    21   ar
    45    21    22   ar
@<TRIPOS>MOLECULE
*****
 43 45 0 0 0
SMALL
GASTEIGER

@<TRIPOS>ATOM
      1 P          21.9129   70.4479   -0.1621 P.3     1  UNL1        0.2189
      2 O          22.4136   68.9587    0.2258 O.co2   1  UNL1       -0.4371
      3 O          22.9602   71.3277   -0.7793 O.2     1  UNL1       -0.5170
      4 O          21.2460   71.0017    1.2041 O.3     1  UNL1       -0.3112
      5 C          21.4982   72.3419    1.5846 C.3     1  UNL1        0.1811
      6 O          22.9327   72.7191    3.4761 O.3     1  UNL1       -0.3308
      7 O          20.4246   73.2089    5.0450 O.3     1  UNL1       -0.3794
      8 O          21.3209   75.7363    4.5499 O.3     1  UNL1       -0.3779
      9 C          20.7219   73.5426    3.6890 C.3     1  UNL1        0.1713
     10 C          21.6729   74.7194    3.6352 C.3     1  UNL1        0.1895
     11 C          21.5695   72.4211    3.1042 C.3     1  UNL1        0.1764
     12 C          23.0027   74.0659    3.9707 C.3     1  UNL1        0.2383
     13 H          19.8836   73.9110    5.4399 H       1  UNL1        0.2105
     14 H          20.4676   76.1209    4.2931 H       1  UNL1        0.2106
     15 O          25.4809   74.5476    5.2368 O.2     1  UNL1       -0.2464
     16 O          27.1909   76.6359    1.5006 O.2     1  UNL1       -0.2670
     17 N          24.1129   74.7334    3.3520 N.ar    1  UNL1       -0.2551
     18 N          26.3299   75.5881    3.3751 N.ar    1  UNL1       -0.2743
     19 C          25.3136   74.9251    4.0755 C.ar    1  UNL1        0.3323
     20 C          24.0068   75.1884    2.0433 C.ar    1  UNL1        0.0869
     21 C          24.9842   75.8187    1.3889 C.ar    1  UNL1        0.0795
     22 C          26.2712   76.0597    2.0737 C.ar    1  UNL1        0.2626
     23 H          27.1747   75.7350    3.8589 H       1  UNL1        0.1734
     24 O          20.6301   70.1655   -1.1042 O.3     1  UNL1       -0.2703
     25 P          20.4713   70.1786   -2.7130 P.3     1  UNL1        0.2208
     26 O          20.1536   68.6310   -3.0659 O.co2   1  UNL1       -0.4371
     27 O          21.6518   70.7497   -3.4437 O.2     1  UNL1       -0.5170
     28 O          19.0805   70.9509   -2.9807 O.3     1  UNL1       -0.2858
     29 O          16.7536   70.6848   -3.3326 O.3     1  UNL1       -0.3226
     30 O          17.9410   72.4603   -6.8690 O.3     1  UNL1       -0.3794
     31 O          19.5580   70.3520   -5.6546 O.3     1  UNL1       -0.3775
     32 O          16.5411   74.0175   -4.8525 O.3     1  UNL1       -0.3792
     33 C          17.9845   72.1892   -5.4680 C.3     1  UNL1        0.1718
     34 C          18.2408   70.6989   -5.2429 C.3     1  UNL1        0.1968
     35 C          16.6372   72.5945   -4.8659 C.3     1  UNL1        0.1723
     36 C          18.0664   70.3303   -3.7689 C.3     1  UNL1        0.2706
     37 C          16.4893   72.0821   -3.4361 C.3     1  UNL1        0.1830
     38 H          18.7868   72.2106   -7.2732 H       1  UNL1        0.2105
     39 H          19.6757   70.5834   -6.5889 H       1  UNL1        0.2106
     40 H          16.6338   74.3564   -5.7566 H       1  UNL1        0.2106
     41 O          14.9281   71.6636   -1.7365 O.co2   1  UNL1       -0.5466
     42 O          14.1609   72.6855   -3.6250 O.co2   1  UNL1       -0.5466
     43 C          15.0714   72.1902   -2.9779 C.2     1  UNL1        0.0799
@<TRIPOS>UNITY_ATOM_ATTR
2 1
charge -1
26 1
charge -1
41 1
charge -1
@<TRIPOS>BOND
     1     1     4    1
     2     1    24    1
     3     1     2    1
     4     1     3    2
     5    25    28    1
     6    25    24    1
     7    25    26    1
     8    25    27    2
     9     6    11    1
    10     6    12    1
    11    29    36    1
    12    29    37    1
    13     7     9    1
    14     7    13    1
    15     8    10    1
    16     8    14    1
    17     4     5    1
    18    28    36    1
    19    30    33    1
    20    30    38    1
    21    31    34    1
    22    31    39    1
    23    32    35    1
    24    32    40    1
    25    41    43   ar
    26    15    19    2
    27    42    43   ar
    28    16    22    2
    29    17    12    1
    30    17    19   ar
    31    17    20   ar
    32    18    19   ar
    33    18    22   ar
    34    18    23    1
    35     9    10    1
    36     9    11    1
    37    10    12    1
    38    11     5    1
    39    33    34    1
    40    33    35    1
    41    34    36    1
    42    35    37    1
    43    37    43    1
    44    20    21   ar
    45    21    22   ar
@<TRIPOS>MOLECULE
*****
 43 45 0 0 0
SMALL
GASTEIGER

@<TRIPOS>ATOM
      1 P          21.5378   70.3781   -0.9693 P.3     1  UNL1        0.2189
      2 O          22.9363   71.0737   -1.3925 O.co2   1  UNL1       -0.4371
      3 O          21.6002   69.5313    0.2680 O.2     1  UNL1       -0.5170
      4 O          21.0577   69.6202   -2.3158 O.3     1  UNL1       -0.3112
      5 C          20.7520   70.3993   -3.4578 C.3     1  UNL1        0.1811
      6 O          19.0183   71.6883   -4.5115 O.3     1  UNL1       -0.3308
      7 O          17.1906   70.6205   -2.3877 O.3     1  UNL1       -0.3794
      8 O          16.5833   69.0569   -4.5377 O.3     1  UNL1       -0.3779
      9 C          18.2763   69.9753   -3.0535 C.3     1  UNL1        0.1713
     10 C          17.8808   69.6104   -4.4687 C.3     1  UNL1        0.1895
     11 C          19.3679   71.0112   -3.2848 C.3     1  UNL1        0.1764
     12 C          17.9842   70.9487   -5.1801 C.3     1  UNL1        0.2383
     13 H          16.4806   69.9783   -2.2290 H       1  UNL1        0.2105
     14 H          16.5695   68.2062   -4.0707 H       1  UNL1        0.2106
     15 O          16.1236   70.4794   -7.2524 O.2     1  UNL1       -0.2464
     16 O          19.4336   70.4233  -10.4594 O.2     1  UNL1       -0.2670
     17 N          18.3325   70.8074   -6.5656 N.ar    1  UNL1       -0.2551
     18 N          17.7740   70.4509   -8.8475 N.ar    1  UNL1       -0.2743
     19 C          17.3213   70.5734   -7.5273 C.ar    1  UNL1        0.3323
     20 C          19.6616   70.9023   -6.9598 C.ar    1  UNL1        0.0869
     21 C          20.0778   70.7834   -8.2221 C.ar    1  UNL1        0.0795
     22 C          19.0848   70.5371   -9.2882 C.ar    1  UNL1        0.2626
     23 H          17.0885   70.2857   -9.5346 H       1  UNL1        0.1734
     24 O          20.5222   71.6322   -0.8764 O.3     1  UNL1       -0.2703
     25 P          20.7853   73.1868   -0.5193 P.3     1  UNL1        0.2208
     26 O          19.3116   73.8469   -0.6327 O.co2   1  UNL1       -0.4371
     27 O          21.8264   73.8477   -1.3755 O.2     1  UNL1       -0.5170
     28 O          21.1142   73.1940    1.0600 O.3     1  UNL1       -0.2858
     29 O          20.3405   74.5678    2.8273 O.3     1  UNL1       -0.3226
     30 O          24.2472   73.8540    3.9658 O.3     1  UNL1       -0.3794
     31 O          23.6002   74.4357    1.1770 O.3     1  UNL1       -0.3775
     32 O          22.0639   72.4685    5.2941 O.3     1  UNL1       -0.3792
     33 C          22.9926   73.5542    3.3541 C.3     1  UNL1        0.1718
     34 C          22.6952   74.5850    2.2648 C.3     1  UNL1        0.1968
     35 C          21.9145   73.6004    4.4392 C.3     1  UNL1        0.1723
     36 C          21.2642   74.4355    1.7463 C.3     1  UNL1        0.2706
     37 C          20.5138   73.5733    3.8343 C.3     1  UNL1        0.1830
     38 H          24.9479   73.8305    3.2951 H       1  UNL1        0.2105
     39 H          24.5102   74.5292    1.4989 H       1  UNL1        0.2106
     40 H          22.9514   72.4737    5.6855 H       1  UNL1        0.2106
     41 O          19.9567   73.7251    6.1077 O.co2   1  UNL1       -0.5466
     42 O          18.3787   74.3929    4.6032 O.co2   1  UNL1       -0.5466
     43 C          19.4881   73.9466    4.8545 C.2     1  UNL1        0.0799
@<TRIPOS>UNITY_ATOM_ATTR
2 1
charge -1
26 1
charge -1
41 1
charge -1
@<TRIPOS>BOND
     1     1     4    1
     2     1    24    1
     3     1     2    1
     4     1     3    2
     5    25    28    1
     6    25    24    1
     7    25    26    1
     8    25    27    2
     9     6    11    1
    10     6    12    1
    11    29    36    1
    12    29    37    1
    13     7     9    1
    14     7    13    1
    15     8    10    1
    16     8    14    1
    17     4     5    1
    18    28    36    1
    19    30    33    1
    20    30    38    1
    21    31    34    1
    22    31    39    1
    23    32    35    1
    24    32    40    1
    25    41    43   ar
    26    15    19    2
    27    42    43   ar
    28    16    22    2
    29    17    12    1
    30    17    19   ar
    31    17    20   ar
    32    18    19   ar
    33    18    22   ar
    34    18    23    1
    35     9    10    1
    36     9    11    1
    37    10    12    1
    38    11     5    1
    39    33    34    1
    40    33    35    1
    41    34    36    1
    42    35    37    1
    43    37    43    1
    44    20    21   ar
    45    21    22   ar
@<TRIPOS>MOLECULE
*****
 43 45 0 0 0
SMALL
GASTEIGER

@<TRIPOS>ATOM
      1 P          22.3278   72.4587   -2.7013 P.3     1  UNL1        0.2189
      2 O          22.8347   71.3619   -1.6247 O.co2   1  UNL1       -0.4371
      3 O          21.3956   73.4996   -2.1542 O.2     1  UNL1       -0.5170
      4 O          21.7477   71.5671   -3.9205 O.3     1  UNL1       -0.3112
      5 C          20.8646   70.5023   -3.6190 C.3     1  UNL1        0.1811
      6 O          19.0557   71.7442   -4.6005 O.3     1  UNL1       -0.3308
      7 O          17.3343   70.5916   -2.4325 O.3     1  UNL1       -0.3794
      8 O          16.7099   69.0329   -4.5812 O.3     1  UNL1       -0.3779
      9 C          18.4187   69.9908   -3.1408 C.3     1  UNL1        0.1713
     10 C          17.9898   69.6289   -4.5470 C.3     1  UNL1        0.1895
     11 C          19.4672   71.0654   -3.3941 C.3     1  UNL1        0.1764
     12 C          18.0256   70.9779   -5.2447 C.3     1  UNL1        0.2383
     13 H          16.6516   69.9242   -2.2592 H       1  UNL1        0.2105
     14 H          16.7395   68.1770   -4.1246 H       1  UNL1        0.2106
     15 O          16.1251   70.4084   -7.2547 O.2     1  UNL1       -0.2464
     16 O          19.3189   70.5644  -10.5742 O.2     1  UNL1       -0.2670
     17 N          18.3332   70.8641   -6.6423 N.ar    1  UNL1       -0.2551
     18 N          17.7178   70.4857   -8.9060 N.ar    1  UNL1       -0.2743
     19 C          17.3048   70.5748   -7.5701 C.ar    1  UNL1        0.3323
     20 C          19.6398   71.0397   -7.0814 C.ar    1  UNL1        0.0869
     21 C          20.0181   70.9518   -8.3581 C.ar    1  UNL1        0.0795
     22 C          19.0049   70.6518   -9.3910 C.ar    1  UNL1        0.2626
     23 H          17.0198   70.2831   -9.5701 H       1  UNL1        0.1734
     24 O          23.7099   73.0421   -3.3032 O.3     1  UNL1       -0.2703
     25 P          24.1569   74.5537   -3.6620 P.3     1  UNL1        0.2208
     26 O          25.7123   74.3901   -4.0796 O.co2   1  UNL1       -0.4371
     27 O          23.9130   75.5456   -2.5617 O.2     1  UNL1       -0.5170
     28 O          23.3970   74.8878   -5.0452 O.3     1  UNL1       -0.2858
     29 O          24.1048   75.9041   -7.0640 O.3     1  UNL1       -0.3226
     30 O          20.2449   77.3340   -6.7113 O.3     1  UNL1       -0.3794
     31 O          21.9907   77.1916   -4.3733 O.3     1  UNL1       -0.3775
     32 O          20.8511   75.2245   -8.6175 O.3     1  UNL1       -0.3792
     33 C          21.3036   76.3889   -6.5573 C.3     1  UNL1        0.1718
     34 C          22.4218   77.0055   -5.7165 C.3     1  UNL1        0.1968
     35 C          21.8226   76.0287   -7.9511 C.3     1  UNL1        0.1723
     36 C          23.6650   76.1147   -5.7217 C.3     1  UNL1        0.2706
     37 C          23.1316   75.2483   -7.8738 C.3     1  UNL1        0.1830
     38 H          19.8993   77.5778   -5.8382 H       1  UNL1        0.2105
     39 H          21.2020   77.7556   -4.3625 H       1  UNL1        0.2106
     40 H          20.0130   75.7096   -8.6732 H       1  UNL1        0.2106
     41 O          23.3012   74.1591   -9.9441 O.co2   1  UNL1       -0.5466
     42 O          24.6583   75.9592   -9.6016 O.co2   1  UNL1       -0.5466
     43 C          23.7936   75.1888   -9.2119 C.2     1  UNL1        0.0799
@<TRIPOS>UNITY_ATOM_ATTR
2 1
charge -1
26 1
charge -1
41 1
charge -1
@<TRIPOS>BOND
     1     1     4    1
     2     1    24    1
     3     1     2    1
     4     1     3    2
     5    25    28    1
     6    25    24    1
     7    25    26    1
     8    25    27    2
     9     6    11    1
    10     6    12    1
    11    29    36    1
    12    29    37    1
    13     7     9    1
    14     7    13    1
    15     8    10    1
    16     8    14    1
    17     4     5    1
    18    28    36    1
    19    30    33    1
    20    30    38    1
    21    31    34    1
    22    31    39    1
    23    32    35    1
    24    32    40    1
    25    41    43   ar
    26    15    19    2
    27    42    43   ar
    28    16    22    2
    29    17    12    1
    30    17    19   ar
    31    17    20   ar
    32    18    19   ar
    33    18    22   ar
    34    18    23    1
    35     9    10    1
    36     9    11    1
    37    10    12    1
    38    11     5    1
    39    33    34    1
    40    33    35    1
    41    34    36    1
    42    35    37    1
    43    37    43    1
    44    20    21   ar
    45    21    22   ar
@<TRIPOS>MOLECULE
*****
 43 45 0 0 0
SMALL
GASTEIGER

@<TRIPOS>ATOM
      1 P          22.8178   72.0815   -3.1908 P.3     1  UNL1        0.2189
      2 O          23.4474   70.5910   -3.2182 O.co2   1  UNL1       -0.4371
      3 O          23.8190   73.1943   -3.2967 O.2     1  UNL1       -0.5170
      4 O          21.8964   72.0897   -1.8608 O.3     1  UNL1       -0.3112
      5 C          22.1051   73.1083   -0.8999 C.3     1  UNL1        0.1811
      6 O          21.1551   72.9679    1.3036 O.3     1  UNL1       -0.3308
      7 O          18.9121   74.6509    0.2416 O.3     1  UNL1       -0.3794
      8 O          20.4266   76.4657    1.6014 O.3     1  UNL1       -0.3779
      9 C          20.3050   74.7019   -0.0679 C.3     1  UNL1        0.1713
     10 C          21.0740   75.3250    1.0778 C.3     1  UNL1        0.1895
     11 C          20.8380   73.2757   -0.0712 C.3     1  UNL1        0.1764
     12 C          21.1381   74.1800    2.0742 C.3     1  UNL1        0.2383
     13 H          18.5491   75.5508    0.2495 H       1  UNL1        0.2105
     14 H          20.4117   77.1659    0.9295 H       1  UNL1        0.2106
     15 O          21.2753   73.2428    4.7349 O.2     1  UNL1       -0.2464
     16 O          25.7144   74.4235    5.1150 O.2     1  UNL1       -0.2670
     17 N          22.3172   74.2303    2.8916 N.ar    1  UNL1       -0.2551
     18 N          23.4858   73.8327    4.9220 N.ar    1  UNL1       -0.2743
     19 C          22.2799   73.7327    4.2156 C.ar    1  UNL1        0.3323
     20 C          23.4932   74.7658    2.3804 C.ar    1  UNL1        0.0869
     21 C          24.6347   74.8542    3.0658 C.ar    1  UNL1        0.0795
     22 C          24.6806   74.3578    4.4568 C.ar    1  UNL1        0.2626
     23 H          23.4838   73.4947    5.8467 H       1  UNL1        0.1734
     24 O          21.7303   72.0382   -4.3860 O.3     1  UNL1       -0.2703
     25 P          21.4120   73.0918   -5.5701 P.3     1  UNL1        0.2208
     26 O          22.6461   72.8794   -6.5959 O.co2   1  UNL1       -0.4371
     27 O          21.2326   74.5073   -5.1031 O.2     1  UNL1       -0.5170
     28 O          20.1345   72.4727   -6.3364 O.3     1  UNL1       -0.2858
     29 O          19.0579   70.3890   -6.0070 O.3     1  UNL1       -0.3226
     30 O          18.4434   71.0242  -10.0427 O.3     1  UNL1       -0.3794
     31 O          21.0321   71.6204   -8.8271 O.3     1  UNL1       -0.3775
     32 O          16.2686   71.4223   -8.1551 O.3     1  UNL1       -0.3792
     33 C          18.6207   71.3990   -8.6767 C.3     1  UNL1        0.1718
     34 C          19.9820   70.9075   -8.1838 C.3     1  UNL1        0.1968
     35 C          17.4960   70.7581   -7.8606 C.3     1  UNL1        0.1723
     36 C          20.1130   71.0861   -6.6706 C.3     1  UNL1        0.2706
     37 C          17.7627   70.8680   -6.3621 C.3     1  UNL1        0.1830
     38 H          19.1470   71.4200  -10.5808 H       1  UNL1        0.2105
     39 H          20.9549   71.5117   -9.7877 H       1  UNL1        0.2106
     40 H          16.0873   71.3598   -9.1059 H       1  UNL1        0.2106
     41 O          16.1531   69.1634   -6.4329 O.co2   1  UNL1       -0.5466
     42 O          16.7423   69.9528   -4.3765 O.co2   1  UNL1       -0.5466
     43 C          16.8501   69.9687   -5.5935 C.2     1  UNL1        0.0799
@<TRIPOS>UNITY_ATOM_ATTR
2 1
charge -1
26 1
charge -1
41 1
charge -1
@<TRIPOS>BOND
     1     1     4    1
     2     1    24    1
     3     1     2    1
     4     1     3    2
     5    25    28    1
     6    25    24    1
     7    25    26    1
     8    25    27    2
     9     6    11    1
    10     6    12    1
    11    29    36    1
    12    29    37    1
    13     7     9    1
    14     7    13    1
    15     8    10    1
    16     8    14    1
    17     4     5    1
    18    28    36    1
    19    30    33    1
    20    30    38    1
    21    31    34    1
    22    31    39    1
    23    32    35    1
    24    32    40    1
    25    41    43   ar
    26    15    19    2
    27    42    43   ar
    28    16    22    2
    29    17    12    1
    30    17    19   ar
    31    17    20   ar
    32    18    19   ar
    33    18    22   ar
    34    18    23    1
    35     9    10    1
    36     9    11    1
    37    10    12    1
    38    11     5    1
    39    33    34    1
    40    33    35    1
    41    34    36    1
    42    35    37    1
    43    37    43    1
    44    20    21   ar
    45    21    22   ar
@<TRIPOS>MOLECULE
*****
 43 45 0 0 0
SMALL
GASTEIGER

@<TRIPOS>ATOM
      1 P          19.9132   74.8686   -5.2821 P.3     1  UNL1        0.2189
      2 O          18.4967   75.1435   -4.5494 O.co2   1  UNL1       -0.4371
      3 O          20.6738   76.1014   -5.6737 O.2     1  UNL1       -0.5170
      4 O          19.5362   73.8618   -6.4913 O.3     1  UNL1       -0.3112
      5 C          20.5485   73.5051   -7.4146 C.3     1  UNL1        0.1811
      6 O          19.9083   71.2273   -7.8382 O.3     1  UNL1       -0.3308
      7 O          18.2968   72.3016  -10.1275 O.3     1  UNL1       -0.3794
      8 O          16.4063   71.9032   -8.2032 O.3     1  UNL1       -0.3779
      9 C          18.5395   72.8782   -8.8441 C.3     1  UNL1        0.1713
     10 C          17.7307   72.1594   -7.7851 C.3     1  UNL1        0.1895
     11 C          19.9675   72.5391   -8.4391 C.3     1  UNL1        0.1764
     12 C          18.5363   70.8875   -7.5822 C.3     1  UNL1        0.2383
     13 H          17.3902   72.5049  -10.4075 H       1  UNL1        0.2105
     14 H          15.9351   72.7439   -8.3181 H       1  UNL1        0.2106
     15 O          16.2659   69.5423   -6.5763 O.2     1  UNL1       -0.2464
     16 O          18.2152   68.9637   -2.4399 O.2     1  UNL1       -0.2670
     17 N          18.4237   70.3748   -6.2461 N.ar    1  UNL1       -0.2551
     18 N          17.2385   69.2563   -4.5168 N.ar    1  UNL1       -0.2743
     19 C          17.2396   69.7148   -5.8407 C.ar    1  UNL1        0.3323
     20 C          19.4783   70.5262   -5.3540 C.ar    1  UNL1        0.0869
     21 C          19.4626   70.0837   -4.0951 C.ar    1  UNL1        0.0795
     22 C          18.2624   69.3837   -3.5921 C.ar    1  UNL1        0.2626
     23 H          16.4240   68.7953   -4.2110 H       1  UNL1        0.1734
     24 O          20.6826   73.9069   -4.2351 O.3     1  UNL1       -0.2703
     25 P          21.6399   74.2554   -2.9798 P.3     1  UNL1        0.2208
     26 O          20.7717   75.3336   -2.1407 O.co2   1  UNL1       -0.4371
     27 O          23.0112   74.7304   -3.3643 O.2     1  UNL1       -0.5170
     28 O          21.6234   72.9231   -2.0703 O.3     1  UNL1       -0.2858
     29 O          23.2754   73.2124   -0.3981 O.3     1  UNL1       -0.3226
     30 O          21.7275   69.5092    0.5811 O.3     1  UNL1       -0.3794
     31 O          22.2320   70.2127   -2.2091 O.3     1  UNL1       -0.3775
     32 O          21.0179   71.8494    2.1531 O.3     1  UNL1       -0.3792
     33 C          21.6940   70.8423    0.0713 C.3     1  UNL1        0.1718
     34 C          22.6791   70.9706   -1.0909 C.3     1  UNL1        0.1968
     35 C          22.0831   71.7924    1.2061 C.3     1  UNL1        0.1723
     36 C          22.8407   72.4318   -1.5122 C.3     1  UNL1        0.2706
     37 C          22.3491   73.2021    0.6859 C.3     1  UNL1        0.1830
     38 H          21.4837   68.8875   -0.1227 H       1  UNL1        0.2105
     39 H          22.1270   69.2844   -1.9488 H       1  UNL1        0.2106
     40 H          20.8384   70.9584    2.4918 H       1  UNL1        0.2106
     41 O          23.6784   75.0779    1.1504 O.co2   1  UNL1       -0.5466
     42 O          23.0259   73.8007    2.9231 O.co2   1  UNL1       -0.5466
     43 C          23.0369   74.0292    1.7228 C.2     1  UNL1        0.0799
@<TRIPOS>UNITY_ATOM_ATTR
2 1
charge -1
26 1
charge -1
41 1
charge -1
@<TRIPOS>BOND
     1     1     4    1
     2     1    24    1
     3     1     2    1
     4     1     3    2
     5    25    28    1
     6    25    24    1
     7    25    26    1
     8    25    27    2
     9     6    11    1
    10     6    12    1
    11    29    36    1
    12    29    37    1
    13     7     9    1
    14     7    13    1
    15     8    10    1
    16     8    14    1
    17     4     5    1
    18    28    36    1
    19    30    33    1
    20    30    38    1
    21    31    34    1
    22    31    39    1
    23    32    35    1
    24    32    40    1
    25    41    43   ar
    26    15    19    2
    27    42    43   ar
    28    16    22    2
    29    17    12    1
    30    17    19   ar
    31    17    20   ar
    32    18    19   ar
    33    18    22   ar
    34    18    23    1
    35     9    10    1
    36     9    11    1
    37    10    12    1
    38    11     5    1
    39    33    34    1
    40    33    35    1
    41    34    36    1
    42    35    37    1
    43    37    43    1
    44    20    21   ar
    45    21    22   ar
@<TRIPOS>MOLECULE
*****
 43 45 0 0 0
SMALL
GASTEIGER

@<TRIPOS>ATOM
      1 P          23.2607   74.4217   -4.2877 P.3     1  UNL1        0.2189
      2 O          23.5086   72.8290   -4.1436 O.co2   1  UNL1       -0.4371
      3 O          24.4202   75.1957   -4.8428 O.2     1  UNL1       -0.5170
      4 O          22.7554   74.8708   -2.8177 O.3     1  UNL1       -0.3112
      5 C          23.6544   75.5729   -1.9790 C.3     1  UNL1        0.1811
      6 O          22.0305   74.9800   -0.3088 O.3     1  UNL1       -0.3308
      7 O          23.1540   77.2351    1.3172 O.3     1  UNL1       -0.3794
      8 O          24.3178   75.0452    2.4513 O.3     1  UNL1       -0.3779
      9 C          23.8271   76.3275    0.4445 C.3     1  UNL1        0.1713
     10 C          23.9407   74.9640    1.0927 C.3     1  UNL1        0.1895
     11 C          22.9091   76.0433   -0.7365 C.3     1  UNL1        0.1764
     12 C          22.5389   74.4087    0.9071 C.3     1  UNL1        0.2383
     13 H          23.7211   77.4317    2.0797 H       1  UNL1        0.2105
     14 H          25.2172   75.4041    2.5163 H       1  UNL1        0.2106
     15 O          22.4195   72.6321    3.0994 O.2     1  UNL1       -0.2464
     16 O          22.4995   68.9379    0.3443 O.2     1  UNL1       -0.2670
     17 N          22.5272   72.9778    0.7913 N.ar    1  UNL1       -0.2551
     18 N          22.4605   70.7939    1.7252 N.ar    1  UNL1       -0.2743
     19 C          22.4656   72.1759    1.9554 C.ar    1  UNL1        0.3323
     20 C          22.5746   72.3832   -0.4638 C.ar    1  UNL1        0.0869
     21 C          22.5688   71.0643   -0.6673 C.ar    1  UNL1        0.0795
     22 C          22.5069   70.1557    0.4963 C.ar    1  UNL1        0.2626
     23 H          22.4201   70.2151    2.5206 H       1  UNL1        0.1734
     24 O          21.9120   74.5002   -5.1752 O.3     1  UNL1       -0.2703
     25 P          21.5391   73.8345   -6.6006 P.3     1  UNL1        0.2208
     26 O          22.6579   72.6774   -6.7724 O.co2   1  UNL1       -0.4371
     27 O          21.4794   74.8110   -7.7394 O.2     1  UNL1       -0.5170
     28 O          20.1641   73.0348   -6.3316 O.3     1  UNL1       -0.2858
     29 O          19.5455   70.7626   -6.0798 O.3     1  UNL1       -0.3226
     30 O          16.4755   72.2139   -8.4328 O.3     1  UNL1       -0.3794
     31 O          19.2401   73.0004   -8.9548 O.3     1  UNL1       -0.3775
     32 O          16.0326   71.7090   -5.6044 O.3     1  UNL1       -0.3792
     33 C          17.4936   72.2772   -7.4341 C.3     1  UNL1        0.1718
     34 C          18.8498   71.9608   -8.0651 C.3     1  UNL1        0.1968
     35 C          17.1579   71.2496   -6.3508 C.3     1  UNL1        0.1723
     36 C          19.9266   71.7931   -6.9922 C.3     1  UNL1        0.2706
     37 C          18.3286   71.0470   -5.3933 C.3     1  UNL1        0.1830
     38 H          16.6677   72.8584   -9.1320 H       1  UNL1        0.2105
     39 H          18.5612   73.1125   -9.6381 H       1  UNL1        0.2106
     40 H          15.2805   71.8421   -6.2023 H       1  UNL1        0.2106
     41 O          16.8077   69.5045   -4.4938 O.co2   1  UNL1       -0.5466
     42 O          19.0128   69.1998   -4.0000 O.co2   1  UNL1       -0.5466
     43 C          18.1233   69.8273   -4.5551 C.2     1  UNL1        0.0799
@<TRIPOS>UNITY_ATOM_ATTR
2 1
charge -1
26 1
charge -1
41 1
charge -1
@<TRIPOS>BOND
     1     1     4    1
     2     1    24    1
     3     1     2    1
     4     1     3    2
     5    25    28    1
     6    25    24    1
     7    25    26    1
     8    25    27    2
     9     6    11    1
    10     6    12    1
    11    29    36    1
    12    29    37    1
    13     7     9    1
    14     7    13    1
    15     8    10    1
    16     8    14    1
    17     4     5    1
    18    28    36    1
    19    30    33    1
    20    30    38    1
    21    31    34    1
    22    31    39    1
    23    32    35    1
    24    32    40    1
    25    41    43   ar
    26    15    19    2
    27    42    43   ar
    28    16    22    2
    29    17    12    1
    30    17    19   ar
    31    17    20   ar
    32    18    19   ar
    33    18    22   ar
    34    18    23    1
    35     9    10    1
    36     9    11    1
    37    10    12    1
    38    11     5    1
    39    33    34    1
    40    33    35    1
    41    34    36    1
    42    35    37    1
    43    37    43    1
    44    20    21   ar
    45    21    22   ar
@<TRIPOS>MOLECULE
*****
 43 45 0 0 0
SMALL
GASTEIGER

@<TRIPOS>ATOM
      1 P          21.7614   72.9151   -5.0532 P.3     1  UNL1        0.2189
      2 O          21.0560   74.3694   -4.9743 O.co2   1  UNL1       -0.4371
      3 O          23.2522   72.9424   -5.2228 O.2     1  UNL1       -0.5170
      4 O          20.9364   72.1455   -6.2130 O.3     1  UNL1       -0.3112
      5 C          21.2097   72.4675   -7.5643 C.3     1  UNL1        0.1811
      6 O          19.3968   70.8902   -7.6212 O.3     1  UNL1       -0.3308
      7 O          18.9226   71.8190  -10.4326 O.3     1  UNL1       -0.3794
      8 O          16.9999   73.1525   -9.0322 O.3     1  UNL1       -0.3779
      9 C          19.3456   72.5677   -9.2928 C.3     1  UNL1        0.1713
     10 C          18.1819   72.7893   -8.3499 C.3     1  UNL1        0.1895
     11 C          20.2638   71.6810   -8.4628 C.3     1  UNL1        0.1764
     12 C          18.0697   71.4382   -7.6644 C.3     1  UNL1        0.2383
     13 H          18.3346   72.3650  -10.9784 H       1  UNL1        0.2105
     14 H          17.1219   74.0194   -9.4512 H       1  UNL1        0.2106
     15 O          15.6144   72.6532   -6.9774 O.2     1  UNL1       -0.2464
     16 O          16.2308   71.7857   -2.4928 O.2     1  UNL1       -0.2670
     17 N          17.5642   71.5436   -6.3249 N.ar    1  UNL1       -0.2551
     18 N          15.9243   72.2209   -4.7444 N.ar    1  UNL1       -0.2743
     19 C          16.3194   72.1732   -6.0878 C.ar    1  UNL1        0.3323
     20 C          18.2974   71.0257   -5.2642 C.ar    1  UNL1        0.0869
     21 C          17.9076   71.0786   -3.9890 C.ar    1  UNL1        0.0795
     22 C          16.6192   71.7206   -3.6552 C.ar    1  UNL1        0.2626
     23 H          15.0620   72.6563   -4.5542 H       1  UNL1        0.1734
     24 O          21.2506   72.1901   -3.7018 O.3     1  UNL1       -0.2703
     25 P          21.7119   70.8094   -2.9986 P.3     1  UNL1        0.2208
     26 O          23.3137   70.7929   -3.2314 O.co2   1  UNL1       -0.4371
     27 O          21.0001   69.5903   -3.5095 O.2     1  UNL1       -0.5170
     28 O          21.5330   71.0757   -1.4176 O.3     1  UNL1       -0.2858
     29 O          23.1209   72.6767   -0.6934 O.3     1  UNL1       -0.3226
     30 O          21.2456   71.6890    2.8529 O.3     1  UNL1       -0.3794
     31 O          21.9355   69.6148    0.9148 O.3     1  UNL1       -0.3775
     32 O          20.6456   74.2113    1.5382 O.3     1  UNL1       -0.3792
     33 C          21.3400   71.9061    1.4451 C.3     1  UNL1        0.1718
     34 C          22.3862   70.9629    0.8507 C.3     1  UNL1        0.1968
     35 C          21.7470   73.3637    1.2176 C.3     1  UNL1        0.1723
     36 C          22.6806   71.3209   -0.6066 C.3     1  UNL1        0.2706
     37 C          22.1461   73.6105   -0.2344 C.3     1  UNL1        0.1830
     38 H          20.9881   70.7689    3.0218 H       1  UNL1        0.2105
     39 H          21.7466   69.3809    1.8367 H       1  UNL1        0.2106
     40 H          20.3816   74.0639    2.4598 H       1  UNL1        0.2106
     41 O          23.1190   75.1812   -1.6794 O.co2   1  UNL1       -0.5466
     42 O          23.1336   75.6681    0.5481 O.co2   1  UNL1       -0.5466
     43 C          22.8458   74.9230   -0.3765 C.2     1  UNL1        0.0799
@<TRIPOS>UNITY_ATOM_ATTR
2 1
charge -1
26 1
charge -1
41 1
charge -1
@<TRIPOS>BOND
     1     1     4    1
     2     1    24    1
     3     1     2    1
     4     1     3    2
     5    25    28    1
     6    25    24    1
     7    25    26    1
     8    25    27    2
     9     6    11    1
    10     6    12    1
    11    29    36    1
    12    29    37    1
    13     7     9    1
    14     7    13    1
    15     8    10    1
    16     8    14    1
    17     4     5    1
    18    28    36    1
    19    30    33    1
    20    30    38    1
    21    31    34    1
    22    31    39    1
    23    32    35    1
    24    32    40    1
    25    41    43   ar
    26    15    19    2
    27    42    43   ar
    28    16    22    2
    29    17    12    1
    30    17    19   ar
    31    17    20   ar
    32    18    19   ar
    33    18    22   ar
    34    18    23    1
    35     9    10    1
    36     9    11    1
    37    10    12    1
    38    11     5    1
    39    33    34    1
    40    33    35    1
    41    34    36    1
    42    35    37    1
    43    37    43    1
    44    20    21   ar
    45    21    22   ar
@<TRIPOS>MOLECULE
*****
 43 45 0 0 0
SMALL
GASTEIGER

@<TRIPOS>ATOM
      1 P          17.2607   71.6075   -3.9676 P.3     1  UNL1        0.2189
      2 O          17.4800   70.5178   -2.7915 O.co2   1  UNL1       -0.4371
      3 O          16.2144   72.6449   -3.6831 O.2     1  UNL1       -0.5170
      4 O          17.0170   70.7080   -5.2902 O.3     1  UNL1       -0.3112
      5 C          18.1035   70.4949   -6.1726 C.3     1  UNL1        0.1811
      6 O          16.4960   71.5301   -7.6294 O.3     1  UNL1       -0.3308
      7 O          18.3139   70.7509   -9.8832 O.3     1  UNL1       -0.3794
      8 O          18.8921   73.3933   -9.5376 O.3     1  UNL1       -0.3779
      9 C          18.6450   71.1798   -8.5622 C.3     1  UNL1        0.1713
     10 C          18.4159   72.6698   -8.4221 C.3     1  UNL1        0.1895
     11 C          17.6060   70.6067   -7.6080 C.3     1  UNL1        0.1764
     12 C          16.9055   72.7446   -8.2780 C.3     1  UNL1        0.2383
     13 H          18.9639   71.1048  -10.5108 H       1  UNL1        0.2105
     14 H          19.8583   73.3148   -9.5855 H       1  UNL1        0.2106
     15 O          14.3628   73.9615   -8.4533 O.2     1  UNL1       -0.2464
     16 O          15.4039   77.0309   -5.1763 O.2     1  UNL1       -0.2670
     17 N          16.4856   73.8633   -7.4823 N.ar    1  UNL1       -0.2551
     18 N          14.8841   75.4897   -6.8217 N.ar    1  UNL1       -0.2743
     19 C          15.1869   74.3999   -7.6485 C.ar    1  UNL1        0.3323
     20 C          17.3546   74.4160   -6.5495 C.ar    1  UNL1        0.0869
     21 C          17.0517   75.4547   -5.7684 C.ar    1  UNL1        0.0795
     22 C          15.7150   76.0747   -5.8799 C.ar    1  UNL1        0.2626
     23 H          13.9864   75.8816   -6.9207 H       1  UNL1        0.1734
     24 O          18.7481   72.1970   -4.1980 O.3     1  UNL1       -0.2703
     25 P          20.1153   71.9848   -3.3616 P.3     1  UNL1        0.2208
     26 O          21.2485   72.5923   -4.3451 O.co2   1  UNL1       -0.4371
     27 O          20.3623   70.5668   -2.9349 O.2     1  UNL1       -0.5170
     28 O          20.0205   73.0425   -2.1473 O.3     1  UNL1       -0.2858
     29 O          21.6290   72.2503   -0.6000 O.3     1  UNL1       -0.3226
     30 O          23.9712   73.0655   -3.9042 O.3     1  UNL1       -0.3794
     31 O          21.8503   74.9072   -3.1016 O.3     1  UNL1       -0.3775
     32 O          23.2993   70.3177   -3.2338 O.3     1  UNL1       -0.3792
     33 C          22.7865   72.6718   -3.2116 C.3     1  UNL1        0.1718
     34 C          22.3138   73.8161   -2.3147 C.3     1  UNL1        0.1968
     35 C          23.1190   71.4379   -2.3696 C.3     1  UNL1        0.1723
     36 C          21.1872   73.3558   -1.3887 C.3     1  UNL1        0.2706
     37 C          21.9990   71.1181   -1.3837 C.3     1  UNL1        0.1830
     38 H          23.7841   73.8481   -4.4461 H       1  UNL1        0.2105
     39 H          22.5601   75.2042   -3.6918 H       1  UNL1        0.2106
     40 H          24.0094   70.5084   -3.8665 H       1  UNL1        0.2106
     41 O          21.4210   69.7174    0.4067 O.co2   1  UNL1       -0.5466
     42 O          23.6133   69.7545   -0.2191 O.co2   1  UNL1       -0.5466
     43 C          22.4606   70.1357   -0.3570 C.2     1  UNL1        0.0799
@<TRIPOS>UNITY_ATOM_ATTR
2 1
charge -1
26 1
charge -1
41 1
charge -1
@<TRIPOS>BOND
     1     1     4    1
     2     1    24    1
     3     1     2    1
     4     1     3    2
     5    25    28    1
     6    25    24    1
     7    25    26    1
     8    25    27    2
     9     6    11    1
    10     6    12    1
    11    29    36    1
    12    29    37    1
    13     7     9    1
    14     7    13    1
    15     8    10    1
    16     8    14    1
    17     4     5    1
    18    28    36    1
    19    30    33    1
    20    30    38    1
    21    31    34    1
    22    31    39    1
    23    32    35    1
    24    32    40    1
    25    41    43   ar
    26    15    19    2
    27    42    43   ar
    28    16    22    2
    29    17    12    1
    30    17    19   ar
    31    17    20   ar
    32    18    19   ar
    33    18    22   ar
    34    18    23    1
    35     9    10    1
    36     9    11    1
    37    10    12    1
    38    11     5    1
    39    33    34    1
    40    33    35    1
    41    34    36    1
    42    35    37    1
    43    37    43    1
    44    20    21   ar
    45    21    22   ar
