@<TRIPOS>MOLECULE
UD1
 46 48 0 0 0
SMALL
GASTEIGER

@<TRIPOS>ATOM
      1 P          21.0093   71.8715   -2.1285 P.3     1  UNL1        0.2189
      2 O          21.6916   73.1825   -2.1956 O.2     1  UNL1       -0.5170
      3 O          22.0225   70.7142   -2.6045 O.3     1  UNL1       -0.4371
      4 O          19.7217   71.8871   -3.0952 O.3     1  UNL1       -0.3112
      5 C          18.7352   71.0542   -2.4840 C.3     1  UNL1        0.1811
      6 C          17.0625   70.6221   -5.6372 C.3     1  UNL1        0.2383
      7 C          17.1009   69.2015   -5.0203 C.3     1  UNL1        0.1895
      8 O          15.9707   68.4335   -5.4349 O.3     1  UNL1       -0.3779
      9 C          17.0367   69.5046   -3.5007 C.3     1  UNL1        0.1713
     10 C          17.5064   70.9680   -3.3907 C.3     1  UNL1        0.1764
     11 O          17.8446   71.4115   -4.7159 O.3     1  UNL1       -0.3308
     12 O          15.6985   69.3643   -3.0187 O.3     1  UNL1       -0.3794
     13 H          16.0546   67.5644   -5.0188 H       1  UNL1        0.2106
     14 H          15.4423   68.4447   -3.1695 H       1  UNL1        0.2105
     15 N          17.6720   70.6273   -6.9676 N.ar    1  UNL1       -0.2551
     16 C          16.8989   70.4646   -8.0554 C.ar    1  UNL1        0.3323
     17 N          17.4319   70.4691   -9.2915 N.ar    1  UNL1       -0.2743
     18 C          18.7603   70.6287   -9.4582 C.ar    1  UNL1        0.2626
     19 C          19.5866   70.7949   -8.3214 C.ar    1  UNL1        0.0795
     20 C          19.0252   70.7918   -7.0933 C.ar    1  UNL1        0.0869
     21 O          15.6990   70.3196   -7.9213 O.2     1  UNL1       -0.2464
     22 O          19.2439   70.6280  -10.5751 O.2     1  UNL1       -0.2670
     23 H          16.8586   70.3552  -10.0652 H       1  UNL1        0.1734
     24 O          20.5409   71.5871   -0.6157 O.3     1  UNL1       -0.2703
     25 P          21.8690   71.2430    0.2253 P.3     1  UNL1        0.2208
     26 O          23.0157   71.1037   -0.6990 O.2     1  UNL1       -0.5170
     27 O          21.6553   69.8626    1.0260 O.3     1  UNL1       -0.4371
     28 O          22.1649   72.4289    1.2725 O.3     1  UNL1       -0.2865
     29 C          22.2830   71.8238    2.5613 C.3     1  UNL1        0.2611
     30 C          21.8287   72.8194    3.6302 C.3     1  UNL1        0.1582
     31 C          22.6966   74.0798    3.5425 C.3     1  UNL1        0.1625
     32 C          24.1701   73.6665    3.6206 C.3     1  UNL1        0.1686
     33 C          24.4486   72.6091    2.5503 C.3     1  UNL1        0.1760
     34 O          22.3828   74.9538    4.6284 O.3     1  UNL1       -0.3801
     35 O          24.9993   74.8079    3.3939 O.3     1  UNL1       -0.3794
     36 O          23.6418   71.4566    2.7898 O.3     1  UNL1       -0.3263
     37 H          22.9500   75.7314    4.5340 H       1  UNL1        0.2105
     38 H          25.9161   74.5034    3.4510 H       1  UNL1        0.2105
     39 C          20.1131   74.2671    2.6839 C.2     1  UNL1        0.2231
     40 C          18.6687   74.6313    2.4531 C.3     1  UNL1        0.0946
     41 N          20.4256   73.1733    3.4053 N.am    1  UNL1       -0.2994
     42 O          20.9943   74.9592    2.2207 O.2     1  UNL1       -0.2751
     43 H          19.7206   72.6194    3.7763 H       1  UNL1        0.1496
     44 C          25.9257   72.2131    2.5984 C.3     1  UNL1        0.1693
     45 O          26.0819   70.8903    2.0807 O.3     1  UNL1       -0.3794
     46 H          27.0243   70.6803    2.1292 H       1  UNL1        0.2105
@<TRIPOS>BOND
     1    29    30    1
     2    29    28    1
     3    29    36    1
     4    30    31    1
     5    30    41    1
     6    31    32    1
     7    31    34    1
     8    32    33    1
     9    32    35    1
    10    33    44    1
    11    33    36    1
    12    44    45    1
    13    39    40    1
    14    39    41   am
    15    39    42    2
    16    41    43    1
    17    28    25    1
    18    34    37    1
    19    35    38    1
    20    45    46    1
    21    15    16   ar
    22    15    20   ar
    23    15     6    1
    24    16    17   ar
    25    16    21    2
    26    17    18   ar
    27    17    23    1
    28    18    19   ar
    29    18    22    2
    30    19    20   ar
    31     6     7    1
    32     6    11    1
    33     7     8    1
    34     7     9    1
    35     8    13    1
    36     9    10    1
    37     9    12    1
    38    10    11    1
    39    10     5    1
    40    12    14    1
    41     5     4    1
    42     4     1    1
    43     1     2    2
    44     1     3    1
    45     1    24    1
    46    24    25    1
    47    25    26    2
    48    25    27    1
@<TRIPOS>MOLECULE
UD1
 46 48 0 0 0
SMALL
GASTEIGER

@<TRIPOS>ATOM
      1 P          20.7782   71.6469   -1.9585 P.3     1  UNL1        0.2189
      2 O          21.2567   73.0325   -1.7591 O.2     1  UNL1       -0.5170
      3 O          21.9791   70.7420   -2.5343 O.3     1  UNL1       -0.4371
      4 O          19.5571   71.6472   -3.0082 O.3     1  UNL1       -0.3112
      5 C          18.5366   70.8141   -2.4561 C.3     1  UNL1        0.1811
      6 C          16.9490   70.5264   -5.6693 C.3     1  UNL1        0.2383
      7 C          16.9389   69.0852   -5.1009 C.3     1  UNL1        0.1895
      8 O          15.8053   68.3571   -5.5741 O.3     1  UNL1       -0.3779
      9 C          16.8362   69.3380   -3.5742 C.3     1  UNL1        0.1713
     10 C          17.3336   70.7861   -3.4002 C.3     1  UNL1        0.1764
     11 O          17.7201   71.2665   -4.6991 O.3     1  UNL1       -0.3308
     12 O          15.4817   69.2114   -3.1360 O.3     1  UNL1       -0.3794
     13 H          15.8584   67.4727   -5.1860 H       1  UNL1        0.2106
     14 H          15.2106   68.3033   -3.3258 H       1  UNL1        0.2105
     15 N          17.5976   70.5630   -6.9806 N.ar    1  UNL1       -0.2551
     16 C          16.8503   70.4903   -8.0957 C.ar    1  UNL1        0.3323
     17 N          17.4196   70.5257   -9.3151 N.ar    1  UNL1       -0.2743
     18 C          18.7586   70.6259   -9.4372 C.ar    1  UNL1        0.2626
     19 C          19.5577   70.6972   -8.2714 C.ar    1  UNL1        0.0795
     20 C          18.9603   70.6650   -7.0609 C.ar    1  UNL1        0.0869
     21 O          15.6413   70.3997   -8.0020 O.2     1  UNL1       -0.2464
     22 O          19.2747   70.6531  -10.5392 O.2     1  UNL1       -0.2670
     23 H          16.8648   70.4769  -10.1089 H       1  UNL1        0.1734
     24 O          20.2773   71.0446   -0.5531 O.3     1  UNL1       -0.2703
     25 P          21.4587   71.2993    0.5093 P.3     1  UNL1        0.2208
     26 O          22.5516   72.0559   -0.1404 O.2     1  UNL1       -0.5170
     27 O          22.0237   69.8859    1.0339 O.3     1  UNL1       -0.4371
     28 O          20.8887   72.1436    1.7554 O.3     1  UNL1       -0.2865
     29 C          21.6445   73.3545    1.8160 C.3     1  UNL1        0.2611
     30 C          22.5885   73.3010    3.0185 C.3     1  UNL1        0.1582
     31 C          21.7625   73.1141    4.2962 C.3     1  UNL1        0.1625
     32 C          20.6943   74.2112    4.3542 C.3     1  UNL1        0.1686
     33 C          19.8911   74.1940    3.0519 C.3     1  UNL1        0.1760
     34 O          22.6168   73.2122    5.4372 O.3     1  UNL1       -0.3801
     35 O          19.8211   73.9701    5.4591 O.3     1  UNL1       -0.3794
     36 O          20.7557   74.4617    1.9486 O.3     1  UNL1       -0.3263
     37 H          22.0575   73.0886    6.2165 H       1  UNL1        0.2105
     38 H          19.1653   74.6818    5.4579 H       1  UNL1        0.2105
     39 C          24.7877   72.3999    2.4840 C.2     1  UNL1        0.2231
     40 C          25.7408   71.2429    2.3251 C.3     1  UNL1        0.0946
     41 N          23.5149   72.1775    2.8645 N.am    1  UNL1       -0.2994
     42 O          25.1665   73.5314    2.2687 O.2     1  UNL1       -0.2751
     43 H          23.2114   71.2720    3.0366 H       1  UNL1        0.1496
     44 C          18.8001   75.2650    3.1129 C.3     1  UNL1        0.1693
     45 O          19.3950   76.5589    2.9941 O.3     1  UNL1       -0.3794
     46 H          18.6752   77.2028    3.0375 H       1  UNL1        0.2105
@<TRIPOS>BOND
     1    29    30    1
     2    29    28    1
     3    29    36    1
     4    30    31    1
     5    30    41    1
     6    31    32    1
     7    31    34    1
     8    32    33    1
     9    32    35    1
    10    33    44    1
    11    33    36    1
    12    44    45    1
    13    39    40    1
    14    39    41   am
    15    39    42    2
    16    41    43    1
    17    28    25    1
    18    34    37    1
    19    35    38    1
    20    45    46    1
    21    15    16   ar
    22    15    20   ar
    23    15     6    1
    24    16    17   ar
    25    16    21    2
    26    17    18   ar
    27    17    23    1
    28    18    19   ar
    29    18    22    2
    30    19    20   ar
    31     6     7    1
    32     6    11    1
    33     7     8    1
    34     7     9    1
    35     8    13    1
    36     9    10    1
    37     9    12    1
    38    10    11    1
    39    10     5    1
    40    12    14    1
    41     5     4    1
    42     4     1    1
    43     1     2    2
    44     1     3    1
    45     1    24    1
    46    24    25    1
    47    25    26    2
    48    25    27    1
@<TRIPOS>MOLECULE
UD1
 46 48 0 0 0
SMALL
GASTEIGER

@<TRIPOS>ATOM
      1 P          20.8840   70.9870   -3.4665 P.3     1  UNL1        0.2189
      2 O          21.6803   71.4984   -4.6037 O.2     1  UNL1       -0.5170
      3 O          20.4066   69.4815   -3.7796 O.3     1  UNL1       -0.4371
      4 O          19.5927   71.9246   -3.2516 O.3     1  UNL1       -0.3112
      5 C          18.5979   71.1198   -2.6168 C.3     1  UNL1        0.1811
      6 C          17.0018   70.5399   -5.7860 C.3     1  UNL1        0.2383
      7 C          17.0594   69.1428   -5.1190 C.3     1  UNL1        0.1895
      8 O          15.9558   68.3347   -5.5290 O.3     1  UNL1       -0.3779
      9 C          16.9565   69.4967   -3.6125 C.3     1  UNL1        0.1713
     10 C          17.3907   70.9736   -3.5444 C.3     1  UNL1        0.1764
     11 O          17.7463   71.3788   -4.8773 O.3     1  UNL1       -0.3308
     12 O          15.6121   69.3420   -3.1529 O.3     1  UNL1       -0.3794
     13 H          16.0506   67.4828   -5.0811 H       1  UNL1        0.2106
     14 H          15.3800   68.4120   -3.2765 H       1  UNL1        0.2105
     15 N          17.6388   70.5133   -7.1032 N.ar    1  UNL1       -0.2551
     16 C          16.8777   70.5122   -8.2114 C.ar    1  UNL1        0.3323
     17 N          17.4365   70.4920   -9.4360 N.ar    1  UNL1       -0.2743
     18 C          18.7778   70.4629   -9.5704 C.ar    1  UNL1        0.2626
     19 C          19.5908   70.4576   -8.4120 C.ar    1  UNL1        0.0795
     20 C          19.0042   70.4837   -7.1961 C.ar    1  UNL1        0.0869
     21 O          15.6665   70.5384   -8.1065 O.2     1  UNL1       -0.2464
     22 O          19.2840   70.4397  -10.6770 O.2     1  UNL1       -0.2670
     23 H          16.8724   70.4964  -10.2246 H       1  UNL1        0.1734
     24 O          21.7839   70.9993   -2.1327 O.3     1  UNL1       -0.2703
     25 P          23.0824   71.8930   -2.4562 P.3     1  UNL1        0.2208
     26 O          22.7175   72.9674   -3.4055 O.2     1  UNL1       -0.5170
     27 O          24.2241   70.9650   -3.1101 O.3     1  UNL1       -0.4371
     28 O          23.6386   72.5462   -1.0944 O.3     1  UNL1       -0.2865
     29 C          22.5001   72.9744   -0.3449 C.3     1  UNL1        0.2611
     30 C          22.6510   74.4571   -0.0002 C.3     1  UNL1        0.1582
     31 C          23.9374   74.6551    0.8094 C.3     1  UNL1        0.1625
     32 C          23.9109   73.7055    2.0118 C.3     1  UNL1        0.1686
     33 C          23.6681   72.2788    1.5148 C.3     1  UNL1        0.1760
     34 O          24.0135   76.0073    1.2646 O.3     1  UNL1       -0.3801
     35 O          25.1630   73.7676    2.6974 O.3     1  UNL1       -0.3794
     36 O          22.4056   72.2071    0.8533 O.3     1  UNL1       -0.3263
     37 H          24.8357   76.0870    1.7674 H       1  UNL1        0.2105
     38 H          25.1033   73.1556    3.4448 H       1  UNL1        0.2105
     39 C          23.9190   75.6009   -1.7374 C.2     1  UNL1        0.2231
     40 C          23.9917   76.4096   -3.0075 C.3     1  UNL1        0.0946
     41 N          22.7222   75.2423   -1.2342 N.am    1  UNL1       -0.2994
     42 O          24.9381   75.2735   -1.1680 O.2     1  UNL1       -0.2751
     43 H          21.9064   75.5044   -1.6896 H       1  UNL1        0.1496
     44 C          23.6722   71.3177    2.7053 C.3     1  UNL1        0.1693
     45 O          23.0579   71.9496    3.8303 O.3     1  UNL1       -0.3794
     46 H          23.0813   71.3121    4.5566 H       1  UNL1        0.2105
@<TRIPOS>BOND
     1    29    30    1
     2    29    28    1
     3    29    36    1
     4    30    31    1
     5    30    41    1
     6    31    32    1
     7    31    34    1
     8    32    33    1
     9    32    35    1
    10    33    44    1
    11    33    36    1
    12    44    45    1
    13    39    40    1
    14    39    41   am
    15    39    42    2
    16    41    43    1
    17    28    25    1
    18    34    37    1
    19    35    38    1
    20    45    46    1
    21    15    16   ar
    22    15    20   ar
    23    15     6    1
    24    16    17   ar
    25    16    21    2
    26    17    18   ar
    27    17    23    1
    28    18    19   ar
    29    18    22    2
    30    19    20   ar
    31     6     7    1
    32     6    11    1
    33     7     8    1
    34     7     9    1
    35     8    13    1
    36     9    10    1
    37     9    12    1
    38    10    11    1
    39    10     5    1
    40    12    14    1
    41     5     4    1
    42     4     1    1
    43     1     2    2
    44     1     3    1
    45     1    24    1
    46    24    25    1
    47    25    26    2
    48    25    27    1
@<TRIPOS>MOLECULE
UD1
 46 48 0 0 0
SMALL
GASTEIGER

@<TRIPOS>ATOM
      1 P          20.7151   71.7008   -2.1492 P.3     1  UNL1        0.2189
      2 O          21.3929   72.9938   -1.9095 O.2     1  UNL1       -0.5170
      3 O          21.6538   70.7638   -3.0621 O.3     1  UNL1       -0.4371
      4 O          19.3182   71.9603   -2.9071 O.3     1  UNL1       -0.3112
      5 C          18.4033   70.9679   -2.4398 C.3     1  UNL1        0.1811
      6 C          16.8839   70.5484   -5.6713 C.3     1  UNL1        0.2383
      7 C          16.9220   69.1203   -5.0720 C.3     1  UNL1        0.1895
      8 O          15.8269   68.3370   -5.5477 O.3     1  UNL1       -0.3779
      9 C          16.7831   69.4008   -3.5530 C.3     1  UNL1        0.1713
     10 C          17.2188   70.8712   -3.4025 C.3     1  UNL1        0.1764
     11 O          17.6078   71.3395   -4.7050 O.3     1  UNL1       -0.3308
     12 O          15.4274   69.2286   -3.1343 O.3     1  UNL1       -0.3794
     13 H          15.9088   67.4639   -5.1396 H       1  UNL1        0.2106
     14 H          15.1963   68.3065   -3.3087 H       1  UNL1        0.2105
     15 N          17.5528   70.5837   -6.9724 N.ar    1  UNL1       -0.2551
     16 C          16.8258   70.4792   -8.0984 C.ar    1  UNL1        0.3323
     17 N          17.4140   70.5125   -9.3088 N.ar    1  UNL1       -0.2743
     18 C          18.7522   70.6429   -9.4106 C.ar    1  UNL1        0.2626
     19 C          19.5302   70.7479   -8.2331 C.ar    1  UNL1        0.0795
     20 C          18.9139   70.7170   -7.0321 C.ar    1  UNL1        0.0869
     21 O          15.6179   70.3612   -8.0229 O.2     1  UNL1       -0.2464
     22 O          19.2855   70.6683  -10.5044 O.2     1  UNL1       -0.2670
     23 H          16.8737   70.4406  -10.1107 H       1  UNL1        0.1734
     24 O          20.4347   70.9728   -0.7420 O.3     1  UNL1       -0.2703
     25 P          21.7724   71.1316    0.1382 P.3     1  UNL1        0.2208
     26 O          22.9572   71.0203   -0.7408 O.2     1  UNL1       -0.5170
     27 O          21.8222   69.9721    1.2541 O.3     1  UNL1       -0.4371
     28 O          21.7735   72.5700    0.8605 O.3     1  UNL1       -0.2865
     29 C          20.7207   72.5497    1.8261 C.3     1  UNL1        0.2611
     30 C          19.8800   73.8197    1.6835 C.3     1  UNL1        0.1582
     31 C          20.7805   75.0427    1.8904 C.3     1  UNL1        0.1625
     32 C          21.5122   74.8919    3.2283 C.3     1  UNL1        0.1686
     33 C          22.2324   73.5421    3.2531 C.3     1  UNL1        0.1760
     34 O          19.9822   76.2276    1.9082 O.3     1  UNL1       -0.3801
     35 O          22.4653   75.9465    3.3733 O.3     1  UNL1       -0.3794
     36 O          21.2803   72.4855    3.1361 O.3     1  UNL1       -0.3263
     37 H          20.5875   76.9703    2.0399 H       1  UNL1        0.2105
     38 H          22.9025   75.8131    4.2262 H       1  UNL1        0.2105
     39 C          18.0258   74.3089    0.1812 C.2     1  UNL1        0.2231
     40 C          17.4163   74.3573   -1.1966 C.3     1  UNL1        0.0946
     41 N          19.2877   73.8673    0.3451 N.am    1  UNL1       -0.2994
     42 O          17.3798   74.6669    1.1428 O.2     1  UNL1       -0.2751
     43 H          19.8048   73.5806   -0.4243 H       1  UNL1        0.1496
     44 C          22.9932   73.3956    4.5725 C.3     1  UNL1        0.1693
     45 O          22.2032   72.6458    5.4976 O.3     1  UNL1       -0.3794
     46 H          22.7175   72.5770    6.3133 H       1  UNL1        0.2105
@<TRIPOS>BOND
     1    29    30    1
     2    29    28    1
     3    29    36    1
     4    30    31    1
     5    30    41    1
     6    31    32    1
     7    31    34    1
     8    32    33    1
     9    32    35    1
    10    33    44    1
    11    33    36    1
    12    44    45    1
    13    39    40    1
    14    39    41   am
    15    39    42    2
    16    41    43    1
    17    28    25    1
    18    34    37    1
    19    35    38    1
    20    45    46    1
    21    15    16   ar
    22    15    20   ar
    23    15     6    1
    24    16    17   ar
    25    16    21    2
    26    17    18   ar
    27    17    23    1
    28    18    19   ar
    29    18    22    2
    30    19    20   ar
    31     6     7    1
    32     6    11    1
    33     7     8    1
    34     7     9    1
    35     8    13    1
    36     9    10    1
    37     9    12    1
    38    10    11    1
    39    10     5    1
    40    12    14    1
    41     5     4    1
    42     4     1    1
    43     1     2    2
    44     1     3    1
    45     1    24    1
    46    24    25    1
    47    25    26    2
    48    25    27    1
@<TRIPOS>MOLECULE
UD1
 46 48 0 0 0
SMALL
GASTEIGER

@<TRIPOS>ATOM
      1 P          20.9637   70.8960   -3.5089 P.3     1  UNL1        0.2189
      2 O          21.9169   71.5256   -4.4490 O.2     1  UNL1       -0.5170
      3 O          20.4537   69.4959   -4.1191 O.3     1  UNL1       -0.4371
      4 O          19.7041   71.8743   -3.2872 O.3     1  UNL1       -0.3112
      5 C          18.6934   71.1058   -2.6328 C.3     1  UNL1        0.1811
      6 C          17.0333   70.5930   -5.7805 C.3     1  UNL1        0.2383
      7 C          17.0743   69.1877   -5.1298 C.3     1  UNL1        0.1895
      8 O          15.9481   68.4061   -5.5299 O.3     1  UNL1       -0.3779
      9 C          17.0037   69.5266   -3.6181 C.3     1  UNL1        0.1713
     10 C          17.4681   70.9938   -3.5413 C.3     1  UNL1        0.1764
     11 O          17.8094   71.4069   -4.8755 O.3     1  UNL1       -0.3308
     12 O          15.6644   69.3931   -3.1374 O.3     1  UNL1       -0.3794
     13 H          16.0336   67.5474   -5.0930 H       1  UNL1        0.2106
     14 H          15.4118   68.4693   -3.2672 H       1  UNL1        0.2105
     15 N          17.6474   70.5687   -7.1085 N.ar    1  UNL1       -0.2551
     16 C          16.8691   70.4778   -8.2010 C.ar    1  UNL1        0.3323
     17 N          17.4065   70.4573   -9.4351 N.ar    1  UNL1       -0.2743
     18 C          18.7439   70.5188   -9.5950 C.ar    1  UNL1        0.2626
     19 C          19.5753   70.6087   -8.4532 C.ar    1  UNL1        0.0795
     20 C          19.0096   70.6327   -7.2274 C.ar    1  UNL1        0.0869
     21 O          15.6612   70.4217   -8.0730 O.2     1  UNL1       -0.2464
     22 O          19.2310   70.4955  -10.7101 O.2     1  UNL1       -0.2670
     23 H          16.8298   70.3962  -10.2122 H       1  UNL1        0.1734
     24 O          21.6940   70.6339   -2.0994 O.3     1  UNL1       -0.2703
     25 P          22.9031   71.6909   -1.9987 P.3     1  UNL1        0.2208
     26 O          22.5282   72.9375   -2.7017 O.2     1  UNL1       -0.5170
     27 O          24.2210   71.0665   -2.6809 O.3     1  UNL1       -0.4371
     28 O          23.2048   72.0173   -0.4517 O.3     1  UNL1       -0.2865
     29 C          22.6171   70.9654    0.3160 C.3     1  UNL1        0.2611
     30 C          21.5361   71.5488    1.2277 C.3     1  UNL1        0.1582
     31 C          22.1688   72.6006    2.1459 C.3     1  UNL1        0.1625
     32 C          23.3601   71.9654    2.8709 C.3     1  UNL1        0.1686
     33 C          24.3052   71.3531    1.8348 C.3     1  UNL1        0.1760
     34 O          21.2039   73.0446    3.1015 O.3     1  UNL1       -0.3801
     35 O          24.0529   72.9660    3.6194 O.3     1  UNL1       -0.3794
     36 O          23.6242   70.3341    1.1038 O.3     1  UNL1       -0.3263
     37 H          21.6432   73.7036    3.6565 H       1  UNL1        0.2105
     38 H          24.7938   72.5243    4.0581 H       1  UNL1        0.2105
     39 C          20.5190   73.5006    0.1836 C.2     1  UNL1        0.2231
     40 C          19.4441   74.1433   -0.6553 C.3     1  UNL1        0.0946
     41 N          20.4924   72.1735    0.4124 N.am    1  UNL1       -0.2994
     42 O          21.4078   74.1785    0.6535 O.2     1  UNL1       -0.2751
     43 H          19.7811   71.6309    0.0367 H       1  UNL1        0.1496
     44 C          25.5149   70.7443    2.5468 C.3     1  UNL1        0.1693
     45 O          26.5613   71.7146    2.6230 O.3     1  UNL1       -0.3794
     46 H          27.3027   71.2915    3.0770 H       1  UNL1        0.2105
@<TRIPOS>BOND
     1    29    30    1
     2    29    28    1
     3    29    36    1
     4    30    31    1
     5    30    41    1
     6    31    32    1
     7    31    34    1
     8    32    33    1
     9    32    35    1
    10    33    44    1
    11    33    36    1
    12    44    45    1
    13    39    40    1
    14    39    41   am
    15    39    42    2
    16    41    43    1
    17    28    25    1
    18    34    37    1
    19    35    38    1
    20    45    46    1
    21    15    16   ar
    22    15    20   ar
    23    15     6    1
    24    16    17   ar
    25    16    21    2
    26    17    18   ar
    27    17    23    1
    28    18    19   ar
    29    18    22    2
    30    19    20   ar
    31     6     7    1
    32     6    11    1
    33     7     8    1
    34     7     9    1
    35     8    13    1
    36     9    10    1
    37     9    12    1
    38    10    11    1
    39    10     5    1
    40    12    14    1
    41     5     4    1
    42     4     1    1
    43     1     2    2
    44     1     3    1
    45     1    24    1
    46    24    25    1
    47    25    26    2
    48    25    27    1
@<TRIPOS>MOLECULE
UD1
 46 48 0 0 0
SMALL
GASTEIGER

@<TRIPOS>ATOM
      1 P          21.2214   71.5540   -2.4472 P.3     1  UNL1        0.2189
      2 O          21.6431   72.9701   -2.5217 O.2     1  UNL1       -0.5170
      3 O          21.4446   70.8514   -3.8787 O.3     1  UNL1       -0.4371
      4 O          19.6625   71.4790   -2.0510 O.3     1  UNL1       -0.3112
      5 C          19.1702   70.2311   -2.5418 C.3     1  UNL1        0.1811
      6 C          17.3115   70.4354   -5.6127 C.3     1  UNL1        0.2383
      7 C          17.0952   68.9813   -5.1241 C.3     1  UNL1        0.1895
      8 O          15.8188   68.4890   -5.5337 O.3     1  UNL1       -0.3779
      9 C          17.1573   69.1430   -3.5829 C.3     1  UNL1        0.1713
     10 C          17.9109   70.4710   -3.3759 C.3     1  UNL1        0.1764
     11 O          18.2727   70.9668   -4.6761 O.3     1  UNL1       -0.3308
     12 O          15.8397   69.2173   -3.0341 O.3     1  UNL1       -0.3794
     13 H          15.7473   67.5840   -5.2000 H       1  UNL1        0.2106
     14 H          15.4008   68.3831   -3.2478 H       1  UNL1        0.2105
     15 N          17.8524   70.4514   -6.9724 N.ar    1  UNL1       -0.2551
     16 C          17.0145   70.4202   -8.0232 C.ar    1  UNL1        0.3323
     17 N          17.4839   70.4378   -9.2848 N.ar    1  UNL1       -0.2743
     18 C          18.8117   70.4782   -9.5152 C.ar    1  UNL1        0.2626
     19 C          19.7053   70.5054   -8.4181 C.ar    1  UNL1        0.0795
     20 C          19.2073   70.4922   -7.1631 C.ar    1  UNL1        0.0869
     21 O          15.8142   70.3838   -7.8315 O.2     1  UNL1       -0.2464
     22 O          19.2374   70.4893  -10.6554 O.2     1  UNL1       -0.2670
     23 H          16.8648   70.4196  -10.0309 H       1  UNL1        0.1734
     24 O          22.0955   70.7916   -1.3321 O.3     1  UNL1       -0.2703
     25 P          21.6083   71.3443    0.0985 P.3     1  UNL1        0.2208
     26 O          21.2528   70.2047    0.9724 O.2     1  UNL1       -0.5170
     27 O          20.3199   72.2890   -0.1009 O.3     1  UNL1       -0.4371
     28 O          22.7941   72.1932    0.7795 O.3     1  UNL1       -0.2865
     29 C          22.3630   73.5549    0.8124 C.3     1  UNL1        0.2611
     30 C          23.5638   74.4708    0.5693 C.3     1  UNL1        0.1582
     31 C          24.6192   74.2111    1.6502 C.3     1  UNL1        0.1625
     32 C          23.9580   74.3539    3.0252 C.3     1  UNL1        0.1686
     33 C          22.7290   73.4443    3.0840 C.3     1  UNL1        0.1760
     34 O          25.6784   75.1617    1.5235 O.3     1  UNL1       -0.3801
     35 O          24.8853   73.9730    4.0433 O.3     1  UNL1       -0.3794
     36 O          21.7885   73.8395    2.0861 O.3     1  UNL1       -0.3263
     37 H          26.3181   74.9617    2.2207 H       1  UNL1        0.2105
     38 H          24.4290   74.0769    4.8904 H       1  UNL1        0.2105
     39 C          24.2891   75.1880   -1.6429 C.2     1  UNL1        0.2231
     40 C          24.8756   74.8998   -3.0013 C.3     1  UNL1        0.0946
     41 N          24.1340   74.1914   -0.7502 N.am    1  UNL1       -0.2994
     42 O          23.9561   76.3174   -1.3536 O.2     1  UNL1       -0.2751
     43 H          24.4002   73.2874   -0.9816 H       1  UNL1        0.1496
     44 C          22.0797   73.5550    4.4651 C.3     1  UNL1        0.1693
     45 O          22.4849   72.4477    5.2725 O.3     1  UNL1       -0.3794
     46 H          22.0546   72.5555    6.1315 H       1  UNL1        0.2105
@<TRIPOS>BOND
     1    29    30    1
     2    29    28    1
     3    29    36    1
     4    30    31    1
     5    30    41    1
     6    31    32    1
     7    31    34    1
     8    32    33    1
     9    32    35    1
    10    33    44    1
    11    33    36    1
    12    44    45    1
    13    39    40    1
    14    39    41   am
    15    39    42    2
    16    41    43    1
    17    28    25    1
    18    34    37    1
    19    35    38    1
    20    45    46    1
    21    15    16   ar
    22    15    20   ar
    23    15     6    1
    24    16    17   ar
    25    16    21    2
    26    17    18   ar
    27    17    23    1
    28    18    19   ar
    29    18    22    2
    30    19    20   ar
    31     6     7    1
    32     6    11    1
    33     7     8    1
    34     7     9    1
    35     8    13    1
    36     9    10    1
    37     9    12    1
    38    10    11    1
    39    10     5    1
    40    12    14    1
    41     5     4    1
    42     4     1    1
    43     1     2    2
    44     1     3    1
    45     1    24    1
    46    24    25    1
    47    25    26    2
    48    25    27    1
@<TRIPOS>MOLECULE
UD1
 46 48 0 0 0
SMALL
GASTEIGER

@<TRIPOS>ATOM
      1 P          22.0238   71.3378   -0.5482 P.3     1  UNL1        0.2189
      2 O          21.4253   72.6841   -0.4141 O.2     1  UNL1       -0.5170
      3 O          21.3185   70.3308    0.4916 O.3     1  UNL1       -0.4371
      4 O          23.6004   71.4179   -0.2307 O.3     1  UNL1       -0.3112
      5 C          23.7760   70.9614    1.1113 C.3     1  UNL1        0.1811
      6 C          25.7461   73.2000    3.1199 C.3     1  UNL1        0.2383
      7 C          25.6835   73.8796    1.7291 C.3     1  UNL1        0.1895
      8 O          25.7341   75.3014    1.8521 O.3     1  UNL1       -0.3779
      9 C          24.2992   73.4185    1.2034 C.3     1  UNL1        0.1713
     10 C          23.9820   72.1617    2.0365 C.3     1  UNL1        0.1764
     11 O          25.1056   71.9249    2.9018 O.3     1  UNL1       -0.3308
     12 O          23.3172   74.4334    1.4233 O.3     1  UNL1       -0.3794
     13 H          25.6919   75.6619    0.9556 H       1  UNL1        0.2106
     14 H          23.6025   75.2108    0.9249 H       1  UNL1        0.2105
     15 N          27.1339   73.0145    3.5454 N.ar    1  UNL1       -0.2551
     16 C          27.8078   71.9169    3.1601 C.ar    1  UNL1        0.3323
     17 N          29.0865   71.7221    3.5332 N.ar    1  UNL1       -0.2743
     18 C          29.7123   72.6270    4.3125 C.ar    1  UNL1        0.2626
     19 C          29.0127   73.7841    4.7303 C.ar    1  UNL1        0.0795
     20 C          27.7326   73.9571    4.3371 C.ar    1  UNL1        0.0869
     21 O          27.2570   71.0917    2.4571 O.2     1  UNL1       -0.2464
     22 O          30.8669   72.4496    4.6544 O.2     1  UNL1       -0.2670
     23 H          29.5589   70.9269    3.2421 H       1  UNL1        0.1734
     24 O          21.8055   70.8005   -2.0491 O.3     1  UNL1       -0.2703
     25 P          22.8998   71.5374   -2.9704 P.3     1  UNL1        0.2208
     26 O          24.1738   70.7871   -2.9185 O.2     1  UNL1       -0.5170
     27 O          23.1373   73.0349   -2.4290 O.3     1  UNL1       -0.4371
     28 O          22.3725   71.5950   -4.4900 O.3     1  UNL1       -0.2865
     29 C          21.1874   72.3928   -4.4876 C.3     1  UNL1        0.2611
     30 C          20.0500   71.6096   -5.1455 C.3     1  UNL1        0.1582
     31 C          20.4548   71.2464   -6.5786 C.3     1  UNL1        0.1625
     32 C          20.8727   72.5269   -7.3093 C.3     1  UNL1        0.1686
     33 C          21.9504   73.2395   -6.4894 C.3     1  UNL1        0.1760
     34 O          19.3465   70.6469   -7.2520 O.3     1  UNL1       -0.3801
     35 O          21.3925   72.1939   -8.5979 O.3     1  UNL1       -0.3794
     36 O          21.4259   73.5979   -5.2116 O.3     1  UNL1       -0.3263
     37 H          19.6449   70.4347   -8.1471 H       1  UNL1        0.2105
     38 H          21.6434   73.0268   -9.0220 H       1  UNL1        0.2105
     39 C          18.5269   69.9837   -4.1601 C.2     1  UNL1        0.2231
     40 C          18.2627   68.7243   -3.3750 C.3     1  UNL1        0.0946
     41 N          19.7928   70.3859   -4.3833 N.am    1  UNL1       -0.2994
     42 O          17.5995   70.6356   -4.5903 O.2     1  UNL1       -0.2751
     43 H          20.5352   69.8645   -4.0389 H       1  UNL1        0.1496
     44 C          22.3980   74.5033   -7.2267 C.3     1  UNL1        0.1693
     45 O          21.2640   75.1311   -7.8284 O.3     1  UNL1       -0.3794
     46 H          21.5890   75.9208   -8.2815 H       1  UNL1        0.2105
@<TRIPOS>BOND
     1    29    30    1
     2    29    28    1
     3    29    36    1
     4    30    31    1
     5    30    41    1
     6    31    32    1
     7    31    34    1
     8    32    33    1
     9    32    35    1
    10    33    44    1
    11    33    36    1
    12    44    45    1
    13    39    40    1
    14    39    41   am
    15    39    42    2
    16    41    43    1
    17    28    25    1
    18    34    37    1
    19    35    38    1
    20    45    46    1
    21    15    16   ar
    22    15    20   ar
    23    15     6    1
    24    16    17   ar
    25    16    21    2
    26    17    18   ar
    27    17    23    1
    28    18    19   ar
    29    18    22    2
    30    19    20   ar
    31     6     7    1
    32     6    11    1
    33     7     8    1
    34     7     9    1
    35     8    13    1
    36     9    10    1
    37     9    12    1
    38    10    11    1
    39    10     5    1
    40    12    14    1
    41     5     4    1
    42     4     1    1
    43     1     2    2
    44     1     3    1
    45     1    24    1
    46    24    25    1
    47    25    26    2
    48    25    27    1
@<TRIPOS>MOLECULE
UD1
 46 48 0 0 0
SMALL
GASTEIGER

@<TRIPOS>ATOM
      1 P          20.5684   71.0189   -1.8156 P.3     1  UNL1        0.2189
      2 O          20.7787   70.6000   -0.4123 O.2     1  UNL1       -0.5170
      3 O          20.4915   72.6255   -1.8904 O.3     1  UNL1       -0.4371
      4 O          19.1900   70.3907   -2.3616 O.3     1  UNL1       -0.3112
      5 C          18.2469   71.4612   -2.4331 C.3     1  UNL1        0.1811
      6 C          16.8993   70.5371   -5.6357 C.3     1  UNL1        0.2383
      7 C          17.1702   69.1876   -4.9246 C.3     1  UNL1        0.1895
      8 O          16.2388   68.1911   -5.3472 O.3     1  UNL1       -0.3779
      9 C          16.9492   69.5549   -3.4341 C.3     1  UNL1        0.1713
     10 C          17.1199   71.0859   -3.3966 C.3     1  UNL1        0.1764
     11 O          17.4524   71.5139   -4.7283 O.3     1  UNL1       -0.3308
     12 O          15.6345   69.1812   -3.0163 O.3     1  UNL1       -0.3794
     13 H          16.4611   67.3795   -4.8704 H       1  UNL1        0.2106
     14 H          15.5708   68.2223   -3.1192 H       1  UNL1        0.2105
     15 N          17.5823   70.5890   -6.9289 N.ar    1  UNL1       -0.2551
     16 C          16.8673   70.5011   -8.0640 C.ar    1  UNL1        0.3323
     17 N          17.4686   70.5499   -9.2675 N.ar    1  UNL1       -0.2743
     18 C          18.8080   70.6793   -9.3531 C.ar    1  UNL1        0.2626
     19 C          19.5734   70.7669   -8.1659 C.ar    1  UNL1        0.0795
     20 C          18.9441   70.7207   -6.9721 C.ar    1  UNL1        0.0869
     21 O          15.6585   70.3841   -8.0032 O.2     1  UNL1       -0.2464
     22 O          19.3532   70.7187  -10.4406 O.2     1  UNL1       -0.2670
     23 H          16.9369   70.4898  -10.0760 H       1  UNL1        0.1734
     24 O          21.7917   70.4964   -2.7208 O.3     1  UNL1       -0.2703
     25 P          23.0738   71.3859   -2.3278 P.3     1  UNL1        0.2208
     26 O          24.2841   70.8105   -2.9547 O.2     1  UNL1       -0.5170
     27 O          23.2517   71.3945   -0.7276 O.3     1  UNL1       -0.4371
     28 O          22.8635   72.8934   -2.8510 O.3     1  UNL1       -0.2865
     29 C          24.0080   73.2214   -3.6407 C.3     1  UNL1        0.2611
     30 C          24.3626   74.6943   -3.4286 C.3     1  UNL1        0.1582
     31 C          23.1631   75.5611   -3.8279 C.3     1  UNL1        0.1625
     32 C          22.7437   75.1903   -5.2543 C.3     1  UNL1        0.1686
     33 C          22.5082   73.6802   -5.3279 C.3     1  UNL1        0.1760
     34 O          23.5312   76.9407   -3.7769 O.3     1  UNL1       -0.3801
     35 O          21.5391   75.8803   -5.5929 O.3     1  UNL1       -0.3794
     36 O          23.7169   72.9881   -5.0170 O.3     1  UNL1       -0.3263
     37 H          22.7493   77.4482   -4.0343 H       1  UNL1        0.2105
     38 H          21.3109   75.6181   -6.4960 H       1  UNL1        0.2105
     39 C          23.7164   75.2837   -1.1550 C.2     1  UNL1        0.2231
     40 C          24.0489   75.5189    0.2964 C.3     1  UNL1        0.0946
     41 N          24.6850   74.9224   -2.0185 N.am    1  UNL1       -0.2994
     42 O          22.5768   75.4203   -1.5458 O.2     1  UNL1       -0.2751
     43 H          25.5971   74.8133   -1.7061 H       1  UNL1        0.1496
     44 C          22.0572   73.3038   -6.7407 C.3     1  UNL1        0.1693
     45 O          23.0107   72.4136   -7.3242 O.3     1  UNL1       -0.3794
     46 H          22.6897   72.2021   -8.2113 H       1  UNL1        0.2105
@<TRIPOS>BOND
     1    29    30    1
     2    29    28    1
     3    29    36    1
     4    30    31    1
     5    30    41    1
     6    31    32    1
     7    31    34    1
     8    32    33    1
     9    32    35    1
    10    33    44    1
    11    33    36    1
    12    44    45    1
    13    39    40    1
    14    39    41   am
    15    39    42    2
    16    41    43    1
    17    28    25    1
    18    34    37    1
    19    35    38    1
    20    45    46    1
    21    15    16   ar
    22    15    20   ar
    23    15     6    1
    24    16    17   ar
    25    16    21    2
    26    17    18   ar
    27    17    23    1
    28    18    19   ar
    29    18    22    2
    30    19    20   ar
    31     6     7    1
    32     6    11    1
    33     7     8    1
    34     7     9    1
    35     8    13    1
    36     9    10    1
    37     9    12    1
    38    10    11    1
    39    10     5    1
    40    12    14    1
    41     5     4    1
    42     4     1    1
    43     1     2    2
    44     1     3    1
    45     1    24    1
    46    24    25    1
    47    25    26    2
    48    25    27    1
@<TRIPOS>MOLECULE
UD1
 46 48 0 0 0
SMALL
GASTEIGER

@<TRIPOS>ATOM
      1 P          21.4328   71.2024   -0.0262 P.3     1  UNL1        0.2189
      2 O          20.7970   72.4174    0.5288 O.2     1  UNL1       -0.5170
      3 O          21.4923   70.0617    1.1086 O.3     1  UNL1       -0.4371
      4 O          22.9274   71.5535   -0.5116 O.3     1  UNL1       -0.3112
      5 C          23.8109   71.1251    0.5258 C.3     1  UNL1        0.1811
      6 C          25.5066   73.1782    2.9418 C.3     1  UNL1        0.2383
      7 C          25.4865   74.0343    1.6507 C.3     1  UNL1        0.1895
      8 O          25.4385   75.4272    1.9617 O.3     1  UNL1       -0.3779
      9 C          24.1695   73.5726    0.9743 C.3     1  UNL1        0.1713
     10 C          23.8825   72.1995    1.6120 C.3     1  UNL1        0.1764
     11 O          24.9635   71.9107    2.5149 O.3     1  UNL1       -0.3308
     12 O          23.1129   74.4930    1.2561 O.3     1  UNL1       -0.3794
     13 H          25.4287   75.9022    1.1192 H       1  UNL1        0.2106
     14 H          23.3782   75.3449    0.8847 H       1  UNL1        0.2105
     15 N          26.8746   73.0138    3.4347 N.ar    1  UNL1       -0.2551
     16 C          27.3751   73.8955    4.3175 C.ar    1  UNL1        0.3323
     17 N          28.6288   73.7668    4.7909 N.ar    1  UNL1       -0.2743
     18 C          29.4103   72.7492    4.3766 C.ar    1  UNL1        0.2626
     19 C          28.8980   71.8171    3.4430 C.ar    1  UNL1        0.0795
     20 C          27.6353   71.9669    2.9885 C.ar    1  UNL1        0.0869
     21 O          26.6825   74.8186    4.7007 O.2     1  UNL1       -0.2464
     22 O          30.5455   72.6345    4.8003 O.2     1  UNL1       -0.2670
     23 H          28.9719   74.4093    5.4309 H       1  UNL1        0.1734
     24 O          20.5731   70.6709   -1.2781 O.3     1  UNL1       -0.2703
     25 P          21.0581   71.5079   -2.5640 P.3     1  UNL1        0.2208
     26 O          22.2423   70.8523   -3.1612 O.2     1  UNL1       -0.5170
     27 O          21.4437   73.0056   -2.1161 O.3     1  UNL1       -0.4371
     28 O          19.8708   71.5628   -3.6493 O.3     1  UNL1       -0.2865
     29 C          19.9747   70.3758   -4.4376 C.3     1  UNL1        0.2611
     30 C          20.0454   70.7570   -5.9174 C.3     1  UNL1        0.1582
     31 C          18.7864   71.5470   -6.2921 C.3     1  UNL1        0.1625
     32 C          17.5557   70.7285   -5.8877 C.3     1  UNL1        0.1686
     33 C          17.6715   70.3521   -4.4091 C.3     1  UNL1        0.1760
     34 O          18.7688   71.7794   -7.7018 O.3     1  UNL1       -0.3801
     35 O          16.3753   71.5071   -6.0930 O.3     1  UNL1       -0.3794
     36 O          18.8349   69.5512   -4.2052 O.3     1  UNL1       -0.3263
     37 H          17.9624   72.2781   -7.8927 H       1  UNL1        0.2105
     38 H          15.6264   70.9556   -5.8257 H       1  UNL1        0.2105
     39 C          21.1331   72.9258   -6.1347 C.2     1  UNL1        0.2231
     40 C          22.3541   73.7753   -6.3794 C.3     1  UNL1        0.0946
     41 N          21.2313   71.5826   -6.1546 N.am    1  UNL1       -0.2994
     42 O          20.0618   73.4516   -5.9204 O.2     1  UNL1       -0.2751
     43 H          22.0885   71.1616   -6.3263 H       1  UNL1        0.1496
     44 C          16.4312   69.5618   -3.9866 C.3     1  UNL1        0.1693
     45 O          15.9658   68.7801   -5.0886 O.3     1  UNL1       -0.3794
     46 H          15.1855   68.2994   -4.7810 H       1  UNL1        0.2105
@<TRIPOS>BOND
     1    29    30    1
     2    29    28    1
     3    29    36    1
     4    30    31    1
     5    30    41    1
     6    31    32    1
     7    31    34    1
     8    32    33    1
     9    32    35    1
    10    33    44    1
    11    33    36    1
    12    44    45    1
    13    39    40    1
    14    39    41   am
    15    39    42    2
    16    41    43    1
    17    28    25    1
    18    34    37    1
    19    35    38    1
    20    45    46    1
    21    15    16   ar
    22    15    20   ar
    23    15     6    1
    24    16    17   ar
    25    16    21    2
    26    17    18   ar
    27    17    23    1
    28    18    19   ar
    29    18    22    2
    30    19    20   ar
    31     6     7    1
    32     6    11    1
    33     7     8    1
    34     7     9    1
    35     8    13    1
    36     9    10    1
    37     9    12    1
    38    10    11    1
    39    10     5    1
    40    12    14    1
    41     5     4    1
    42     4     1    1
    43     1     2    2
    44     1     3    1
    45     1    24    1
    46    24    25    1
    47    25    26    2
    48    25    27    1
@<TRIPOS>MOLECULE
UD1
 46 48 0 0 0
SMALL
GASTEIGER

@<TRIPOS>ATOM
      1 P          22.5081   72.9774   -5.2550 P.3     1  UNL1        0.2189
      2 O          22.9216   72.3906   -6.5486 O.2     1  UNL1       -0.5170
      3 O          23.5339   74.1487   -4.8445 O.3     1  UNL1       -0.4371
      4 O          22.5178   71.8349   -4.1204 O.3     1  UNL1       -0.3112
      5 C          22.0987   72.4557   -2.9042 C.3     1  UNL1        0.1811
      6 C          23.1580   71.2902    0.3280 C.3     1  UNL1        0.2383
      7 C          21.7870   71.9633    0.5882 C.3     1  UNL1        0.1895
      8 O          21.1080   71.3361    1.6766 O.3     1  UNL1       -0.3779
      9 C          21.0416   71.7112   -0.7482 C.3     1  UNL1        0.1713
     10 C          22.1707   71.4415   -1.7616 C.3     1  UNL1        0.1764
     11 O          23.4187   71.5815   -1.0616 O.3     1  UNL1       -0.3308
     12 O          20.1809   70.5758   -0.6346 O.3     1  UNL1       -0.3794
     13 H          20.2664   71.7999    1.7865 H       1  UNL1        0.2106
     14 H          19.5353   70.7827    0.0543 H       1  UNL1        0.2105
     15 N          24.1936   71.8744    1.1810 N.ar    1  UNL1       -0.2551
     16 C          24.9778   71.0719    1.9215 C.ar    1  UNL1        0.3323
     17 N          25.9410   71.5813    2.7120 N.ar    1  UNL1       -0.2743
     18 C          26.1290   72.9147    2.7807 C.ar    1  UNL1        0.2626
     19 C          25.3066   73.7714    2.0110 C.ar    1  UNL1        0.0795
     20 C          24.3516   73.2335    1.2224 C.ar    1  UNL1        0.0869
     21 O          24.8205   69.8672    1.8702 O.2     1  UNL1       -0.2464
     22 O          26.9964   73.3767    3.4988 O.2     1  UNL1       -0.2670
     23 H          26.5006   70.9874    3.2357 H       1  UNL1        0.1734
     24 O          21.0246   73.5854   -5.3913 O.3     1  UNL1       -0.2703
     25 P          20.1956   72.5810   -6.3364 P.3     1  UNL1        0.2208
     26 O          20.1769   71.2330   -5.7270 O.2     1  UNL1       -0.5170
     27 O          20.8954   72.5049   -7.7843 O.3     1  UNL1       -0.4371
     28 O          18.6868   73.1174   -6.4987 O.3     1  UNL1       -0.2865
     29 C          17.8273   71.9841   -6.3637 C.3     1  UNL1        0.2611
     30 C          16.9374   71.8747   -7.6031 C.3     1  UNL1        0.1582
     31 C          16.1174   73.1618   -7.7466 C.3     1  UNL1        0.1625
     32 C          15.3745   73.4189   -6.4312 C.3     1  UNL1        0.1686
     33 C          16.3830   73.4149   -5.2804 C.3     1  UNL1        0.1760
     34 O          15.1758   73.0135   -8.8110 O.3     1  UNL1       -0.3801
     35 O          14.7212   74.6882   -6.4915 O.3     1  UNL1       -0.3794
     36 O          17.0178   72.1393   -5.2001 O.3     1  UNL1       -0.3263
     37 H          14.6832   73.8440   -8.8660 H       1  UNL1        0.2105
     38 H          14.2677   74.8099   -5.6453 H       1  UNL1        0.2105
     39 C          18.3399   70.4938   -9.0384 C.2     1  UNL1        0.2231
     40 C          19.2004   70.3047  -10.2616 C.3     1  UNL1        0.0946
     41 N          17.7730   71.6904   -8.7915 N.am    1  UNL1       -0.2994
     42 O          18.1584   69.5687   -8.2759 O.2     1  UNL1       -0.2751
     43 H          17.9183   72.4309   -9.4014 H       1  UNL1        0.1496
     44 C          15.6556   73.7031   -3.9655 C.3     1  UNL1        0.1693
     45 O          16.0165   72.7182   -2.9951 O.3     1  UNL1       -0.3794
     46 H          15.5376   72.9358   -2.1841 H       1  UNL1        0.2105
@<TRIPOS>BOND
     1    29    30    1
     2    29    28    1
     3    29    36    1
     4    30    31    1
     5    30    41    1
     6    31    32    1
     7    31    34    1
     8    32    33    1
     9    32    35    1
    10    33    44    1
    11    33    36    1
    12    44    45    1
    13    39    40    1
    14    39    41   am
    15    39    42    2
    16    41    43    1
    17    28    25    1
    18    34    37    1
    19    35    38    1
    20    45    46    1
    21    15    16   ar
    22    15    20   ar
    23    15     6    1
    24    16    17   ar
    25    16    21    2
    26    17    18   ar
    27    17    23    1
    28    18    19   ar
    29    18    22    2
    30    19    20   ar
    31     6     7    1
    32     6    11    1
    33     7     8    1
    34     7     9    1
    35     8    13    1
    36     9    10    1
    37     9    12    1
    38    10    11    1
    39    10     5    1
    40    12    14    1
    41     5     4    1
    42     4     1    1
    43     1     2    2
    44     1     3    1
    45     1    24    1
    46    24    25    1
    47    25    26    2
    48    25    27    1
@<TRIPOS>MOLECULE
UD1
 46 48 0 0 0
SMALL
GASTEIGER

@<TRIPOS>ATOM
      1 P          21.2775   71.0949   -0.3585 P.3     1  UNL1        0.2189
      2 O          22.4331   71.0174   -1.2791 O.2     1  UNL1       -0.5170
      3 O          21.5136   70.0987    0.8842 O.3     1  UNL1       -0.4371
      4 O          19.9380   70.6655   -1.1423 O.3     1  UNL1       -0.3112
      5 C          20.0259   71.2295   -2.4517 C.3     1  UNL1        0.1811
      6 C          17.7802   70.7778   -5.2230 C.3     1  UNL1        0.2383
      7 C          17.8376   69.3886   -4.5395 C.3     1  UNL1        0.1895
      8 O          16.6027   68.6893   -4.6985 O.3     1  UNL1       -0.3779
      9 C          18.0723   69.7662   -3.0537 C.3     1  UNL1        0.1713
     10 C          18.6491   71.1937   -3.1168 C.3     1  UNL1        0.1764
     11 O          18.7675   71.5482   -4.5052 O.3     1  UNL1       -0.3308
     12 O          16.8386   69.7496   -2.3323 O.3     1  UNL1       -0.3794
     13 H          16.7043   67.8367   -4.2532 H       1  UNL1        0.2106
     14 H          16.4995   68.8458   -2.3798 H       1  UNL1        0.2105
     15 N          18.1351   70.6750   -6.6389 N.ar    1  UNL1       -0.2551
     16 C          17.1670   70.5217   -7.5591 C.ar    1  UNL1        0.3323
     17 N          17.4641   70.4284   -8.8688 N.ar    1  UNL1       -0.2743
     18 C          18.7473   70.4785   -9.2797 C.ar    1  UNL1        0.2626
     19 C          19.7768   70.6336   -8.3211 C.ar    1  UNL1        0.0795
     20 C          19.4503   70.7300   -7.0144 C.ar    1  UNL1        0.0869
     21 O          16.0050   70.4749   -7.2041 O.2     1  UNL1       -0.2464
     22 O          19.0174   70.3894  -10.4631 O.2     1  UNL1       -0.2670
     23 H          16.7528   70.3229   -9.5192 H       1  UNL1        0.1734
     24 O          21.1226   72.6022    0.1826 O.3     1  UNL1       -0.2703
     25 P          21.6809   72.6140    1.6917 P.3     1  UNL1        0.2208
     26 O          22.8284   71.6864    1.8003 O.2     1  UNL1       -0.5170
     27 O          20.5159   72.1455    2.6994 O.3     1  UNL1       -0.4371
     28 O          22.1559   74.1025    2.0779 O.3     1  UNL1       -0.2865
     29 C          23.0069   73.9831    3.2193 C.3     1  UNL1        0.2611
     30 C          22.5397   74.9577    4.3018 C.3     1  UNL1        0.1582
     31 C          22.5808   76.3845    3.7432 C.3     1  UNL1        0.1625
     32 C          23.9828   76.6524    3.1857 C.3     1  UNL1        0.1686
     33 C          24.3399   75.5514    2.1849 C.3     1  UNL1        0.1760
     34 O          22.2910   77.3160    4.7871 O.3     1  UNL1       -0.3801
     35 O          24.0016   77.9214    2.5292 O.3     1  UNL1       -0.3794
     36 O          24.3488   74.2855    2.8437 O.3     1  UNL1       -0.3263
     37 H          22.3272   78.1982    4.3924 H       1  UNL1        0.2105
     38 H          24.9002   78.0493    2.1933 H       1  UNL1        0.2105
     39 C          20.8146   74.6806    5.9993 C.2     1  UNL1        0.2231
     40 C          19.4050   74.3391    6.4101 C.3     1  UNL1        0.0946
     41 N          21.1703   74.6266    4.7013 N.am    1  UNL1       -0.2994
     42 O          21.6290   75.0035    6.8375 O.2     1  UNL1       -0.2751
     43 H          20.5189   74.3680    4.0303 H       1  UNL1        0.1496
     44 C          25.7256   75.8274    1.5978 C.3     1  UNL1        0.1693
     45 O          25.6074   76.7429    0.5068 O.3     1  UNL1       -0.3794
     46 H          26.5003   76.8892    0.1664 H       1  UNL1        0.2105
@<TRIPOS>BOND
     1    29    30    1
     2    29    28    1
     3    29    36    1
     4    30    31    1
     5    30    41    1
     6    31    32    1
     7    31    34    1
     8    32    33    1
     9    32    35    1
    10    33    44    1
    11    33    36    1
    12    44    45    1
    13    39    40    1
    14    39    41   am
    15    39    42    2
    16    41    43    1
    17    28    25    1
    18    34    37    1
    19    35    38    1
    20    45    46    1
    21    15    16   ar
    22    15    20   ar
    23    15     6    1
    24    16    17   ar
    25    16    21    2
    26    17    18   ar
    27    17    23    1
    28    18    19   ar
    29    18    22    2
    30    19    20   ar
    31     6     7    1
    32     6    11    1
    33     7     8    1
    34     7     9    1
    35     8    13    1
    36     9    10    1
    37     9    12    1
    38    10    11    1
    39    10     5    1
    40    12    14    1
    41     5     4    1
    42     4     1    1
    43     1     2    2
    44     1     3    1
    45     1    24    1
    46    24    25    1
    47    25    26    2
    48    25    27    1
@<TRIPOS>MOLECULE
UD1
 46 48 0 0 0
SMALL
GASTEIGER

@<TRIPOS>ATOM
      1 P          21.7280   72.3124   -6.2479 P.3     1  UNL1        0.2189
      2 O          20.7688   73.3595   -6.6630 O.2     1  UNL1       -0.5170
      3 O          23.2231   72.7721   -6.6301 O.3     1  UNL1       -0.4371
      4 O          21.3804   70.9356   -7.0071 O.3     1  UNL1       -0.3112
      5 C          20.5542   71.2748   -8.1218 C.3     1  UNL1        0.1811
      6 C          17.3844   70.0838   -6.9129 C.3     1  UNL1        0.2383
      7 C          17.0187   71.1335   -7.9922 C.3     1  UNL1        0.1895
      8 O          15.7862   70.8007   -8.6320 O.3     1  UNL1       -0.3779
      9 C          18.2067   71.0106   -8.9816 C.3     1  UNL1        0.1713
     10 C          19.3263   70.3633   -8.1438 C.3     1  UNL1        0.1764
     11 O          18.8200   70.1926   -6.8089 O.3     1  UNL1       -0.3308
     12 O          17.8533   70.1757  -10.0865 O.3     1  UNL1       -0.3794
     13 H          15.6164   71.4900   -9.2888 H       1  UNL1        0.2106
     14 H          17.1112   70.6038  -10.5339 H       1  UNL1        0.2105
     15 N          16.7483   70.4088   -5.6358 N.ar    1  UNL1       -0.2551
     16 C          16.3561   69.4184   -4.8157 C.ar    1  UNL1        0.3323
     17 N          15.7720   69.6880   -3.6331 N.ar    1  UNL1       -0.2743
     18 C          15.5615   70.9648   -3.2547 C.ar    1  UNL1        0.2626
     19 C          15.9641   72.0172   -4.1111 C.ar    1  UNL1        0.0795
     20 C          16.5525   71.7185   -5.2892 C.ar    1  UNL1        0.0869
     21 O          16.5391   68.2617   -5.1430 O.2     1  UNL1       -0.2464
     22 O          15.0292   71.2097   -2.1879 O.2     1  UNL1       -0.2670
     23 H          15.4997   68.9612   -3.0519 H       1  UNL1        0.1734
     24 O          21.6241   72.0893   -4.6579 O.3     1  UNL1       -0.2703
     25 P          22.6512   73.1229   -3.9752 P.3     1  UNL1        0.2208
     26 O          22.5263   74.4452   -4.6270 O.2     1  UNL1       -0.5170
     27 O          24.1565   72.5793   -4.1503 O.3     1  UNL1       -0.4371
     28 O          22.3116   73.2630   -2.4082 O.3     1  UNL1       -0.2865
     29 C          23.1820   72.3677   -1.7139 C.3     1  UNL1        0.2611
     30 C          22.3543   71.4764   -0.7863 C.3     1  UNL1        0.1582
     31 C          21.5854   72.3595    0.2028 C.3     1  UNL1        0.1625
     32 C          22.5806   73.2876    0.9074 C.3     1  UNL1        0.1686
     33 C          23.3893   74.0446   -0.1482 C.3     1  UNL1        0.1760
     34 O          20.9271   71.5368    1.1678 O.3     1  UNL1       -0.3801
     35 O          21.8693   74.2187    1.7251 O.3     1  UNL1       -0.3794
     36 O          24.1225   73.1189   -0.9493 O.3     1  UNL1       -0.3263
     37 H          20.4569   72.1317    1.7680 H       1  UNL1        0.2105
     38 H          22.5322   74.7826    2.1484 H       1  UNL1        0.2105
     39 C          20.1371   71.1108   -1.7270 C.2     1  UNL1        0.2231
     40 C          19.1631   70.2998   -2.5431 C.3     1  UNL1        0.0946
     41 N          21.4079   70.6892   -1.5794 N.am    1  UNL1       -0.2994
     42 O          19.7767   72.1428   -1.2025 O.2     1  UNL1       -0.2751
     43 H          21.6965   69.8632   -1.9988 H       1  UNL1        0.1496
     44 C          24.3641   74.9985    0.5453 C.3     1  UNL1        0.1693
     45 O          24.9535   74.3432    1.6701 O.3     1  UNL1       -0.3794
     46 H          25.5590   74.9771    2.0777 H       1  UNL1        0.2105
@<TRIPOS>BOND
     1    29    30    1
     2    29    28    1
     3    29    36    1
     4    30    31    1
     5    30    41    1
     6    31    32    1
     7    31    34    1
     8    32    33    1
     9    32    35    1
    10    33    44    1
    11    33    36    1
    12    44    45    1
    13    39    40    1
    14    39    41   am
    15    39    42    2
    16    41    43    1
    17    28    25    1
    18    34    37    1
    19    35    38    1
    20    45    46    1
    21    15    16   ar
    22    15    20   ar
    23    15     6    1
    24    16    17   ar
    25    16    21    2
    26    17    18   ar
    27    17    23    1
    28    18    19   ar
    29    18    22    2
    30    19    20   ar
    31     6     7    1
    32     6    11    1
    33     7     8    1
    34     7     9    1
    35     8    13    1
    36     9    10    1
    37     9    12    1
    38    10    11    1
    39    10     5    1
    40    12    14    1
    41     5     4    1
    42     4     1    1
    43     1     2    2
    44     1     3    1
    45     1    24    1
    46    24    25    1
    47    25    26    2
    48    25    27    1
@<TRIPOS>MOLECULE
UD1
 46 48 0 0 0
SMALL
GASTEIGER

@<TRIPOS>ATOM
      1 P          17.0131   69.2506   -2.9582 P.3     1  UNL1        0.2189
      2 O          15.9406   69.3138   -3.9753 O.2     1  UNL1       -0.5170
      3 O          18.0399   68.0685   -3.3337 O.3     1  UNL1       -0.4371
      4 O          16.3652   68.9585   -1.5133 O.3     1  UNL1       -0.3112
      5 C          15.4612   70.0304   -1.2408 C.3     1  UNL1        0.1811
      6 C          12.8083   68.3108    0.4715 C.3     1  UNL1        0.2383
      7 C          12.6056   69.8019    0.8400 C.3     1  UNL1        0.1895
      8 O          11.2238   70.0927    1.0524 O.3     1  UNL1       -0.3779
      9 C          13.1350   70.5249   -0.4258 C.3     1  UNL1        0.1713
     10 C          14.0414   69.4788   -1.1030 C.3     1  UNL1        0.1764
     11 O          14.0499   68.3107   -0.2647 O.3     1  UNL1       -0.3308
     12 O          12.0517   70.8885   -1.2843 O.3     1  UNL1       -0.3794
     13 H          11.1665   71.0316    1.2776 H       1  UNL1        0.2106
     14 H          11.4905   71.4957   -0.7838 H       1  UNL1        0.2105
     15 N          12.9228   67.4889    1.6768 N.ar    1  UNL1       -0.2551
     16 C          12.4674   66.2241    1.6666 C.ar    1  UNL1        0.3323
     17 N          12.5632   65.4439    2.7595 N.ar    1  UNL1       -0.2743
     18 C          13.1132   65.9259    3.8922 C.ar    1  UNL1        0.2626
     19 C          13.5913   67.2576    3.9187 C.ar    1  UNL1        0.0795
     20 C          13.4875   68.0165    2.8067 C.ar    1  UNL1        0.0869
     21 O          11.9688   65.7750    0.6525 O.2     1  UNL1       -0.2464
     22 O          13.1961   65.2230    4.8824 O.2     1  UNL1       -0.2670
     23 H          12.2338   64.5324    2.7328 H       1  UNL1        0.1734
     24 O          17.7996   70.6538   -2.9197 O.3     1  UNL1       -0.2703
     25 P          17.7226   71.2707   -4.4039 P.3     1  UNL1        0.2208
     26 O          16.6667   72.3059   -4.4536 O.2     1  UNL1       -0.5170
     27 O          17.3762   70.1011   -5.4547 O.3     1  UNL1       -0.4371
     28 O          19.1398   71.9311   -4.7861 O.3     1  UNL1       -0.2865
     29 C          20.1228   70.9014   -4.6655 C.3     1  UNL1        0.2611
     30 C          21.4916   71.5368   -4.4152 C.3     1  UNL1        0.1582
     31 C          21.8298   72.4740   -5.5801 C.3     1  UNL1        0.1625
     32 C          21.7043   71.6911   -6.8913 C.3     1  UNL1        0.1686
     33 C          20.3181   71.0465   -6.9562 C.3     1  UNL1        0.1760
     34 O          23.1662   72.9575   -5.4332 O.3     1  UNL1       -0.3801
     35 O          21.8715   72.5806   -7.9969 O.3     1  UNL1       -0.3794
     36 O          20.1581   70.1366   -5.8685 O.3     1  UNL1       -0.3263
     37 H          23.3361   73.5417   -6.1849 H       1  UNL1        0.2105
     38 H          21.7845   72.0479   -8.8002 H       1  UNL1        0.2105
     39 C          22.2500   71.9461   -2.1367 C.2     1  UNL1        0.2231
     40 C          22.2130   72.7317   -0.8507 C.3     1  UNL1        0.0946
     41 N          21.4564   72.2999   -3.1659 N.am    1  UNL1       -0.2994
     42 O          22.9940   70.9948   -2.2448 O.2     1  UNL1       -0.2751
     43 H          20.8607   73.0611   -3.0795 H       1  UNL1        0.1496
     44 C          20.1708   70.2887   -8.2773 C.3     1  UNL1        0.1693
     45 O          19.6828   71.1771   -9.2846 O.3     1  UNL1       -0.3794
     46 H          19.6043   70.6612  -10.0985 H       1  UNL1        0.2105
@<TRIPOS>BOND
     1    29    30    1
     2    29    28    1
     3    29    36    1
     4    30    31    1
     5    30    41    1
     6    31    32    1
     7    31    34    1
     8    32    33    1
     9    32    35    1
    10    33    44    1
    11    33    36    1
    12    44    45    1
    13    39    40    1
    14    39    41   am
    15    39    42    2
    16    41    43    1
    17    28    25    1
    18    34    37    1
    19    35    38    1
    20    45    46    1
    21    15    16   ar
    22    15    20   ar
    23    15     6    1
    24    16    17   ar
    25    16    21    2
    26    17    18   ar
    27    17    23    1
    28    18    19   ar
    29    18    22    2
    30    19    20   ar
    31     6     7    1
    32     6    11    1
    33     7     8    1
    34     7     9    1
    35     8    13    1
    36     9    10    1
    37     9    12    1
    38    10    11    1
    39    10     5    1
    40    12    14    1
    41     5     4    1
    42     4     1    1
    43     1     2    2
    44     1     3    1
    45     1    24    1
    46    24    25    1
    47    25    26    2
    48    25    27    1
@<TRIPOS>MOLECULE
UD1
 46 48 0 0 0
SMALL
GASTEIGER

@<TRIPOS>ATOM
      1 P          21.0870   71.1317   -0.2679 P.3     1  UNL1        0.2189
      2 O          22.2232   71.3347   -1.1935 O.2     1  UNL1       -0.5170
      3 O          21.5232   70.1156    0.9025 O.3     1  UNL1       -0.4371
      4 O          19.8401   70.5129   -1.0773 O.3     1  UNL1       -0.3112
      5 C          19.9825   70.9274   -2.4368 C.3     1  UNL1        0.1811
      6 C          17.7263   70.6820   -5.2255 C.3     1  UNL1        0.2383
      7 C          17.7273   69.2642   -4.6011 C.3     1  UNL1        0.1895
      8 O          16.4661   68.6216   -4.7899 O.3     1  UNL1       -0.3779
      9 C          17.9737   69.5693   -3.1007 C.3     1  UNL1        0.1713
     10 C          18.6067   70.9743   -3.1034 C.3     1  UNL1        0.1764
     11 O          18.7419   71.3819   -4.4756 O.3     1  UNL1       -0.3308
     12 O          16.7388   69.5713   -2.3811 O.3     1  UNL1       -0.3794
     13 H          16.5328   67.7477   -4.3809 H       1  UNL1        0.2106
     14 H          16.3643   68.6845   -2.4667 H       1  UNL1        0.2105
     15 N          18.0798   70.6249   -6.6444 N.ar    1  UNL1       -0.2551
     16 C          17.1124   70.4818   -7.5669 C.ar    1  UNL1        0.3323
     17 N          17.4081   70.4302   -8.8792 N.ar    1  UNL1       -0.2743
     18 C          18.6894   70.5126   -9.2907 C.ar    1  UNL1        0.2626
     19 C          19.7183   70.6574   -8.3298 C.ar    1  UNL1        0.0795
     20 C          19.3932   70.7118   -7.0204 C.ar    1  UNL1        0.0869
     21 O          15.9520   70.4062   -7.2113 O.2     1  UNL1       -0.2464
     22 O          18.9583   70.4613  -10.4766 O.2     1  UNL1       -0.2670
     23 H          16.6972   70.3315   -9.5311 H       1  UNL1        0.1734
     24 O          20.6610   72.5431    0.3766 O.3     1  UNL1       -0.2703
     25 P          21.9989   73.4315    0.4761 P.3     1  UNL1        0.2208
     26 O          23.1792   72.5411    0.5307 O.2     1  UNL1       -0.5170
     27 O          21.9467   74.3343    1.8081 O.3     1  UNL1       -0.4371
     28 O          22.1071   74.3873   -0.8143 O.3     1  UNL1       -0.2865
     29 C          23.4975   74.6323   -1.0332 C.3     1  UNL1        0.2611
     30 C          23.7264   76.1365   -1.1922 C.3     1  UNL1        0.1582
     31 C          22.8942   76.6479   -2.3735 C.3     1  UNL1        0.1625
     32 C          23.2259   75.8038   -3.6087 C.3     1  UNL1        0.1686
     33 C          23.0318   74.3247   -3.2682 C.3     1  UNL1        0.1760
     34 O          23.2126   78.0177   -2.6260 O.3     1  UNL1       -0.3801
     35 O          22.3565   76.1665   -4.6830 O.3     1  UNL1       -0.3794
     36 O          23.9185   73.9523   -2.2138 O.3     1  UNL1       -0.3263
     37 H          22.6678   78.2979   -3.3744 H       1  UNL1        0.2105
     38 H          22.5986   75.6119   -5.4382 H       1  UNL1        0.2105
     39 C          22.0809   77.3561    0.1266 C.2     1  UNL1        0.2231
     40 C          21.6590   78.0669    1.3872 C.3     1  UNL1        0.0946
     41 N          23.3158   76.8266    0.0323 N.am    1  UNL1       -0.2994
     42 O          21.3088   77.2614   -0.8034 O.2     1  UNL1       -0.2751
     43 H          23.9341   76.9025    0.7764 H       1  UNL1        0.1496
     44 C          23.3293   73.4746   -4.5051 C.3     1  UNL1        0.1693
     45 O          24.2420   72.4311   -4.1582 O.3     1  UNL1       -0.3794
     46 H          24.4026   71.9208   -4.9634 H       1  UNL1        0.2105
@<TRIPOS>BOND
     1    29    30    1
     2    29    28    1
     3    29    36    1
     4    30    31    1
     5    30    41    1
     6    31    32    1
     7    31    34    1
     8    32    33    1
     9    32    35    1
    10    33    44    1
    11    33    36    1
    12    44    45    1
    13    39    40    1
    14    39    41   am
    15    39    42    2
    16    41    43    1
    17    28    25    1
    18    34    37    1
    19    35    38    1
    20    45    46    1
    21    15    16   ar
    22    15    20   ar
    23    15     6    1
    24    16    17   ar
    25    16    21    2
    26    17    18   ar
    27    17    23    1
    28    18    19   ar
    29    18    22    2
    30    19    20   ar
    31     6     7    1
    32     6    11    1
    33     7     8    1
    34     7     9    1
    35     8    13    1
    36     9    10    1
    37     9    12    1
    38    10    11    1
    39    10     5    1
    40    12    14    1
    41     5     4    1
    42     4     1    1
    43     1     2    2
    44     1     3    1
    45     1    24    1
    46    24    25    1
    47    25    26    2
    48    25    27    1
@<TRIPOS>MOLECULE
UD1
 46 48 0 0 0
SMALL
GASTEIGER

@<TRIPOS>ATOM
      1 P          22.8991   72.5840   -3.4805 P.3     1  UNL1        0.2189
      2 O          22.5127   71.1580   -3.4033 O.2     1  UNL1       -0.5170
      3 O          24.2112   72.7355   -4.4014 O.3     1  UNL1       -0.4371
      4 O          23.2169   73.1342   -2.0009 O.3     1  UNL1       -0.3112
      5 C          21.9585   73.3886   -1.3748 C.3     1  UNL1        0.1811
      6 C          23.2444   72.1283    1.7373 C.3     1  UNL1        0.2383
      7 C          22.5397   73.4547    2.1172 C.3     1  UNL1        0.1895
      8 O          22.0140   73.3925    3.4434 O.3     1  UNL1       -0.3779
      9 C          21.3966   73.5272    1.0716 C.3     1  UNL1        0.1713
     10 C          21.8705   72.6022   -0.0660 C.3     1  UNL1        0.1764
     11 O          23.1714   72.1080    0.2958 O.3     1  UNL1       -0.3308
     12 O          20.1723   73.0511    1.6350 O.3     1  UNL1       -0.3794
     13 H          21.5910   74.2448    3.6173 H       1  UNL1        0.2106
     14 H          19.9610   73.6339    2.3765 H       1  UNL1        0.2105
     15 N          24.6380   72.1342    2.1835 N.ar    1  UNL1       -0.2551
     16 C          25.3297   70.9821    2.2236 C.ar    1  UNL1        0.3323
     17 N          26.6141   70.9584    2.6260 N.ar    1  UNL1       -0.2743
     18 C          27.2281   72.0969    3.0065 C.ar    1  UNL1        0.2626
     19 C          26.5098   73.3159    2.9749 C.ar    1  UNL1        0.0795
     20 C          25.2243   73.3119    2.5619 C.ar    1  UNL1        0.0869
     21 O          24.7898   69.9470    1.8835 O.2     1  UNL1       -0.2464
     22 O          28.3879   72.0759    3.3751 O.2     1  UNL1       -0.2670
     23 H          27.0993   70.1191    2.6442 H       1  UNL1        0.1734
     24 O          21.6919   73.4333   -4.1208 O.3     1  UNL1       -0.2703
     25 P          21.4115   72.8155   -5.5799 P.3     1  UNL1        0.2208
     26 O          22.5342   71.9324   -5.9655 O.2     1  UNL1       -0.5170
     27 O          21.2759   74.0090   -6.6519 O.3     1  UNL1       -0.4371
     28 O          20.0455   71.9648   -5.5504 O.3     1  UNL1       -0.2865
     29 C          19.0969   72.6761   -6.3475 C.3     1  UNL1        0.2611
     30 C          17.7578   72.7311   -5.6101 C.3     1  UNL1        0.1582
     31 C          17.2747   71.3015   -5.3411 C.3     1  UNL1        0.1625
     32 C          17.2582   70.5322   -6.6662 C.3     1  UNL1        0.1686
     33 C          18.6362   70.6405   -7.3225 C.3     1  UNL1        0.1760
     34 O          15.9578   71.3373   -4.7879 O.3     1  UNL1       -0.3801
     35 O          16.9523   69.1588   -6.4177 O.3     1  UNL1       -0.3794
     36 O          18.9331   72.0091   -7.5971 O.3     1  UNL1       -0.3263
     37 H          15.6942   70.4195   -4.6345 H       1  UNL1        0.2105
     38 H          16.9530   68.7122   -7.2762 H       1  UNL1        0.2105
     39 C          16.9944   74.3198   -3.9286 C.2     1  UNL1        0.2231
     40 C          17.1692   75.0487   -2.6208 C.3     1  UNL1        0.0946
     41 N          17.9270   73.4391   -4.3395 N.am    1  UNL1       -0.2994
     42 O          16.0142   74.5267   -4.6116 O.2     1  UNL1       -0.2751
     43 H          18.7116   73.2735   -3.7931 H       1  UNL1        0.1496
     44 C          18.6400   69.8481   -8.6314 C.3     1  UNL1        0.1693
     45 O          17.4621   70.1571   -9.3792 O.3     1  UNL1       -0.3794
     46 H          17.5037   69.6382  -10.1939 H       1  UNL1        0.2105
@<TRIPOS>BOND
     1    29    30    1
     2    29    28    1
     3    29    36    1
     4    30    31    1
     5    30    41    1
     6    31    32    1
     7    31    34    1
     8    32    33    1
     9    32    35    1
    10    33    44    1
    11    33    36    1
    12    44    45    1
    13    39    40    1
    14    39    41   am
    15    39    42    2
    16    41    43    1
    17    28    25    1
    18    34    37    1
    19    35    38    1
    20    45    46    1
    21    15    16   ar
    22    15    20   ar
    23    15     6    1
    24    16    17   ar
    25    16    21    2
    26    17    18   ar
    27    17    23    1
    28    18    19   ar
    29    18    22    2
    30    19    20   ar
    31     6     7    1
    32     6    11    1
    33     7     8    1
    34     7     9    1
    35     8    13    1
    36     9    10    1
    37     9    12    1
    38    10    11    1
    39    10     5    1
    40    12    14    1
    41     5     4    1
    42     4     1    1
    43     1     2    2
    44     1     3    1
    45     1    24    1
    46    24    25    1
    47    25    26    2
    48    25    27    1
@<TRIPOS>MOLECULE
UD1
 46 48 0 0 0
SMALL
GASTEIGER

@<TRIPOS>ATOM
      1 P          20.6937   71.8123   -1.2608 P.3     1  UNL1        0.2189
      2 O          20.2847   70.4850   -0.7511 O.2     1  UNL1       -0.5170
      3 O          19.4413   72.5177   -1.9866 O.3     1  UNL1       -0.4371
      4 O          21.8947   71.6337   -2.3184 O.3     1  UNL1       -0.3112
      5 C          22.0453   72.8859   -2.9890 C.3     1  UNL1        0.1811
      6 C          21.1166   72.1390   -6.3812 C.3     1  UNL1        0.2383
      7 C          21.1171   73.6867   -6.3107 C.3     1  UNL1        0.1895
      8 O          21.4679   74.2557   -7.5726 O.3     1  UNL1       -0.3779
      9 C          22.2174   73.9641   -5.2535 C.3     1  UNL1        0.1713
     10 C          22.3278   72.6406   -4.4720 C.3     1  UNL1        0.1764
     11 O          21.3479   71.7387   -5.0138 O.3     1  UNL1       -0.3308
     12 O          23.4564   74.2804   -5.8920 O.3     1  UNL1       -0.3794
     13 H          21.4495   75.2164   -7.4616 H       1  UNL1        0.2106
     14 H          23.3064   75.0818   -6.4110 H       1  UNL1        0.2105
     15 N          19.8240   71.6411   -6.8531 N.ar    1  UNL1       -0.2551
     16 C          19.7621   70.4749   -7.5192 C.ar    1  UNL1        0.3323
     17 N          18.5864   69.9909   -7.9615 N.ar    1  UNL1       -0.2743
     18 C          17.4458   70.6779   -7.7495 C.ar    1  UNL1        0.2626
     19 C          17.4973   71.9099   -7.0549 C.ar    1  UNL1        0.0795
     20 C          18.6892   72.3696   -6.6177 C.ar    1  UNL1        0.0869
     21 O          20.7822   69.8437   -7.7181 O.2     1  UNL1       -0.2464
     22 O          16.3828   70.2435   -8.1531 O.2     1  UNL1       -0.2670
     23 H          18.5597   69.1457   -8.4360 H       1  UNL1        0.1734
     24 O          21.1903   72.7283   -0.0348 O.3     1  UNL1       -0.2703
     25 P          21.9954   71.7633    0.9701 P.3     1  UNL1        0.2208
     26 O          23.4326   71.7745    0.6191 O.2     1  UNL1       -0.5170
     27 O          21.4252   70.2627    0.8465 O.3     1  UNL1       -0.4371
     28 O          21.8082   72.2841    2.4815 O.3     1  UNL1       -0.2865
     29 C          22.1751   73.6649    2.4926 C.3     1  UNL1        0.2611
     30 C          23.1462   73.9201    3.6466 C.3     1  UNL1        0.1582
     31 C          22.4708   73.5291    4.9659 C.3     1  UNL1        0.1625
     32 C          21.1303   74.2645    5.0670 C.3     1  UNL1        0.1686
     33 C          20.3099   73.9807    3.8070 C.3     1  UNL1        0.1760
     34 O          23.3088   73.9014    6.0616 O.3     1  UNL1       -0.3801
     35 O          20.4179   73.8037    6.2167 O.3     1  UNL1       -0.3794
     36 O          21.0062   74.4645    2.6591 O.3     1  UNL1       -0.3263
     37 H          22.8466   73.6374    6.8691 H       1  UNL1        0.2105
     38 H          19.5820   74.2907    6.2416 H       1  UNL1        0.2105
     39 C          25.5413   73.7186    3.2503 C.2     1  UNL1        0.2231
     40 C          26.7852   72.8898    3.0546 C.3     1  UNL1        0.0946
     41 N          24.3549   73.1154    3.4569 N.am    1  UNL1       -0.2994
     42 O          25.6085   74.9289    3.2212 O.2     1  UNL1       -0.2751
     43 H          24.3008   72.1469    3.4800 H       1  UNL1        0.1496
     44 C          18.9554   74.6846    3.9125 C.3     1  UNL1        0.1693
     45 O          19.0663   75.8018    4.7966 O.3     1  UNL1       -0.3794
     46 H          18.1935   76.2159    4.8351 H       1  UNL1        0.2105
@<TRIPOS>BOND
     1    29    30    1
     2    29    28    1
     3    29    36    1
     4    30    31    1
     5    30    41    1
     6    31    32    1
     7    31    34    1
     8    32    33    1
     9    32    35    1
    10    33    44    1
    11    33    36    1
    12    44    45    1
    13    39    40    1
    14    39    41   am
    15    39    42    2
    16    41    43    1
    17    28    25    1
    18    34    37    1
    19    35    38    1
    20    45    46    1
    21    15    16   ar
    22    15    20   ar
    23    15     6    1
    24    16    17   ar
    25    16    21    2
    26    17    18   ar
    27    17    23    1
    28    18    19   ar
    29    18    22    2
    30    19    20   ar
    31     6     7    1
    32     6    11    1
    33     7     8    1
    34     7     9    1
    35     8    13    1
    36     9    10    1
    37     9    12    1
    38    10    11    1
    39    10     5    1
    40    12    14    1
    41     5     4    1
    42     4     1    1
    43     1     2    2
    44     1     3    1
    45     1    24    1
    46    24    25    1
    47    25    26    2
    48    25    27    1
@<TRIPOS>MOLECULE
UD1
 46 48 0 0 0
SMALL
GASTEIGER

@<TRIPOS>ATOM
      1 P          22.6937   72.4695   -3.7628 P.3     1  UNL1        0.2189
      2 O          24.0946   72.2849   -4.2010 O.2     1  UNL1       -0.5170
      3 O          22.4254   74.0290   -3.4654 O.3     1  UNL1       -0.4371
      4 O          22.4345   71.6161   -2.4221 O.3     1  UNL1       -0.3112
      5 C          22.9450   72.3888   -1.3346 C.3     1  UNL1        0.1811
      6 C          24.5618   71.5898    1.7759 C.3     1  UNL1        0.2383
      7 C          23.1220   71.9950    2.1797 C.3     1  UNL1        0.1895
      8 O          22.7038   71.2951    3.3521 O.3     1  UNL1       -0.3779
      9 C          22.2989   71.5463    0.9442 C.3     1  UNL1        0.1713
     10 C          23.3408   71.4575   -0.1876 C.3     1  UNL1        0.1764
     11 O          24.6058   71.8664    0.3599 O.3     1  UNL1       -0.3308
     12 O          21.6970   70.2716    1.1800 O.3     1  UNL1       -0.3794
     13 H          21.8045   71.5914    3.5494 H       1  UNL1        0.2106
     14 H          21.1029   70.3787    1.9348 H       1  UNL1        0.2105
     15 N          25.5491   72.3994    2.4909 N.ar    1  UNL1       -0.2551
     16 C          26.7566   71.8809    2.7743 C.ar    1  UNL1        0.3323
     17 N          27.6855   72.6041    3.4274 N.ar    1  UNL1       -0.2743
     18 C          27.4135   73.8655    3.8181 C.ar    1  UNL1        0.2626
     19 C          26.1442   74.4217    3.5314 C.ar    1  UNL1        0.0795
     20 C          25.2329   73.6761    2.8704 C.ar    1  UNL1        0.0869
     21 O          27.0169   70.7446    2.4285 O.2     1  UNL1       -0.2464
     22 O          28.2510   74.5186    4.4128 O.2     1  UNL1       -0.2670
     23 H          28.5530   72.2158    3.6193 H       1  UNL1        0.1734
     24 O          21.6980   71.9641   -4.9212 O.3     1  UNL1       -0.2703
     25 P          20.5561   71.0869   -4.2028 P.3     1  UNL1        0.2208
     26 O          19.8310   71.9274   -3.2247 O.2     1  UNL1       -0.5170
     27 O          21.2349   69.8419   -3.4404 O.3     1  UNL1       -0.4371
     28 O          19.5234   70.5387   -5.3088 O.3     1  UNL1       -0.2865
     29 C          18.8147   71.6724   -5.8124 C.3     1  UNL1        0.2611
     30 C          17.3200   71.3514   -5.8647 C.3     1  UNL1        0.1582
     31 C          17.1006   70.1317   -6.7669 C.3     1  UNL1        0.1625
     32 C          17.7574   70.4020   -8.1247 C.3     1  UNL1        0.1686
     33 C          19.2202   70.7917   -7.9019 C.3     1  UNL1        0.1760
     34 O          15.6999   69.9129   -6.9439 O.3     1  UNL1       -0.3801
     35 O          17.6927   69.2234   -8.9299 O.3     1  UNL1       -0.3794
     36 O          19.2879   71.9842   -7.1209 O.3     1  UNL1       -0.3263
     37 H          15.6082   69.1384   -7.5158 H       1  UNL1        0.2105
     38 H          18.1170   69.4370   -9.7730 H       1  UNL1        0.2105
     39 C          16.7365   69.7801   -4.0970 C.2     1  UNL1        0.2231
     40 C          16.2363   69.4774   -2.7076 C.3     1  UNL1        0.0946
     41 N          16.8346   71.0568   -4.5149 N.am    1  UNL1       -0.2994
     42 O          17.0500   68.8741   -4.8393 O.2     1  UNL1       -0.2751
     43 H          16.5835   71.7821   -3.9211 H       1  UNL1        0.1496
     44 C          19.8943   71.0323   -9.2543 C.3     1  UNL1        0.1693
     45 O          18.8955   71.2542  -10.2520 O.3     1  UNL1       -0.3794
     46 H          19.3613   71.4008  -11.0864 H       1  UNL1        0.2105
@<TRIPOS>BOND
     1    29    30    1
     2    29    28    1
     3    29    36    1
     4    30    31    1
     5    30    41    1
     6    31    32    1
     7    31    34    1
     8    32    33    1
     9    32    35    1
    10    33    44    1
    11    33    36    1
    12    44    45    1
    13    39    40    1
    14    39    41   am
    15    39    42    2
    16    41    43    1
    17    28    25    1
    18    34    37    1
    19    35    38    1
    20    45    46    1
    21    15    16   ar
    22    15    20   ar
    23    15     6    1
    24    16    17   ar
    25    16    21    2
    26    17    18   ar
    27    17    23    1
    28    18    19   ar
    29    18    22    2
    30    19    20   ar
    31     6     7    1
    32     6    11    1
    33     7     8    1
    34     7     9    1
    35     8    13    1
    36     9    10    1
    37     9    12    1
    38    10    11    1
    39    10     5    1
    40    12    14    1
    41     5     4    1
    42     4     1    1
    43     1     2    2
    44     1     3    1
    45     1    24    1
    46    24    25    1
    47    25    26    2
    48    25    27    1
@<TRIPOS>MOLECULE
UD1
 46 48 0 0 0
SMALL
GASTEIGER

@<TRIPOS>ATOM
      1 P          22.9689   73.0752   -2.9123 P.3     1  UNL1        0.2189
      2 O          24.1764   72.4395   -3.4836 O.2     1  UNL1       -0.5170
      3 O          23.2051   74.6632   -2.7900 O.3     1  UNL1       -0.4371
      4 O          22.6807   72.4624   -1.4514 O.3     1  UNL1       -0.3112
      5 C          22.9504   73.4996   -0.5070 C.3     1  UNL1        0.1811
      6 C          24.3551   72.8240    2.7330 C.3     1  UNL1        0.2383
      7 C          23.7536   71.4698    2.2807 C.3     1  UNL1        0.1895
      8 O          24.4953   70.3754    2.8203 O.3     1  UNL1       -0.3779
      9 C          23.9140   71.5408    0.7397 C.3     1  UNL1        0.1713
     10 C          24.0567   73.0470    0.4472 C.3     1  UNL1        0.1764
     11 O          23.9359   73.7414    1.7004 O.3     1  UNL1       -0.3308
     12 O          25.0833   70.8311    0.3252 O.3     1  UNL1       -0.3794
     13 H          24.0713   69.5660    2.5030 H       1  UNL1        0.2106
     14 H          24.9587   69.9096    0.5887 H       1  UNL1        0.2105
     15 N          23.8124   73.2255    4.0314 N.ar    1  UNL1       -0.2551
     16 C          22.6039   72.7790    4.4154 C.ar    1  UNL1        0.3323
     17 N          22.0818   73.1289    5.6058 N.ar    1  UNL1       -0.2743
     18 C          22.7641   73.9460    6.4333 C.ar    1  UNL1        0.2626
     19 C          24.0349   74.4282    6.0390 C.ar    1  UNL1        0.0795
     20 C          24.5373   74.0571    4.8418 C.ar    1  UNL1        0.0869
     21 O          21.9764   72.0413    3.6801 O.2     1  UNL1       -0.2464
     22 O          22.2910   74.2668    7.5078 O.2     1  UNL1       -0.2670
     23 H          21.2108   72.7936    5.8687 H       1  UNL1        0.1734
     24 O          21.7083   72.7915   -3.8711 O.3     1  UNL1       -0.2703
     25 P          20.5455   72.1803   -2.9418 P.3     1  UNL1        0.2208
     26 O          20.2246   73.1374   -1.8602 O.2     1  UNL1       -0.5170
     27 O          21.0461   70.7921   -2.2979 O.3     1  UNL1       -0.4371
     28 O          19.2304   71.9144   -3.8307 O.3     1  UNL1       -0.2865
     29 C          19.5355   70.8288   -4.7078 C.3     1  UNL1        0.2611
     30 C          19.4827   71.3192   -6.1558 C.3     1  UNL1        0.1582
     31 C          18.0834   71.8731   -6.4468 C.3     1  UNL1        0.1625
     32 C          17.0476   70.8042   -6.0822 C.3     1  UNL1        0.1686
     33 C          17.2822   70.3548   -4.6385 C.3     1  UNL1        0.1760
     34 O          17.9752   72.1959   -7.8344 O.3     1  UNL1       -0.3801
     35 O          15.7332   71.3504   -6.2066 O.3     1  UNL1       -0.3794
     36 O          18.5843   69.7836   -4.5169 O.3     1  UNL1       -0.3263
     37 H          17.0820   72.5400   -7.9723 H       1  UNL1        0.2105
     38 H          15.1139   70.6462   -5.9677 H       1  UNL1        0.2105
     39 C          21.2146   72.4063   -7.4799 C.2     1  UNL1        0.2231
     40 C          22.2401   73.4926   -7.6813 C.3     1  UNL1        0.0946
     41 N          20.4787   72.3746   -6.3522 N.am    1  UNL1       -0.2994
     42 O          21.0523   71.5600   -8.3329 O.2     1  UNL1       -0.2751
     43 H          20.6086   73.0515   -5.6692 H       1  UNL1        0.1496
     44 C          16.2323   69.3105   -4.2538 C.3     1  UNL1        0.1693
     45 O          15.8396   68.5784   -5.4166 O.3     1  UNL1       -0.3794
     46 H          15.1788   67.9331   -5.1310 H       1  UNL1        0.2105
@<TRIPOS>BOND
     1    29    30    1
     2    29    28    1
     3    29    36    1
     4    30    31    1
     5    30    41    1
     6    31    32    1
     7    31    34    1
     8    32    33    1
     9    32    35    1
    10    33    44    1
    11    33    36    1
    12    44    45    1
    13    39    40    1
    14    39    41   am
    15    39    42    2
    16    41    43    1
    17    28    25    1
    18    34    37    1
    19    35    38    1
    20    45    46    1
    21    15    16   ar
    22    15    20   ar
    23    15     6    1
    24    16    17   ar
    25    16    21    2
    26    17    18   ar
    27    17    23    1
    28    18    19   ar
    29    18    22    2
    30    19    20   ar
    31     6     7    1
    32     6    11    1
    33     7     8    1
    34     7     9    1
    35     8    13    1
    36     9    10    1
    37     9    12    1
    38    10    11    1
    39    10     5    1
    40    12    14    1
    41     5     4    1
    42     4     1    1
    43     1     2    2
    44     1     3    1
    45     1    24    1
    46    24    25    1
    47    25    26    2
    48    25    27    1
@<TRIPOS>MOLECULE
UD1
 46 48 0 0 0
SMALL
GASTEIGER

@<TRIPOS>ATOM
      1 P          22.8232   70.9878    0.7985 P.3     1  UNL1        0.2189
      2 O          21.5860   70.2645    1.1659 O.2     1  UNL1       -0.5170
      3 O          24.0943   70.2394    1.4442 O.3     1  UNL1       -0.4371
      4 O          22.7486   72.4960    1.3577 O.3     1  UNL1       -0.3112
      5 C          23.4765   72.5182    2.5865 C.3     1  UNL1        0.1811
      6 C          22.0948   73.5800    5.7315 C.3     1  UNL1        0.2383
      7 C          21.2454   74.3168    4.6658 C.3     1  UNL1        0.1895
      8 O          19.9118   74.5273    5.1313 O.3     1  UNL1       -0.3779
      9 C          21.2667   73.3146    3.4825 C.3     1  UNL1        0.1713
     10 C          22.4998   72.4333    3.7605 C.3     1  UNL1        0.1764
     11 O          23.1255   72.9341    4.9542 O.3     1  UNL1       -0.3308
     12 O          20.0736   72.5277    3.4717 O.3     1  UNL1       -0.3794
     13 H          19.4381   74.9883    4.4251 H       1  UNL1        0.2106
     14 H          19.3358   73.1409    3.3543 H       1  UNL1        0.2105
     15 N          22.6809   74.5309    6.6770 N.ar    1  UNL1       -0.2551
     16 C          23.7771   75.2268    6.3288 C.ar    1  UNL1        0.3323
     17 N          24.3352   76.1110    7.1768 N.ar    1  UNL1       -0.2743
     18 C          23.8044   76.3067    8.4007 C.ar    1  UNL1        0.2626
     19 C          22.6539   75.5763    8.7824 C.ar    1  UNL1        0.0795
     20 C          22.1114   74.6997    7.9102 C.ar    1  UNL1        0.0869
     21 O          24.2674   75.0614    5.2284 O.2     1  UNL1       -0.2464
     22 O          24.3109   77.1023    9.1699 O.2     1  UNL1       -0.2670
     23 H          25.1230   76.6078    6.9072 H       1  UNL1        0.1734
     24 O          22.9727   71.0163   -0.8033 O.3     1  UNL1       -0.2703
     25 P          21.5877   71.5889   -1.3893 P.3     1  UNL1        0.2208
     26 O          21.3961   72.9820   -0.9295 O.2     1  UNL1       -0.5170
     27 O          20.3663   70.6793   -0.8668 O.3     1  UNL1       -0.4371
     28 O          21.6297   71.5557   -2.9979 O.3     1  UNL1       -0.2865
     29 C          20.5012   72.3017   -3.4574 C.3     1  UNL1        0.2611
     30 C          19.7291   71.4695   -4.4827 C.3     1  UNL1        0.1582
     31 C          20.6601   71.1225   -5.6500 C.3     1  UNL1        0.1625
     32 C          21.2724   72.4190   -6.1906 C.3     1  UNL1        0.1686
     33 C          21.9308   73.1783   -5.0368 C.3     1  UNL1        0.1760
     34 O          19.9135   70.4750   -6.6818 O.3     1  UNL1       -0.3801
     35 O          22.2538   72.1073   -7.1812 O.3     1  UNL1       -0.3794
     36 O          20.9481   73.5152   -4.0584 O.3     1  UNL1       -0.3263
     37 H          20.5366   70.2749   -7.3939 H       1  UNL1        0.2105
     38 H          22.6135   72.9498   -7.4934 H       1  UNL1        0.2105
     39 C          18.0238   70.1934   -3.3004 C.2     1  UNL1        0.2231
     40 C          17.5326   68.9243   -2.6520 C.3     1  UNL1        0.0946
     41 N          19.2513   70.2367   -3.8532 N.am    1  UNL1       -0.2994
     42 O          17.3140   71.1762   -3.3239 O.2     1  UNL1       -0.2751
     43 H          19.8196   69.4504   -3.8342 H       1  UNL1        0.1496
     44 C          22.5738   74.4594   -5.5720 C.3     1  UNL1        0.1693
     45 O          23.9426   74.5118   -5.1650 O.3     1  UNL1       -0.3794
     46 H          24.3094   75.3321   -5.5217 H       1  UNL1        0.2105
@<TRIPOS>BOND
     1    29    30    1
     2    29    28    1
     3    29    36    1
     4    30    31    1
     5    30    41    1
     6    31    32    1
     7    31    34    1
     8    32    33    1
     9    32    35    1
    10    33    44    1
    11    33    36    1
    12    44    45    1
    13    39    40    1
    14    39    41   am
    15    39    42    2
    16    41    43    1
    17    28    25    1
    18    34    37    1
    19    35    38    1
    20    45    46    1
    21    15    16   ar
    22    15    20   ar
    23    15     6    1
    24    16    17   ar
    25    16    21    2
    26    17    18   ar
    27    17    23    1
    28    18    19   ar
    29    18    22    2
    30    19    20   ar
    31     6     7    1
    32     6    11    1
    33     7     8    1
    34     7     9    1
    35     8    13    1
    36     9    10    1
    37     9    12    1
    38    10    11    1
    39    10     5    1
    40    12    14    1
    41     5     4    1
    42     4     1    1
    43     1     2    2
    44     1     3    1
    45     1    24    1
    46    24    25    1
    47    25    26    2
    48    25    27    1
@<TRIPOS>MOLECULE
UD1
 46 48 0 0 0
SMALL
GASTEIGER

@<TRIPOS>ATOM
      1 P          18.7273   74.6943   -1.9920 P.3     1  UNL1        0.2189
      2 O          18.8932   76.1513   -1.7961 O.2     1  UNL1       -0.5170
      3 O          17.1671   74.3549   -2.1999 O.3     1  UNL1       -0.4371
      4 O          19.2773   73.9131   -0.6959 O.3     1  UNL1       -0.3112
      5 C          20.6691   74.2163   -0.5896 C.3     1  UNL1        0.1811
      6 C          23.2763   71.9216    0.3401 C.3     1  UNL1        0.2383
      7 C          22.0286   71.4252    1.1127 C.3     1  UNL1        0.1895
      8 O          22.0710   70.0098    1.2968 O.3     1  UNL1       -0.3779
      9 C          20.8739   71.8247    0.1576 C.3     1  UNL1        0.1713
     10 C          21.4844   72.9295   -0.7262 C.3     1  UNL1        0.1764
     11 O          22.8291   73.1517   -0.2686 O.3     1  UNL1       -0.3308
     12 O          20.4708   70.7061   -0.6355 O.3     1  UNL1       -0.3794
     13 H          21.2705   69.7662    1.7820 H       1  UNL1        0.2106
     14 H          20.1552   70.0286   -0.0227 H       1  UNL1        0.2105
     15 N          24.3886   72.1739    1.2569 N.ar    1  UNL1       -0.2551
     16 C          25.2091   71.1665    1.6021 C.ar    1  UNL1        0.3323
     17 N          26.2426   71.3705    2.4404 N.ar    1  UNL1       -0.2743
     18 C          26.4664   72.5954    2.9575 C.ar    1  UNL1        0.2626
     19 C          25.6068   73.6636    2.6072 C.ar    1  UNL1        0.0795
     20 C          24.5810   73.4323    1.7601 C.ar    1  UNL1        0.0869
     21 O          25.0202   70.0561    1.1439 O.2     1  UNL1       -0.2464
     22 O          27.3976   72.7799    3.7192 O.2     1  UNL1       -0.2670
     23 H          26.8272   70.6334    2.6748 H       1  UNL1        0.1734
     24 O          19.5562   74.2296   -3.2904 O.3     1  UNL1       -0.2703
     25 P          19.2737   72.6573   -3.4840 P.3     1  UNL1        0.2208
     26 O          18.3652   72.1843   -2.4165 O.2     1  UNL1       -0.5170
     27 O          20.6631   71.8477   -3.4030 O.3     1  UNL1       -0.4371
     28 O          18.5910   72.4063   -4.9198 O.3     1  UNL1       -0.2865
     29 C          19.2361   71.2671   -5.4920 C.3     1  UNL1        0.2611
     30 C          19.2463   71.4048   -7.0155 C.3     1  UNL1        0.1582
     31 C          17.8027   71.5185   -7.5182 C.3     1  UNL1        0.1625
     32 C          17.0000   70.3311   -6.9762 C.3     1  UNL1        0.1686
     33 C          17.1568   70.2763   -5.4551 C.3     1  UNL1        0.1760
     34 O          17.7901   71.4972   -8.9467 O.3     1  UNL1       -0.3801
     35 O          15.6204   70.4946   -7.3102 O.3     1  UNL1       -0.3794
     36 O          18.5304   70.0856   -5.1185 O.3     1  UNL1       -0.3263
     37 H          16.8651   71.5712   -9.2191 H       1  UNL1        0.2105
     38 H          15.1527   69.7276   -6.9503 H       1  UNL1        0.2105
     39 C          21.3205   72.6727   -7.1720 C.2     1  UNL1        0.2231
     40 C          22.0893   73.9095   -7.5612 C.3     1  UNL1        0.0946
     41 N          19.9936   72.6059   -7.3938 N.am    1  UNL1       -0.2994
     42 O          21.8965   71.7374   -6.6584 O.2     1  UNL1       -0.2751
     43 H          19.5324   73.3543   -7.8046 H       1  UNL1        0.1496
     44 C          16.3323   69.1129   -4.9002 C.3     1  UNL1        0.1693
     45 O          16.1367   68.1360   -5.9247 O.3     1  UNL1       -0.3794
     46 H          15.6140   67.4223   -5.5346 H       1  UNL1        0.2105
@<TRIPOS>BOND
     1    29    30    1
     2    29    28    1
     3    29    36    1
     4    30    31    1
     5    30    41    1
     6    31    32    1
     7    31    34    1
     8    32    33    1
     9    32    35    1
    10    33    44    1
    11    33    36    1
    12    44    45    1
    13    39    40    1
    14    39    41   am
    15    39    42    2
    16    41    43    1
    17    28    25    1
    18    34    37    1
    19    35    38    1
    20    45    46    1
    21    15    16   ar
    22    15    20   ar
    23    15     6    1
    24    16    17   ar
    25    16    21    2
    26    17    18   ar
    27    17    23    1
    28    18    19   ar
    29    18    22    2
    30    19    20   ar
    31     6     7    1
    32     6    11    1
    33     7     8    1
    34     7     9    1
    35     8    13    1
    36     9    10    1
    37     9    12    1
    38    10    11    1
    39    10     5    1
    40    12    14    1
    41     5     4    1
    42     4     1    1
    43     1     2    2
    44     1     3    1
    45     1    24    1
    46    24    25    1
    47    25    26    2
    48    25    27    1
