@<TRIPOS>MOLECULE
UD2
 46 48 0 0 0
SMALL
GASTEIGER

@<TRIPOS>ATOM
      1 P          19.9813   71.1438   -2.1721 P.3     1  UNL1        0.2189
      2 O          20.8642   70.3270   -3.2420 O.3     1  UNL1       -0.4371
      3 O          20.1947   72.5955   -2.3611 O.2     1  UNL1       -0.5170
      4 O          18.4231   70.7979   -2.3868 O.3     1  UNL1       -0.3112
      5 C          17.4553   71.7768   -2.7697 C.3     1  UNL1        0.1811
      6 C          16.6031   70.4165   -5.9884 C.3     1  UNL1        0.2383
      7 C          16.9638   69.1803   -5.1260 C.3     1  UNL1        0.1895
      8 O          16.2188   68.0338   -5.5412 O.3     1  UNL1       -0.3779
      9 C          16.5339   69.6351   -3.7097 C.3     1  UNL1        0.1713
     10 C          16.5002   71.1726   -3.8021 C.3     1  UNL1        0.1764
     11 O          16.9227   71.5310   -5.1274 O.3     1  UNL1       -0.3308
     12 O          15.2379   69.1240   -3.3936 O.3     1  UNL1       -0.3794
     13 H          16.4100   67.2346   -5.0319 H       1  UNL1        0.2106
     14 H          15.1875   68.1587   -3.3801 H       1  UNL1        0.2105
     15 N          17.4188   70.4529   -7.2043 N.ar    1  UNL1       -0.2551
     16 C          16.8234   70.5913   -8.4023 C.ar    1  UNL1        0.3323
     17 N          17.5482   70.6277   -9.5361 N.ar    1  UNL1       -0.2743
     18 C          18.8920   70.5269   -9.4861 C.ar    1  UNL1        0.2626
     19 C          19.5320   70.3818   -8.2317 C.ar    1  UNL1        0.0795
     20 C          18.7808   70.3527   -7.1108 C.ar    1  UNL1        0.0869
     21 O          15.6125   70.6835   -8.4624 O.2     1  UNL1       -0.2464
     22 O          19.5492   70.5601  -10.5115 O.2     1  UNL1       -0.2670
     23 H          17.1028   70.7268  -10.3917 H       1  UNL1        0.1734
     24 O          20.4226   70.7257   -0.6809 O.3     1  UNL1       -0.2703
     25 P          21.5681   71.2346    0.3300 P.3     1  UNL1        0.2208
     26 O          22.0814   69.9979    1.2249 O.3     1  UNL1       -0.4371
     27 O          22.7012   71.7855   -0.4452 O.2     1  UNL1       -0.5170
     28 O          20.9669   72.3791    1.2898 O.3     1  UNL1       -0.2865
     29 C          21.6576   73.5965    1.5766 C.3     1  UNL1        0.2611
     30 C          22.4374   73.4457    2.8850 C.3     1  UNL1        0.1582
     31 C          21.4524   73.1890    4.0297 C.3     1  UNL1        0.1625
     32 C          20.4410   74.3372    4.0858 C.3     1  UNL1        0.1686
     33 C          19.7380   74.4535    2.7307 C.3     1  UNL1        0.1760
     34 O          22.1657   73.1200    5.2666 O.3     1  UNL1       -0.3801
     35 O          21.1213   75.5591    4.3779 O.3     1  UNL1       -0.3794
     36 O          20.7126   74.6606    1.7064 O.3     1  UNL1       -0.3263
     37 H          21.6029   72.9582    6.0362 H       1  UNL1        0.2105
     38 H          20.5404   76.3312    4.4280 H       1  UNL1        0.2105
     39 C          24.6474   72.5305    2.4203 C.2     1  UNL1        0.2231
     40 C          25.6015   71.3706    2.3068 C.3     1  UNL1        0.0946
     41 N          23.3648   72.3169    2.7746 N.am    1  UNL1       -0.2994
     42 O          25.0332   73.6581    2.1925 O.2     1  UNL1       -0.2751
     43 H          23.0557   71.4155    2.9558 H       1  UNL1        0.1496
     44 C          18.7684   75.6366    2.7594 C.3     1  UNL1        0.1693
     45 O          17.4243   75.1531    2.7135 O.3     1  UNL1       -0.3794
     46 H          16.7543   75.8501    2.7284 H       1  UNL1        0.2105
@<TRIPOS>BOND
     1    29    30    1
     2    30    41    1
     3    30    31    1
     4    31    34    1
     5    31    32    1
     6    32    35    1
     7    32    33    1
     8    33    36    1
     9    33    44    1
    10    39    40    1
    11    39    42    2
    12    39    41   am
    13    41    43    1
    14    29    28    1
    15    34    37    1
    16    35    38    1
    17    29    36    1
    18    44    45    1
    19    45    46    1
    20    15     6    1
    21    15    16   ar
    22    16    21    2
    23    16    17   ar
    24    17    23    1
    25    17    18   ar
    26    18    19   ar
    27    19    20   ar
    28    15    20   ar
    29    18    22    2
    30     6     7    1
    31     6    11    1
    32     7     9    1
    33     7     8    1
    34     8    13    1
    35     9    10    1
    36     9    12    1
    37    10     5    1
    38    10    11    1
    39    12    14    1
    40     5     4    1
    41     4     1    1
    42     1     2    1
    43     1    24    1
    44     1     3    2
    45    24    25    1
    46    28    25    1
    47    25    26    1
    48    25    27    2
@<TRIPOS>MOLECULE
UD2
 46 48 0 0 0
SMALL
GASTEIGER

@<TRIPOS>ATOM
      1 P          20.7643   70.9186   -3.3721 P.3     1  UNL1        0.2189
      2 O          21.0866   70.3464   -1.9023 O.3     1  UNL1       -0.4371
      3 O          20.6235   69.7921   -4.3208 O.2     1  UNL1       -0.5170
      4 O          19.3920   71.7605   -3.3310 O.3     1  UNL1       -0.3112
      5 C          18.2466   71.3437   -2.5854 C.3     1  UNL1        0.1811
      6 C          16.8496   70.5022   -5.7912 C.3     1  UNL1        0.2383
      7 C          17.0737   69.1367   -5.0932 C.3     1  UNL1        0.1895
      8 O          16.1017   68.1801   -5.5199 O.3     1  UNL1       -0.3779
      9 C          16.8750   69.4978   -3.6007 C.3     1  UNL1        0.1713
     10 C          17.1014   71.0208   -3.5484 C.3     1  UNL1        0.1764
     11 O          17.4443   71.4482   -4.8763 O.3     1  UNL1       -0.3308
     12 O          15.5481   69.1744   -3.1815 O.3     1  UNL1       -0.3794
     13 H          16.2006   67.3095   -5.1114 H       1  UNL1        0.2106
     14 H          15.3313   68.2348   -3.2498 H       1  UNL1        0.2105
     15 N          17.5322   70.5376   -7.0865 N.ar    1  UNL1       -0.2551
     16 C          16.8096   70.5384   -8.2208 C.ar    1  UNL1        0.3323
     17 N          17.4105   70.5703   -9.4250 N.ar    1  UNL1       -0.2743
     18 C          18.7559   70.6039   -9.5115 C.ar    1  UNL1        0.2626
     19 C          19.5289   70.6045   -8.3255 C.ar    1  UNL1        0.0795
     20 C          18.8999   70.5764   -7.1318 C.ar    1  UNL1        0.0869
     21 O          15.5957   70.5085   -8.1579 O.2     1  UNL1       -0.2464
     22 O          19.3010   70.6332  -10.6008 O.2     1  UNL1       -0.2670
     23 H          16.8745   70.5692  -10.2330 H       1  UNL1        0.1734
     24 O          21.9667   71.8768   -3.8509 O.3     1  UNL1       -0.2703
     25 P          23.4513   72.1681   -3.2993 P.3     1  UNL1        0.2208
     26 O          24.1982   70.7715   -3.0067 O.3     1  UNL1       -0.4371
     27 O          24.2131   72.9315   -4.3119 O.2     1  UNL1       -0.5170
     28 O          23.3598   73.0237   -1.9383 O.3     1  UNL1       -0.2865
     29 C          22.1441   73.6064   -1.4654 C.3     1  UNL1        0.2611
     30 C          22.4286   75.0051   -0.9129 C.3     1  UNL1        0.1582
     31 C          23.3834   74.8892    0.2793 C.3     1  UNL1        0.1625
     32 C          22.7611   73.9655    1.3301 C.3     1  UNL1        0.1686
     33 C          22.4637   72.6065    0.6909 C.3     1  UNL1        0.1760
     34 O          23.5968   76.1834    0.8474 O.3     1  UNL1       -0.3801
     35 O          21.5468   74.5423    1.8139 O.3     1  UNL1       -0.3794
     36 O          21.5957   72.7887   -0.4296 O.3     1  UNL1       -0.3263
     37 H          24.1937   76.1849    1.6083 H       1  UNL1        0.2105
     38 H          21.0969   74.0089    2.4841 H       1  UNL1        0.2105
     39 C          24.3880   75.8728   -2.0729 C.2     1  UNL1        0.2231
     40 C          25.0236   76.7176   -3.1458 C.3     1  UNL1        0.0946
     41 N          23.0462   75.8272   -1.9566 N.am    1  UNL1       -0.2994
     42 O          25.0841   75.2329   -1.3126 O.2     1  UNL1       -0.2751
     43 H          22.4893   76.3395   -2.5636 H       1  UNL1        0.1496
     44 C          21.7869   71.6972    1.7182 C.3     1  UNL1        0.1693
     45 O          21.5946   70.3988    1.1528 O.3     1  UNL1       -0.3794
     46 H          21.1691   69.7683    1.7498 H       1  UNL1        0.2105
@<TRIPOS>BOND
     1    29    30    1
     2    30    41    1
     3    30    31    1
     4    31    34    1
     5    31    32    1
     6    32    35    1
     7    32    33    1
     8    33    36    1
     9    33    44    1
    10    39    40    1
    11    39    42    2
    12    39    41   am
    13    41    43    1
    14    29    28    1
    15    34    37    1
    16    35    38    1
    17    29    36    1
    18    44    45    1
    19    45    46    1
    20    15     6    1
    21    15    16   ar
    22    16    21    2
    23    16    17   ar
    24    17    23    1
    25    17    18   ar
    26    18    19   ar
    27    19    20   ar
    28    15    20   ar
    29    18    22    2
    30     6     7    1
    31     6    11    1
    32     7     9    1
    33     7     8    1
    34     8    13    1
    35     9    10    1
    36     9    12    1
    37    10     5    1
    38    10    11    1
    39    12    14    1
    40     5     4    1
    41     4     1    1
    42     1     2    1
    43     1    24    1
    44     1     3    2
    45    24    25    1
    46    28    25    1
    47    25    26    1
    48    25    27    2
@<TRIPOS>MOLECULE
UD2
 46 48 0 0 0
SMALL
GASTEIGER

@<TRIPOS>ATOM
      1 P          22.1361   71.1318    0.3836 P.3     1  UNL1        0.2189
      2 O          23.7345   70.9937    0.2516 O.3     1  UNL1       -0.4371
      3 O          21.6141   70.0373    1.2312 O.2     1  UNL1       -0.5170
      4 O          21.7738   72.5501    1.0551 O.3     1  UNL1       -0.3112
      5 C          21.7977   72.7704    2.4666 C.3     1  UNL1        0.1811
      6 C          25.0759   74.1309    3.0486 C.3     1  UNL1        0.2383
      7 C          24.8238   74.3553    1.5359 C.3     1  UNL1        0.1895
      8 O          25.4952   75.5296    1.0755 O.3     1  UNL1       -0.3779
      9 C          23.2875   74.5421    1.4864 C.3     1  UNL1        0.1713
     10 C          22.7870   73.8926    2.7906 C.3     1  UNL1        0.1764
     11 O          23.9335   73.3530    3.4673 O.3     1  UNL1       -0.3308
     12 O          22.9545   75.9310    1.4590 O.3     1  UNL1       -0.3794
     13 H          25.3683   75.7122    0.1347 H       1  UNL1        0.2106
     14 H          23.2960   76.4030    0.6876 H       1  UNL1        0.2105
     15 N          26.3163   73.3812    3.2591 N.ar    1  UNL1       -0.2551
     16 C          27.2962   73.9121    4.0119 C.ar    1  UNL1        0.3323
     17 N          28.4468   73.2455    4.2221 N.ar    1  UNL1       -0.2743
     18 C          28.6337   72.0259    3.6779 C.ar    1  UNL1        0.2626
     19 C          27.6101   71.4546    2.8841 C.ar    1  UNL1        0.0795
     20 C          26.4653   72.1434    2.6936 C.ar    1  UNL1        0.0869
     21 O          27.1414   75.0109    4.5090 O.2     1  UNL1       -0.2464
     22 O          29.6744   71.4213    3.8677 O.2     1  UNL1       -0.2670
     23 H          29.1436   73.6433    4.7665 H       1  UNL1        0.1734
     24 O          21.4669   71.0446   -1.0785 O.3     1  UNL1       -0.2703
     25 P          21.8812   71.5992   -2.5324 P.3     1  UNL1        0.2208
     26 O          22.1524   73.1843   -2.4442 O.3     1  UNL1       -0.4371
     27 O          23.1096   70.9139   -2.9905 O.2     1  UNL1       -0.5170
     28 O          20.6874   71.3157   -3.5750 O.3     1  UNL1       -0.2865
     29 C          19.8988   72.3553   -4.1569 C.3     1  UNL1        0.2611
     30 C          18.5901   71.7670   -4.6897 C.3     1  UNL1        0.1582
     31 C          18.9081   70.7520   -5.7920 C.3     1  UNL1        0.1625
     32 C          19.7224   71.4439   -6.8887 C.3     1  UNL1        0.1686
     33 C          20.9878   72.0448   -6.2709 C.3     1  UNL1        0.1760
     34 O          17.6891   70.2516   -6.3460 O.3     1  UNL1       -0.3801
     35 O          18.9401   72.4822   -7.4813 O.3     1  UNL1       -0.3794
     36 O          20.6225   72.9562   -5.2327 O.3     1  UNL1       -0.3263
     37 H          17.8155   69.6019   -7.0511 H       1  UNL1        0.2105
     38 H          19.3949   72.9649   -8.1857 H       1  UNL1        0.2105
     39 C          18.0933   69.7918   -3.3520 C.2     1  UNL1        0.2231
     40 C          17.3585   69.1036   -2.2317 C.3     1  UNL1        0.0946
     41 N          17.8748   71.0983   -3.5999 N.am    1  UNL1       -0.2994
     42 O          18.8825   69.1699   -4.0322 O.2     1  UNL1       -0.2751
     43 H          17.2432   71.5956   -3.0570 H       1  UNL1        0.1496
     44 C          21.7774   72.7893   -7.3492 C.3     1  UNL1        0.1693
     45 O          23.1574   72.4274   -7.2654 O.3     1  UNL1       -0.3794
     46 H          23.7193   72.8629   -7.9209 H       1  UNL1        0.2105
@<TRIPOS>BOND
     1    29    30    1
     2    30    41    1
     3    30    31    1
     4    31    34    1
     5    31    32    1
     6    32    35    1
     7    32    33    1
     8    33    36    1
     9    33    44    1
    10    39    40    1
    11    39    42    2
    12    39    41   am
    13    41    43    1
    14    29    28    1
    15    34    37    1
    16    35    38    1
    17    29    36    1
    18    44    45    1
    19    45    46    1
    20    15     6    1
    21    15    16   ar
    22    16    21    2
    23    16    17   ar
    24    17    23    1
    25    17    18   ar
    26    18    19   ar
    27    19    20   ar
    28    15    20   ar
    29    18    22    2
    30     6     7    1
    31     6    11    1
    32     7     9    1
    33     7     8    1
    34     8    13    1
    35     9    10    1
    36     9    12    1
    37    10     5    1
    38    10    11    1
    39    12    14    1
    40     5     4    1
    41     4     1    1
    42     1     2    1
    43     1    24    1
    44     1     3    2
    45    24    25    1
    46    28    25    1
    47    25    26    1
    48    25    27    2
@<TRIPOS>MOLECULE
UD2
 46 48 0 0 0
SMALL
GASTEIGER

@<TRIPOS>ATOM
      1 P          22.8471   71.5642   -2.3791 P.3     1  UNL1        0.2189
      2 O          24.1252   70.9102   -3.1074 O.3     1  UNL1       -0.4371
      3 O          23.0061   73.0342   -2.3285 O.2     1  UNL1       -0.5170
      4 O          21.5134   71.1965   -3.2036 O.3     1  UNL1       -0.3112
      5 C          20.5511   70.2469   -2.7415 C.3     1  UNL1        0.1811
      6 C          18.0627   70.5984   -5.3146 C.3     1  UNL1        0.2383
      7 C          17.8012   69.1961   -4.7086 C.3     1  UNL1        0.1895
      8 O          16.4153   68.8569   -4.7869 O.3     1  UNL1       -0.3779
      9 C          18.2399   69.3910   -3.2365 C.3     1  UNL1        0.1713
     10 C          19.1676   70.6202   -3.2797 C.3     1  UNL1        0.1764
     11 O          19.2714   71.0299   -4.6526 O.3     1  UNL1       -0.3308
     12 O          17.1052   69.6491   -2.4078 O.3     1  UNL1       -0.3794
     13 H          16.2015   67.9881   -4.4208 H       1  UNL1        0.2106
     14 H          16.4583   68.9309   -2.3905 H       1  UNL1        0.2105
     15 N          18.2717   70.5043   -6.7612 N.ar    1  UNL1       -0.2551
     16 C          17.2151   70.5550   -7.5918 C.ar    1  UNL1        0.3323
     17 N          17.3777   70.4708   -8.9255 N.ar    1  UNL1       -0.2743
     18 C          18.6120   70.3352   -9.4515 C.ar    1  UNL1        0.2626
     19 C          19.7332   70.2815   -8.5889 C.ar    1  UNL1        0.0795
     20 C          19.5412   70.3726   -7.2561 C.ar    1  UNL1        0.0869
     21 O          16.0964   70.6772   -7.1315 O.2     1  UNL1       -0.2464
     22 O          18.7606   70.2593  -10.6585 O.2     1  UNL1       -0.2670
     23 H          16.6051   70.5078   -9.5101 H       1  UNL1        0.1734
     24 O          22.7279   70.9850   -0.8812 O.3     1  UNL1       -0.2703
     25 P          21.8454   71.3848    0.4049 P.3     1  UNL1        0.2208
     26 O          20.4801   72.0884   -0.0794 O.3     1  UNL1       -0.4371
     27 O          21.5238   70.1671    1.1808 O.2     1  UNL1       -0.5170
     28 O          22.6775   72.4069    1.3300 O.3     1  UNL1       -0.2865
     29 C          22.9009   72.1895    2.7243 C.3     1  UNL1        0.2611
     30 C          22.5367   73.4553    3.5038 C.3     1  UNL1        0.1582
     31 C          23.4525   74.5997    3.0590 C.3     1  UNL1        0.1625
     32 C          24.9108   74.1852    3.2737 C.3     1  UNL1        0.1686
     33 C          25.1835   72.8910    2.5027 C.3     1  UNL1        0.1760
     34 O          23.1687   75.7668    3.8340 O.3     1  UNL1       -0.3801
     35 O          25.1463   73.9708    4.6665 O.3     1  UNL1       -0.3794
     36 O          24.2782   71.8766    2.9425 O.3     1  UNL1       -0.3263
     37 H          23.7127   76.5327    3.6045 H       1  UNL1        0.2105
     38 H          26.0523   73.7042    4.8764 H       1  UNL1        0.2105
     39 C          20.8474   74.6935    2.2584 C.2     1  UNL1        0.2231
     40 C          19.4133   75.0601    1.9803 C.3     1  UNL1        0.0946
     41 N          21.1414   73.8116    3.2341 N.am    1  UNL1       -0.2994
     42 O          21.7391   75.1922    1.6038 O.2     1  UNL1       -0.2751
     43 H          20.4289   73.4134    3.7583 H       1  UNL1        0.1496
     44 C          26.6218   72.4378    2.7601 C.3     1  UNL1        0.1693
     45 O          26.7116   71.0206    2.5991 O.3     1  UNL1       -0.3794
     46 H          27.5974   70.6626    2.7476 H       1  UNL1        0.2105
@<TRIPOS>BOND
     1    29    30    1
     2    30    41    1
     3    30    31    1
     4    31    34    1
     5    31    32    1
     6    32    35    1
     7    32    33    1
     8    33    36    1
     9    33    44    1
    10    39    40    1
    11    39    42    2
    12    39    41   am
    13    41    43    1
    14    29    28    1
    15    34    37    1
    16    35    38    1
    17    29    36    1
    18    44    45    1
    19    45    46    1
    20    15     6    1
    21    15    16   ar
    22    16    21    2
    23    16    17   ar
    24    17    23    1
    25    17    18   ar
    26    18    19   ar
    27    19    20   ar
    28    15    20   ar
    29    18    22    2
    30     6     7    1
    31     6    11    1
    32     7     9    1
    33     7     8    1
    34     8    13    1
    35     9    10    1
    36     9    12    1
    37    10     5    1
    38    10    11    1
    39    12    14    1
    40     5     4    1
    41     4     1    1
    42     1     2    1
    43     1    24    1
    44     1     3    2
    45    24    25    1
    46    28    25    1
    47    25    26    1
    48    25    27    2
@<TRIPOS>MOLECULE
UD2
 46 48 0 0 0
SMALL
GASTEIGER

@<TRIPOS>ATOM
      1 P          23.4172   72.0351   -3.3480 P.3     1  UNL1        0.2189
      2 O          24.2217   72.8069   -4.5092 O.3     1  UNL1       -0.4371
      3 O          24.1648   70.8214   -2.9520 O.2     1  UNL1       -0.5170
      4 O          23.2540   73.0050   -2.0727 O.3     1  UNL1       -0.3112
      5 C          21.9983   73.2460   -1.4352 C.3     1  UNL1        0.1811
      6 C          23.3049   72.0417    1.6920 C.3     1  UNL1        0.2383
      7 C          22.5402   73.3379    2.0624 C.3     1  UNL1        0.1895
      8 O          22.0023   73.2529    3.3835 O.3     1  UNL1       -0.3779
      9 C          21.4086   73.3613    1.0058 C.3     1  UNL1        0.1713
     10 C          21.9314   72.4560   -0.1259 C.3     1  UNL1        0.1764
     11 O          23.2475   72.0192    0.2491 O.3     1  UNL1       -0.3308
     12 O          20.2019   72.8295    1.5552 O.3     1  UNL1       -0.3794
     13 H          21.5153   74.0404    3.6616 H       1  UNL1        0.2106
     14 H          19.8596   73.3274    2.3098 H       1  UNL1        0.2105
     15 N          24.6934   72.1125    2.1524 N.ar    1  UNL1       -0.2551
     16 C          25.4284   70.9888    2.2283 C.ar    1  UNL1        0.3323
     17 N          26.7069   71.0242    2.6482 N.ar    1  UNL1       -0.2743
     18 C          27.2736   72.1964    2.9997 C.ar    1  UNL1        0.2626
     19 C          26.5118   73.3872    2.9237 C.ar    1  UNL1        0.0795
     20 C          25.2336   73.3228    2.4952 C.ar    1  UNL1        0.0869
     21 O          24.9305   69.9248    1.9145 O.2     1  UNL1       -0.2464
     22 O          28.4308   72.2299    3.3795 O.2     1  UNL1       -0.2670
     23 H          27.2224   70.2045    2.6982 H       1  UNL1        0.1734
     24 O          21.9607   71.6153   -3.8918 O.3     1  UNL1       -0.2703
     25 P          20.9715   72.2121   -5.0135 P.3     1  UNL1        0.2208
     26 O          20.9394   73.8183   -4.9003 O.3     1  UNL1       -0.4371
     27 O          21.4552   71.8223   -6.3561 O.2     1  UNL1       -0.5170
     28 O          19.4883   71.6279   -4.7865 O.3     1  UNL1       -0.2865
     29 C          19.1348   70.2717   -5.0642 C.3     1  UNL1        0.2611
     30 C          18.0725   70.2355   -6.1655 C.3     1  UNL1        0.1582
     31 C          16.8124   70.9527   -5.6712 C.3     1  UNL1        0.1625
     32 C          16.3321   70.2860   -4.3792 C.3     1  UNL1        0.1686
     33 C          17.4619   70.3204   -3.3465 C.3     1  UNL1        0.1760
     34 O          15.7895   70.8599   -6.6654 O.3     1  UNL1       -0.3801
     35 O          15.9705   68.9300   -4.6473 O.3     1  UNL1       -0.3794
     36 O          18.6133   69.6639   -3.8805 O.3     1  UNL1       -0.3263
     37 H          14.9615   71.2943   -6.4189 H       1  UNL1        0.2105
     38 H          15.6567   68.4451   -3.8712 H       1  UNL1        0.2105
     39 C          18.7276   70.2265   -8.5125 C.2     1  UNL1        0.2231
     40 C          19.2527   70.9206   -9.7418 C.3     1  UNL1        0.0946
     41 N          18.5836   70.9113   -7.3607 N.am    1  UNL1       -0.2994
     42 O          18.4340   69.0502   -8.5586 O.2     1  UNL1       -0.2751
     43 H          18.8191   71.8516   -7.3231 H       1  UNL1        0.1496
     44 C          17.0103   69.6031   -2.0729 C.3     1  UNL1        0.1693
     45 O          17.3911   68.2273   -2.1397 O.3     1  UNL1       -0.3794
     46 H          17.1361   67.7099   -1.3636 H       1  UNL1        0.2105
@<TRIPOS>BOND
     1    29    30    1
     2    30    41    1
     3    30    31    1
     4    31    34    1
     5    31    32    1
     6    32    35    1
     7    32    33    1
     8    33    36    1
     9    33    44    1
    10    39    40    1
    11    39    42    2
    12    39    41   am
    13    41    43    1
    14    29    28    1
    15    34    37    1
    16    35    38    1
    17    29    36    1
    18    44    45    1
    19    45    46    1
    20    15     6    1
    21    15    16   ar
    22    16    21    2
    23    16    17   ar
    24    17    23    1
    25    17    18   ar
    26    18    19   ar
    27    19    20   ar
    28    15    20   ar
    29    18    22    2
    30     6     7    1
    31     6    11    1
    32     7     9    1
    33     7     8    1
    34     8    13    1
    35     9    10    1
    36     9    12    1
    37    10     5    1
    38    10    11    1
    39    12    14    1
    40     5     4    1
    41     4     1    1
    42     1     2    1
    43     1    24    1
    44     1     3    2
    45    24    25    1
    46    28    25    1
    47    25    26    1
    48    25    27    2
@<TRIPOS>MOLECULE
UD2
 46 48 0 0 0
SMALL
GASTEIGER

@<TRIPOS>ATOM
      1 P          16.3974   69.7269   -2.3410 P.3     1  UNL1        0.2189
      2 O          16.3063   69.0417   -3.7949 O.3     1  UNL1       -0.4371
      3 O          15.6612   71.0102   -2.3528 O.2     1  UNL1       -0.5170
      4 O          15.7462   68.7447   -1.2433 O.3     1  UNL1       -0.3112
      5 C          14.7647   69.1764   -0.2991 C.3     1  UNL1        0.1811
      6 C          13.0112   67.0709    2.0310 C.3     1  UNL1        0.2383
      7 C          11.9627   68.1247    1.5925 C.3     1  UNL1        0.1895
      8 O          10.6445   67.5738    1.6181 O.3     1  UNL1       -0.3779
      9 C          12.4027   68.4371    0.1412 C.3     1  UNL1        0.1713
     10 C          13.8768   67.9920    0.0907 C.3     1  UNL1        0.1764
     11 O          14.2290   67.5284    1.4039 O.3     1  UNL1       -0.3308
     12 O          11.6210   67.6866   -0.7896 O.3     1  UNL1       -0.3794
     13 H           9.9531   68.1950    1.3522 H       1  UNL1        0.2106
     14 H          10.6752   67.8842   -0.7594 H       1  UNL1        0.2105
     15 N          13.1536   67.0604    3.4886 N.ar    1  UNL1       -0.2551
     16 C          12.9341   65.9227    4.1714 C.ar    1  UNL1        0.3323
     17 N          13.0574   65.8841    5.5114 N.ar    1  UNL1       -0.2743
     18 C          13.4072   66.9939    6.1930 C.ar    1  UNL1        0.2626
     19 C          13.6423   68.1981    5.4869 C.ar    1  UNL1        0.0795
     20 C          13.5155   68.2069    4.1433 C.ar    1  UNL1        0.0869
     21 O          12.6183   64.9143    3.5699 O.2     1  UNL1       -0.2464
     22 O          13.5196   66.9602    7.4058 O.2     1  UNL1       -0.2670
     23 H          12.8944   65.0558    5.9883 H       1  UNL1        0.1734
     24 O          17.9411   69.9967   -1.9703 O.3     1  UNL1       -0.2703
     25 P          19.0179   71.1105   -2.4091 P.3     1  UNL1        0.2208
     26 O          18.7736   72.4566   -1.5593 O.3     1  UNL1       -0.4371
     27 O          20.3840   70.6055   -2.1501 O.2     1  UNL1       -0.5170
     28 O          18.8515   71.4287   -3.9787 O.3     1  UNL1       -0.2865
     29 C          19.6246   70.7807   -4.9906 C.3     1  UNL1        0.2611
     30 C          20.5057   71.8120   -5.6997 C.3     1  UNL1        0.1582
     31 C          19.6114   72.8471   -6.3890 C.3     1  UNL1        0.1625
     32 C          18.6675   72.1273   -7.3560 C.3     1  UNL1        0.1686
     33 C          17.8570   71.0836   -6.5829 C.3     1  UNL1        0.1760
     34 O          20.4243   73.7722   -7.1149 O.3     1  UNL1       -0.3801
     35 O          19.4309   71.4803   -8.3759 O.3     1  UNL1       -0.3794
     36 O          18.7489   70.1703   -5.9407 O.3     1  UNL1       -0.3263
     37 H          19.9225   74.4578   -7.5767 H       1  UNL1        0.2105
     38 H          18.8960   71.0024   -9.0251 H       1  UNL1        0.2105
     39 C          22.6547   72.7295   -5.0084 C.2     1  UNL1        0.2231
     40 C          23.5360   73.4179   -3.9994 C.3     1  UNL1        0.0946
     41 N          21.3624   72.4815   -4.7176 N.am    1  UNL1       -0.2994
     42 O          23.1081   72.3976   -6.0838 O.2     1  UNL1       -0.2751
     43 H          20.9997   72.7458   -3.8576 H       1  UNL1        0.1496
     44 C          16.9541   70.3187   -7.5525 C.3     1  UNL1        0.1693
     45 O          15.6011   70.3842   -7.0970 O.3     1  UNL1       -0.3794
     46 H          14.9714   69.9195   -7.6649 H       1  UNL1        0.2105
@<TRIPOS>BOND
     1    29    30    1
     2    30    41    1
     3    30    31    1
     4    31    34    1
     5    31    32    1
     6    32    35    1
     7    32    33    1
     8    33    36    1
     9    33    44    1
    10    39    40    1
    11    39    42    2
    12    39    41   am
    13    41    43    1
    14    29    28    1
    15    34    37    1
    16    35    38    1
    17    29    36    1
    18    44    45    1
    19    45    46    1
    20    15     6    1
    21    15    16   ar
    22    16    21    2
    23    16    17   ar
    24    17    23    1
    25    17    18   ar
    26    18    19   ar
    27    19    20   ar
    28    15    20   ar
    29    18    22    2
    30     6     7    1
    31     6    11    1
    32     7     9    1
    33     7     8    1
    34     8    13    1
    35     9    10    1
    36     9    12    1
    37    10     5    1
    38    10    11    1
    39    12    14    1
    40     5     4    1
    41     4     1    1
    42     1     2    1
    43     1    24    1
    44     1     3    2
    45    24    25    1
    46    28    25    1
    47    25    26    1
    48    25    27    2
@<TRIPOS>MOLECULE
UD2
 46 48 0 0 0
SMALL
GASTEIGER

@<TRIPOS>ATOM
      1 P          22.5182   71.1422    0.1330 P.3     1  UNL1        0.2189
      2 O          24.1022   71.0381    0.4002 O.3     1  UNL1       -0.4371
      3 O          21.8288   70.0202    0.8073 O.2     1  UNL1       -0.5170
      4 O          21.9665   72.5388    0.7152 O.3     1  UNL1       -0.3112
      5 C          21.9307   73.7418   -0.0549 C.3     1  UNL1        0.1811
      6 C          23.6229   75.2046    2.7617 C.3     1  UNL1        0.2383
      7 C          24.7203   74.3951    2.0252 C.3     1  UNL1        0.1895
      8 O          26.0021   75.0041    2.1924 O.3     1  UNL1       -0.3779
      9 C          24.2551   74.4830    0.5510 C.3     1  UNL1        0.1713
     10 C          22.7555   74.8222    0.6490 C.3     1  UNL1        0.1764
     11 O          22.4166   74.8643    2.0443 O.3     1  UNL1       -0.3308
     12 O          24.9593   75.5206   -0.1333 O.3     1  UNL1       -0.3794
     13 H          26.7219   74.5340    1.7503 H       1  UNL1        0.2106
     14 H          25.9160   75.3877   -0.1730 H       1  UNL1        0.2105
     15 N          23.5260   74.7867    4.1621 N.ar    1  UNL1       -0.2551
     16 C          24.2297   75.4410    5.1030 C.ar    1  UNL1        0.3323
     17 N          24.1600   75.0785    6.3976 N.ar    1  UNL1       -0.2743
     18 C          23.3759   74.0472    6.7723 C.ar    1  UNL1        0.2626
     19 C          22.6288   73.3502    5.7924 C.ar    1  UNL1        0.0795
     20 C          22.7146   73.7380    4.5026 C.ar    1  UNL1        0.0869
     21 O          24.9406   76.3729    4.7796 O.2     1  UNL1       -0.2464
     22 O          23.3116   73.7183    7.9437 O.2     1  UNL1       -0.2670
     23 H          24.6749   75.5602    7.0630 H       1  UNL1        0.1734
     24 O          22.2350   71.0725   -1.4507 O.3     1  UNL1       -0.2703
     25 P          23.0675   71.5163   -2.7557 P.3     1  UNL1        0.2208
     26 O          23.5618   73.0394   -2.5840 O.3     1  UNL1       -0.4371
     27 O          24.2425   70.6321   -2.9160 O.2     1  UNL1       -0.5170
     28 O          22.1266   71.4005   -4.0573 O.3     1  UNL1       -0.2865
     29 C          21.0831   72.3319   -4.3489 C.3     1  UNL1        0.2611
     30 C          19.8861   71.5880   -4.9460 C.3     1  UNL1        0.1582
     31 C          20.3085   70.9346   -6.2655 C.3     1  UNL1        0.1625
     32 C          20.8496   72.0141   -7.2070 C.3     1  UNL1        0.1686
     33 C          22.0098   72.7417   -6.5226 C.3     1  UNL1        0.1760
     34 O          19.1780   70.2994   -6.8669 O.3     1  UNL1       -0.3801
     35 O          19.8115   72.9480   -7.5097 O.3     1  UNL1       -0.3794
     36 O          21.5575   73.2997   -5.2873 O.3     1  UNL1       -0.3263
     37 H          19.3734   69.8633   -7.7076 H       1  UNL1        0.2105
     38 H          20.0845   73.6620   -8.1026 H       1  UNL1        0.2105
     39 C          18.1712   70.5718   -3.5446 C.2     1  UNL1        0.2231
     40 C          17.7073   69.5097   -2.5826 C.3     1  UNL1        0.0946
     41 N          19.4357   70.5547   -4.0101 N.am    1  UNL1       -0.2994
     42 O          17.4062   71.4436   -3.9010 O.2     1  UNL1       -0.2751
     43 H          20.0479   69.8584   -3.7247 H       1  UNL1        0.1496
     44 C          22.5173   73.8615   -7.4330 C.3     1  UNL1        0.1693
     45 O          23.3520   73.3067   -8.4518 O.3     1  UNL1       -0.3794
     46 H          23.7102   73.9610   -9.0671 H       1  UNL1        0.2105
@<TRIPOS>BOND
     1    29    30    1
     2    30    41    1
     3    30    31    1
     4    31    34    1
     5    31    32    1
     6    32    35    1
     7    32    33    1
     8    33    36    1
     9    33    44    1
    10    39    40    1
    11    39    42    2
    12    39    41   am
    13    41    43    1
    14    29    28    1
    15    34    37    1
    16    35    38    1
    17    29    36    1
    18    44    45    1
    19    45    46    1
    20    15     6    1
    21    15    16   ar
    22    16    21    2
    23    16    17   ar
    24    17    23    1
    25    17    18   ar
    26    18    19   ar
    27    19    20   ar
    28    15    20   ar
    29    18    22    2
    30     6     7    1
    31     6    11    1
    32     7     9    1
    33     7     8    1
    34     8    13    1
    35     9    10    1
    36     9    12    1
    37    10     5    1
    38    10    11    1
    39    12    14    1
    40     5     4    1
    41     4     1    1
    42     1     2    1
    43     1    24    1
    44     1     3    2
    45    24    25    1
    46    28    25    1
    47    25    26    1
    48    25    27    2
@<TRIPOS>MOLECULE
UD2
 46 48 0 0 0
SMALL
GASTEIGER

@<TRIPOS>ATOM
      1 P          22.7552   72.9453   -4.2261 P.3     1  UNL1        0.2189
      2 O          23.2637   73.8938   -5.4232 O.3     1  UNL1       -0.4371
      3 O          23.7029   71.8232   -4.0484 O.2     1  UNL1       -0.5170
      4 O          22.6729   73.7993   -2.8631 O.3     1  UNL1       -0.3112
      5 C          21.4878   74.4765   -2.4407 C.3     1  UNL1        0.1811
      6 C          22.0297   73.0042    0.7959 C.3     1  UNL1        0.2383
      7 C          22.0272   74.5317    1.0581 C.3     1  UNL1        0.1895
      8 O          21.5296   74.8240    2.3653 O.3     1  UNL1       -0.3779
      9 C          21.0548   75.0471   -0.0311 C.3     1  UNL1        0.1713
     10 C          21.0405   73.9237   -1.0852 C.3     1  UNL1        0.1764
     11 O          21.9584   72.9108   -0.6435 O.3     1  UNL1       -0.3308
     12 O          19.7488   75.2372    0.5156 O.3     1  UNL1       -0.3794
     13 H          21.5091   75.7672    2.5768 H       1  UNL1        0.2106
     14 H          19.7102   75.8922    1.2256 H       1  UNL1        0.2105
     15 N          23.2671   72.3978    1.2919 N.ar    1  UNL1       -0.2551
     16 C          23.3562   71.0603    1.4020 C.ar    1  UNL1        0.3323
     17 N          24.4811   70.4759    1.8550 N.ar    1  UNL1       -0.2743
     18 C          25.5433   71.2290    2.2059 C.ar    1  UNL1        0.2626
     19 C          25.4637   72.6380    2.0941 C.ar    1  UNL1        0.0795
     20 C          24.3251   73.1968    1.6329 C.ar    1  UNL1        0.0869
     21 O          22.4064   70.3688    1.0890 O.2     1  UNL1       -0.2464
     22 O          26.5622   70.7013    2.6157 O.2     1  UNL1       -0.2670
     23 H          24.5281   69.5103    1.9293 H       1  UNL1        0.1734
     24 O          21.2963   72.3647   -4.5837 O.3     1  UNL1       -0.2703
     25 P          20.4129   71.1398   -4.0250 P.3     1  UNL1        0.2208
     26 O          21.3813   69.9112   -3.6423 O.3     1  UNL1       -0.4371
     27 O          19.6704   71.5751   -2.8219 O.2     1  UNL1       -0.5170
     28 O          19.3706   70.6692   -5.1585 O.3     1  UNL1       -0.2865
     29 C          18.3956   71.5429   -5.7305 C.3     1  UNL1        0.2611
     30 C          17.0029   70.9279   -5.5729 C.3     1  UNL1        0.1582
     31 C          16.9488   69.6040   -6.3414 C.3     1  UNL1        0.1625
     32 C          17.3068   69.8622   -7.8075 C.3     1  UNL1        0.1686
     33 C          18.6882   70.5184   -7.8790 C.3     1  UNL1        0.1760
     34 O          15.6299   69.0588   -6.2606 O.3     1  UNL1       -0.3801
     35 O          16.3340   70.7309   -8.3909 O.3     1  UNL1       -0.3794
     36 O          18.6789   71.7284   -7.1189 O.3     1  UNL1       -0.3263
     37 H          15.5233   68.2177   -6.7258 H       1  UNL1        0.2105
     38 H          16.4988   70.9386   -9.3213 H       1  UNL1        0.2105
     39 C          16.9924   69.4719   -3.6190 C.2     1  UNL1        0.2231
     40 C          16.7171   69.2179   -2.1602 C.3     1  UNL1        0.0946
     41 N          16.7345   70.6817   -4.1538 N.am    1  UNL1       -0.2994
     42 O          17.4468   68.5869   -4.3138 O.2     1  UNL1       -0.2751
     43 H          16.3703   71.3892   -3.5989 H       1  UNL1        0.1496
     44 C          19.0277   70.8341   -9.3369 C.3     1  UNL1        0.1693
     45 O          18.2155   70.0352  -10.1997 O.3     1  UNL1       -0.3794
     46 H          18.3774   70.1831  -11.1415 H       1  UNL1        0.2105
@<TRIPOS>BOND
     1    29    30    1
     2    30    41    1
     3    30    31    1
     4    31    34    1
     5    31    32    1
     6    32    35    1
     7    32    33    1
     8    33    36    1
     9    33    44    1
    10    39    40    1
    11    39    42    2
    12    39    41   am
    13    41    43    1
    14    29    28    1
    15    34    37    1
    16    35    38    1
    17    29    36    1
    18    44    45    1
    19    45    46    1
    20    15     6    1
    21    15    16   ar
    22    16    21    2
    23    16    17   ar
    24    17    23    1
    25    17    18   ar
    26    18    19   ar
    27    19    20   ar
    28    15    20   ar
    29    18    22    2
    30     6     7    1
    31     6    11    1
    32     7     9    1
    33     7     8    1
    34     8    13    1
    35     9    10    1
    36     9    12    1
    37    10     5    1
    38    10    11    1
    39    12    14    1
    40     5     4    1
    41     4     1    1
    42     1     2    1
    43     1    24    1
    44     1     3    2
    45    24    25    1
    46    28    25    1
    47    25    26    1
    48    25    27    2
@<TRIPOS>MOLECULE
UD2
 46 48 0 0 0
SMALL
GASTEIGER

@<TRIPOS>ATOM
      1 P          22.0741   73.0594   -6.7365 P.3     1  UNL1        0.2189
      2 O          22.9689   73.3045   -8.0521 O.3     1  UNL1       -0.4371
      3 O          21.5096   74.3471   -6.2762 O.2     1  UNL1       -0.5170
      4 O          20.8755   72.0418   -7.0849 O.3     1  UNL1       -0.3112
      5 C          20.7089   71.4495   -8.3744 C.3     1  UNL1        0.1811
      6 C          17.6888   70.0484   -7.0133 C.3     1  UNL1        0.2383
      7 C          17.2023   71.0524   -8.0891 C.3     1  UNL1        0.1895
      8 O          15.9716   70.6191   -8.6717 O.3     1  UNL1       -0.3779
      9 C          18.3519   71.0016   -9.1251 C.3     1  UNL1        0.1713
     10 C          19.5508   70.4496   -8.3303 C.3     1  UNL1        0.1764
     11 O          19.1161   70.2647   -6.9737 O.3     1  UNL1       -0.3308
     12 O          18.0164   70.1225  -10.1999 O.3     1  UNL1       -0.3794
     13 H          15.6262   71.2147   -9.3504 H       1  UNL1        0.2106
     14 H          17.2327   70.3906  -10.6983 H       1  UNL1        0.2105
     15 N          17.0845   70.3515   -5.7141 N.ar    1  UNL1       -0.2551
     16 C          16.4688   69.3765   -5.0218 C.ar    1  UNL1        0.3323
     17 N          15.9046   69.6266   -3.8254 N.ar    1  UNL1       -0.2743
     18 C          15.9507   70.8674   -3.2993 C.ar    1  UNL1        0.2626
     19 C          16.5965   71.9030   -4.0167 C.ar    1  UNL1        0.0795
     20 C          17.1573   71.6229   -5.2119 C.ar    1  UNL1        0.0869
     21 O          16.4197   68.2529   -5.4839 O.2     1  UNL1       -0.2464
     22 O          15.4408   71.0950   -2.2164 O.2     1  UNL1       -0.2670
     23 H          15.4636   68.9124   -3.3401 H       1  UNL1        0.1734
     24 O          22.9916   72.4287   -5.5730 O.3     1  UNL1       -0.2703
     25 P          23.3797   72.8923   -4.0806 P.3     1  UNL1        0.2208
     26 O          22.0399   73.0377   -3.1988 O.3     1  UNL1       -0.4371
     27 O          24.2674   71.8816   -3.4650 O.2     1  UNL1       -0.5170
     28 O          24.1402   74.3103   -4.1399 O.3     1  UNL1       -0.2865
     29 C          25.3357   74.5837   -3.4069 C.3     1  UNL1        0.2611
     30 C          25.0215   75.5424   -2.2558 C.3     1  UNL1        0.1582
     31 C          24.5151   76.8686   -2.8310 C.3     1  UNL1        0.1625
     32 C          25.5696   77.4343   -3.7861 C.3     1  UNL1        0.1686
     33 C          25.8627   76.4025   -4.8786 C.3     1  UNL1        0.1760
     34 O          24.2888   77.7952   -1.7664 O.3     1  UNL1       -0.3801
     35 O          26.7680   77.7168   -3.0614 O.3     1  UNL1       -0.3794
     36 O          26.2997   75.1832   -4.2750 O.3     1  UNL1       -0.3263
     37 H          23.9655   78.6584   -2.0588 H       1  UNL1        0.2105
     38 H          27.4816   78.0784   -3.6055 H       1  UNL1        0.2105
     39 C          24.1251   74.9935   -0.0574 C.2     1  UNL1        0.2231
     40 C          23.0645   74.3901    0.8256 C.3     1  UNL1        0.0946
     41 N          23.9895   74.9549   -1.3976 N.am    1  UNL1       -0.2994
     42 O          25.1025   75.5148    0.4378 O.2     1  UNL1       -0.2751
     43 H          23.2088   74.5374   -1.7940 H       1  UNL1        0.1496
     44 C          26.9588   76.9360   -5.8028 C.3     1  UNL1        0.1693
     45 O          27.1291   76.0433   -6.9058 O.3     1  UNL1       -0.3794
     46 H          27.8101   76.3193   -7.5344 H       1  UNL1        0.2105
@<TRIPOS>BOND
     1    29    30    1
     2    30    41    1
     3    30    31    1
     4    31    34    1
     5    31    32    1
     6    32    35    1
     7    32    33    1
     8    33    36    1
     9    33    44    1
    10    39    40    1
    11    39    42    2
    12    39    41   am
    13    41    43    1
    14    29    28    1
    15    34    37    1
    16    35    38    1
    17    29    36    1
    18    44    45    1
    19    45    46    1
    20    15     6    1
    21    15    16   ar
    22    16    21    2
    23    16    17   ar
    24    17    23    1
    25    17    18   ar
    26    18    19   ar
    27    19    20   ar
    28    15    20   ar
    29    18    22    2
    30     6     7    1
    31     6    11    1
    32     7     9    1
    33     7     8    1
    34     8    13    1
    35     9    10    1
    36     9    12    1
    37    10     5    1
    38    10    11    1
    39    12    14    1
    40     5     4    1
    41     4     1    1
    42     1     2    1
    43     1    24    1
    44     1     3    2
    45    24    25    1
    46    28    25    1
    47    25    26    1
    48    25    27    2
@<TRIPOS>MOLECULE
UD2
 46 48 0 0 0
SMALL
GASTEIGER

@<TRIPOS>ATOM
      1 P          20.7836   72.6022   -3.6427 P.3     1  UNL1        0.2189
      2 O          21.1092   71.2307   -4.4201 O.3     1  UNL1       -0.4371
      3 O          20.6324   73.7011   -4.6218 O.2     1  UNL1       -0.5170
      4 O          19.4161   72.4345   -2.8087 O.3     1  UNL1       -0.3112
      5 C          18.7875   71.1696   -2.5930 C.3     1  UNL1        0.1811
      6 C          17.0740   70.6465   -5.7118 C.3     1  UNL1        0.2383
      7 C          17.1198   69.2446   -5.0524 C.3     1  UNL1        0.1895
      8 O          15.9821   68.4664   -5.4289 O.3     1  UNL1       -0.3779
      9 C          17.0763   69.5929   -3.5443 C.3     1  UNL1        0.1713
     10 C          17.5469   71.0586   -3.4827 C.3     1  UNL1        0.1764
     11 O          17.8693   71.4612   -4.8234 O.3     1  UNL1       -0.3308
     12 O          15.7439   69.4734   -3.0430 O.3     1  UNL1       -0.3794
     13 H          15.9656   67.5806   -5.0419 H       1  UNL1        0.2106
     14 H          15.3754   68.5825   -3.1119 H       1  UNL1        0.2105
     15 N          17.6703   70.6073   -7.0489 N.ar    1  UNL1       -0.2551
     16 C          16.8772   70.4937   -8.1292 C.ar    1  UNL1        0.3323
     17 N          17.3980   70.4551   -9.3699 N.ar    1  UNL1       -0.2743
     18 C          18.7324   70.5321   -9.5487 C.ar    1  UNL1        0.2626
     19 C          19.5790   70.6529   -8.4205 C.ar    1  UNL1        0.0795
     20 C          19.0294   70.6935   -7.1885 C.ar    1  UNL1        0.0869
     21 O          15.6722   70.4235   -7.9830 O.2     1  UNL1       -0.2464
     22 O          19.2049   70.4977  -10.6712 O.2     1  UNL1       -0.2670
     23 H          16.8119   70.3717  -10.1379 H       1  UNL1        0.1734
     24 O          21.9891   72.9457   -2.6318 O.3     1  UNL1       -0.2703
     25 P          22.3762   72.4576   -1.1469 P.3     1  UNL1        0.2208
     26 O          22.1354   70.8700   -1.0245 O.3     1  UNL1       -0.4371
     27 O          23.7996   72.7618   -0.8827 O.2     1  UNL1       -0.5170
     28 O          21.4546   73.2251   -0.0725 O.3     1  UNL1       -0.2865
     29 C          20.4242   72.5755    0.6743 C.3     1  UNL1        0.2611
     30 C          19.3192   73.5822    1.0033 C.3     1  UNL1        0.1582
     31 C          19.8992   74.6950    1.8817 C.3     1  UNL1        0.1625
     32 C          20.5100   74.0717    3.1398 C.3     1  UNL1        0.1686
     33 C          21.5694   73.0459    2.7283 C.3     1  UNL1        0.1760
     34 O          18.8578   75.6004    2.2546 O.3     1  UNL1       -0.3801
     35 O          19.4862   73.4240    3.8972 O.3     1  UNL1       -0.3794
     36 O          20.9714   72.0566    1.8883 O.3     1  UNL1       -0.3263
     37 H          19.1547   76.3325    2.8123 H       1  UNL1        0.2105
     38 H          19.8026   73.0052    4.7099 H       1  UNL1        0.2105
     39 C          19.3379   75.2904   -0.7343 C.2     1  UNL1        0.2231
     40 C          18.8027   75.8847   -2.0106 C.3     1  UNL1        0.0946
     41 N          18.7979   74.1597   -0.2381 N.am    1  UNL1       -0.2994
     42 O          20.2557   75.8297   -0.1520 O.2     1  UNL1       -0.2751
     43 H          18.0635   73.7288   -0.7028 H       1  UNL1        0.1496
     44 C          22.1424   72.3754    3.9783 C.3     1  UNL1        0.1693
     45 O          21.7146   73.0882    5.1407 O.3     1  UNL1       -0.3794
     46 H          22.0412   72.7181    5.9721 H       1  UNL1        0.2105
@<TRIPOS>BOND
     1    29    30    1
     2    30    41    1
     3    30    31    1
     4    31    34    1
     5    31    32    1
     6    32    35    1
     7    32    33    1
     8    33    36    1
     9    33    44    1
    10    39    40    1
    11    39    42    2
    12    39    41   am
    13    41    43    1
    14    29    28    1
    15    34    37    1
    16    35    38    1
    17    29    36    1
    18    44    45    1
    19    45    46    1
    20    15     6    1
    21    15    16   ar
    22    16    21    2
    23    16    17   ar
    24    17    23    1
    25    17    18   ar
    26    18    19   ar
    27    19    20   ar
    28    15    20   ar
    29    18    22    2
    30     6     7    1
    31     6    11    1
    32     7     9    1
    33     7     8    1
    34     8    13    1
    35     9    10    1
    36     9    12    1
    37    10     5    1
    38    10    11    1
    39    12    14    1
    40     5     4    1
    41     4     1    1
    42     1     2    1
    43     1    24    1
    44     1     3    2
    45    24    25    1
    46    28    25    1
    47    25    26    1
    48    25    27    2
@<TRIPOS>MOLECULE
UD2
 46 48 0 0 0
SMALL
GASTEIGER

@<TRIPOS>ATOM
      1 P          22.6529   71.4160   -2.5373 P.3     1  UNL1        0.2189
      2 O          21.6948   70.1345   -2.7144 O.3     1  UNL1       -0.4371
      3 O          24.0566   71.0217   -2.7884 O.2     1  UNL1       -0.5170
      4 O          22.2203   72.5584   -3.5869 O.3     1  UNL1       -0.3112
      5 C          22.8495   72.7235   -4.8590 C.3     1  UNL1        0.1811
      6 C          19.6553   71.6757   -6.1378 C.3     1  UNL1        0.2383
      7 C          19.5308   73.2135   -5.9910 C.3     1  UNL1        0.1895
      8 O          18.6432   73.7496   -6.9742 O.3     1  UNL1       -0.3779
      9 C          20.9843   73.6831   -6.2445 C.3     1  UNL1        0.1713
     10 C          21.8380   72.4304   -5.9698 C.3     1  UNL1        0.1764
     11 O          20.9438   71.3861   -5.5535 O.3     1  UNL1       -0.3308
     12 O          21.1419   74.1093   -7.5988 O.3     1  UNL1       -0.3794
     13 H          18.5320   74.7086   -6.9229 H       1  UNL1        0.2106
     14 H          20.5830   74.8591   -7.8436 H       1  UNL1        0.2105
     15 N          18.5886   70.9988   -5.3968 N.ar    1  UNL1       -0.2551
     16 C          17.4758   70.6049   -6.0413 C.ar    1  UNL1        0.3323
     17 N          16.4795   69.9809   -5.3854 N.ar    1  UNL1       -0.2743
     18 C          16.5847   69.7385   -4.0630 C.ar    1  UNL1        0.2626
     19 C          17.7510   70.1468   -3.3722 C.ar    1  UNL1        0.0795
     20 C          18.7360   70.7666   -4.0557 C.ar    1  UNL1        0.0869
     21 O          17.3673   70.8167   -7.2336 O.2     1  UNL1       -0.2464
     22 O          15.6839   69.1735   -3.4683 O.2     1  UNL1       -0.2670
     23 H          15.6834   69.7046   -5.8651 H       1  UNL1        0.1734
     24 O          22.5153   71.9862   -1.0376 O.3     1  UNL1       -0.2703
     25 P          22.7528   71.3548    0.4246 P.3     1  UNL1        0.2208
     26 O          21.6625   70.2005    0.6937 O.3     1  UNL1       -0.4371
     27 O          24.1119   70.7754    0.4972 O.2     1  UNL1       -0.5170
     28 O          22.6002   72.5078    1.5381 O.3     1  UNL1       -0.2865
     29 C          21.3551   72.8284    2.1612 C.3     1  UNL1        0.2611
     30 C          20.8281   74.1512    1.5998 C.3     1  UNL1        0.1582
     31 C          21.8187   75.2699    1.9372 C.3     1  UNL1        0.1625
     32 C          22.0169   75.3212    3.4546 C.3     1  UNL1        0.1686
     33 C          22.4982   73.9529    3.9446 C.3     1  UNL1        0.1760
     34 O          21.2993   76.5209    1.4807 O.3     1  UNL1       -0.3801
     35 O          20.7780   75.6470    4.0873 O.3     1  UNL1       -0.3794
     36 O          21.5472   72.9537    3.5718 O.3     1  UNL1       -0.3263
     37 H          21.8768   77.2754    1.6610 H       1  UNL1        0.2105
     38 H          20.8293   75.6960    5.0521 H       1  UNL1        0.2105
     39 C          19.4651   73.9054   -0.4050 C.2     1  UNL1        0.2231
     40 C          19.3195   73.7953   -1.9001 C.3     1  UNL1        0.0946
     41 N          20.6873   74.0440    0.1454 N.am    1  UNL1       -0.2994
     42 O          18.4817   73.8691    0.3047 O.2     1  UNL1       -0.2751
     43 H          21.4739   74.0721   -0.4216 H       1  UNL1        0.1496
     44 C          22.6414   73.9783    5.4675 C.3     1  UNL1        0.1693
     45 O          22.4071   72.6692    5.9906 O.3     1  UNL1       -0.3794
     46 H          22.4814   72.6105    6.9529 H       1  UNL1        0.2105
@<TRIPOS>BOND
     1    29    30    1
     2    30    41    1
     3    30    31    1
     4    31    34    1
     5    31    32    1
     6    32    35    1
     7    32    33    1
     8    33    36    1
     9    33    44    1
    10    39    40    1
    11    39    42    2
    12    39    41   am
    13    41    43    1
    14    29    28    1
    15    34    37    1
    16    35    38    1
    17    29    36    1
    18    44    45    1
    19    45    46    1
    20    15     6    1
    21    15    16   ar
    22    16    21    2
    23    16    17   ar
    24    17    23    1
    25    17    18   ar
    26    18    19   ar
    27    19    20   ar
    28    15    20   ar
    29    18    22    2
    30     6     7    1
    31     6    11    1
    32     7     9    1
    33     7     8    1
    34     8    13    1
    35     9    10    1
    36     9    12    1
    37    10     5    1
    38    10    11    1
    39    12    14    1
    40     5     4    1
    41     4     1    1
    42     1     2    1
    43     1    24    1
    44     1     3    2
    45    24    25    1
    46    28    25    1
    47    25    26    1
    48    25    27    2
@<TRIPOS>MOLECULE
UD2
 46 48 0 0 0
SMALL
GASTEIGER

@<TRIPOS>ATOM
      1 P          22.0998   72.9875   -6.5735 P.3     1  UNL1        0.2189
      2 O          22.9567   73.2977   -7.9005 O.3     1  UNL1       -0.4371
      3 O          21.4706   74.2358   -6.0888 O.2     1  UNL1       -0.5170
      4 O          20.9555   71.9068   -6.9142 O.3     1  UNL1       -0.3112
      5 C          20.6541   71.4879   -8.2466 C.3     1  UNL1        0.1811
      6 C          17.5630   70.1641   -6.9701 C.3     1  UNL1        0.2383
      7 C          17.1343   71.1348   -8.0997 C.3     1  UNL1        0.1895
      8 O          15.9250   70.6934   -8.7198 O.3     1  UNL1       -0.3779
      9 C          18.3266   71.0370   -9.0826 C.3     1  UNL1        0.1713
     10 C          19.4841   70.5014   -8.2183 C.3     1  UNL1        0.1764
     11 O          18.9896   70.3679   -6.8762 O.3     1  UNL1       -0.3308
     12 O          18.0277   70.1243  -10.1402 O.3     1  UNL1       -0.3794
     13 H          15.6156   71.2685   -9.4328 H       1  UNL1        0.2106
     14 H          17.2692   70.3825  -10.6810 H       1  UNL1        0.2105
     15 N          16.9069   70.5180   -5.7093 N.ar    1  UNL1       -0.2551
     16 C          16.4919   69.5454   -4.8782 C.ar    1  UNL1        0.3323
     17 N          15.8859   69.8416   -3.7132 N.ar    1  UNL1       -0.2743
     18 C          15.6865   71.1276   -3.3596 C.ar    1  UNL1        0.2626
     19 C          16.1192   72.1614   -4.2244 C.ar    1  UNL1        0.0795
     20 C          16.7278   71.8356   -5.3842 C.ar    1  UNL1        0.0869
     21 O          16.6653   68.3815   -5.1841 O.2     1  UNL1       -0.2464
     22 O          15.1384   71.3969   -2.3052 O.2     1  UNL1       -0.2670
     23 H          15.5917   69.1281   -3.1262 H       1  UNL1        0.1734
     24 O          23.0714   72.3978   -5.4326 O.3     1  UNL1       -0.2703
     25 P          22.9901   72.3188   -3.8263 P.3     1  UNL1        0.2208
     26 O          21.5689   71.6986   -3.3913 O.3     1  UNL1       -0.4371
     27 O          24.0799   71.4569   -3.3187 O.2     1  UNL1       -0.5170
     28 O          23.1426   73.7977   -3.2080 O.3     1  UNL1       -0.2865
     29 C          23.9973   74.0948   -2.1023 C.3     1  UNL1        0.2611
     30 C          23.1890   74.0446   -0.8035 C.3     1  UNL1        0.1582
     31 C          22.0978   75.1186   -0.8495 C.3     1  UNL1        0.1625
     32 C          22.7506   76.4852   -1.0745 C.3     1  UNL1        0.1686
     33 C          23.5759   76.4412   -2.3633 C.3     1  UNL1        0.1760
     34 O          21.3849   75.1280    0.3895 O.3     1  UNL1       -0.3801
     35 O          23.6036   76.7946    0.0292 O.3     1  UNL1       -0.3794
     36 O          24.5516   75.4016   -2.2670 O.3     1  UNL1       -0.3263
     37 H          20.6767   75.7852    0.4303 H       1  UNL1        0.2105
     38 H          24.0520   77.6485   -0.0467 H       1  UNL1        0.2105
     39 C          22.5569   72.1105    0.5372 C.2     1  UNL1        0.2231
     40 C          21.9211   70.7529    0.6828 C.3     1  UNL1        0.0946
     41 N          22.5706   72.7239   -0.6627 N.am    1  UNL1       -0.2994
     42 O          23.0572   72.6527    1.5005 O.2     1  UNL1       -0.2751
     43 H          22.1717   72.2903   -1.4333 H       1  UNL1        0.1496
     44 C          24.2797   77.7847   -2.5639 C.3     1  UNL1        0.1693
     45 O          25.0533   77.7433   -3.7649 O.3     1  UNL1       -0.3794
     46 H          25.5282   78.5637   -3.9559 H       1  UNL1        0.2105
@<TRIPOS>BOND
     1    29    30    1
     2    30    41    1
     3    30    31    1
     4    31    34    1
     5    31    32    1
     6    32    35    1
     7    32    33    1
     8    33    36    1
     9    33    44    1
    10    39    40    1
    11    39    42    2
    12    39    41   am
    13    41    43    1
    14    29    28    1
    15    34    37    1
    16    35    38    1
    17    29    36    1
    18    44    45    1
    19    45    46    1
    20    15     6    1
    21    15    16   ar
    22    16    21    2
    23    16    17   ar
    24    17    23    1
    25    17    18   ar
    26    18    19   ar
    27    19    20   ar
    28    15    20   ar
    29    18    22    2
    30     6     7    1
    31     6    11    1
    32     7     9    1
    33     7     8    1
    34     8    13    1
    35     9    10    1
    36     9    12    1
    37    10     5    1
    38    10    11    1
    39    12    14    1
    40     5     4    1
    41     4     1    1
    42     1     2    1
    43     1    24    1
    44     1     3    2
    45    24    25    1
    46    28    25    1
    47    25    26    1
    48    25    27    2
@<TRIPOS>MOLECULE
UD2
 46 48 0 0 0
SMALL
GASTEIGER

@<TRIPOS>ATOM
      1 P          19.9816   72.1194   -1.9117 P.3     1  UNL1        0.2189
      2 O          21.1819   72.2287   -2.9788 O.3     1  UNL1       -0.4371
      3 O          19.6234   73.4719   -1.4309 O.2     1  UNL1       -0.5170
      4 O          18.6999   71.4422   -2.6134 O.3     1  UNL1       -0.3112
      5 C          17.4369   72.1007   -2.7256 C.3     1  UNL1        0.1811
      6 C          16.6580   70.4335   -5.8160 C.3     1  UNL1        0.2383
      7 C          17.2079   69.3134   -4.8967 C.3     1  UNL1        0.1895
      8 O          16.6057   68.0557   -5.2090 O.3     1  UNL1       -0.3779
      9 C          16.7721   69.8011   -3.4933 C.3     1  UNL1        0.1713
     10 C          16.5337   71.3120   -3.6770 C.3     1  UNL1        0.1764
     11 O          16.8586   71.6340   -5.0387 O.3     1  UNL1       -0.3308
     12 O          15.5663   69.1493   -3.0908 O.3     1  UNL1       -0.3794
     13 H          16.9179   67.3230   -4.6610 H       1  UNL1        0.2106
     14 H          15.6435   68.1885   -3.0167 H       1  UNL1        0.2105
     15 N          17.4185   70.4947   -7.0661 N.ar    1  UNL1       -0.2551
     16 C          16.7666   70.5814   -8.2392 C.ar    1  UNL1        0.3323
     17 N          17.4400   70.6390   -9.4035 N.ar    1  UNL1       -0.2743
     18 C          18.7882   70.6121   -9.4097 C.ar    1  UNL1        0.2626
     19 C          19.4874   70.5220   -8.1821 C.ar    1  UNL1        0.0795
     20 C          18.7868   70.4700   -7.0297 C.ar    1  UNL1        0.0869
     21 O          15.5510   70.6068   -8.2486 O.2     1  UNL1       -0.2464
     22 O          19.3989   70.6645  -10.4628 O.2     1  UNL1       -0.2670
     23 H          16.9543   70.7001  -10.2404 H       1  UNL1        0.1734
     24 O          20.4516   71.2136   -0.6659 O.3     1  UNL1       -0.2703
     25 P          21.5153   71.4170    0.5257 P.3     1  UNL1        0.2208
     26 O          21.8534   69.9903    1.1920 O.3     1  UNL1       -0.4371
     27 O          22.7556   72.0139   -0.0164 O.2     1  UNL1       -0.5170
     28 O          20.8909   72.3962    1.6410 O.3     1  UNL1       -0.2865
     29 C          21.3930   73.7100    1.8925 C.3     1  UNL1        0.2611
     30 C          22.8304   73.8152    1.3772 C.3     1  UNL1        0.1582
     31 C          23.7125   72.8254    2.1445 C.3     1  UNL1        0.1625
     32 C          23.6099   73.1222    3.6431 C.3     1  UNL1        0.1686
     33 C          22.1421   73.0435    4.0711 C.3     1  UNL1        0.1760
     34 O          25.0702   72.9687    1.7211 O.3     1  UNL1       -0.3801
     35 O          24.1152   74.4324    3.9062 O.3     1  UNL1       -0.3794
     36 O          21.3721   73.9664    3.2983 O.3     1  UNL1       -0.3263
     37 H          25.6859   72.3704    2.1664 H       1  UNL1        0.2105
     38 H          24.0802   74.6883    4.8386 H       1  UNL1        0.2105
     39 C          23.6047   74.2400   -0.8938 C.2     1  UNL1        0.2231
     40 C          23.6386   73.9103   -2.3631 C.3     1  UNL1        0.0946
     41 N          22.8627   73.4940   -0.0519 N.am    1  UNL1       -0.2994
     42 O          24.2457   75.1779   -0.4675 O.2     1  UNL1       -0.2751
     43 H          22.3493   72.7447   -0.3924 H       1  UNL1        0.1496
     44 C          22.0241   73.3974    5.5548 C.3     1  UNL1        0.1693
     45 O          20.7099   73.8896    5.8249 O.3     1  UNL1       -0.3794
     46 H          20.5631   74.1343    6.7488 H       1  UNL1        0.2105
@<TRIPOS>BOND
     1    29    30    1
     2    30    41    1
     3    30    31    1
     4    31    34    1
     5    31    32    1
     6    32    35    1
     7    32    33    1
     8    33    36    1
     9    33    44    1
    10    39    40    1
    11    39    42    2
    12    39    41   am
    13    41    43    1
    14    29    28    1
    15    34    37    1
    16    35    38    1
    17    29    36    1
    18    44    45    1
    19    45    46    1
    20    15     6    1
    21    15    16   ar
    22    16    21    2
    23    16    17   ar
    24    17    23    1
    25    17    18   ar
    26    18    19   ar
    27    19    20   ar
    28    15    20   ar
    29    18    22    2
    30     6     7    1
    31     6    11    1
    32     7     9    1
    33     7     8    1
    34     8    13    1
    35     9    10    1
    36     9    12    1
    37    10     5    1
    38    10    11    1
    39    12    14    1
    40     5     4    1
    41     4     1    1
    42     1     2    1
    43     1    24    1
    44     1     3    2
    45    24    25    1
    46    28    25    1
    47    25    26    1
    48    25    27    2
@<TRIPOS>MOLECULE
UD2
 46 48 0 0 0
SMALL
GASTEIGER

@<TRIPOS>ATOM
      1 P          22.7523   72.5538   -4.2195 P.3     1  UNL1        0.2189
      2 O          23.2517   74.0833   -4.1673 O.3     1  UNL1       -0.4371
      3 O          23.8281   71.6659   -3.7263 O.2     1  UNL1       -0.5170
      4 O          21.4477   72.3834   -3.2907 O.3     1  UNL1       -0.3112
      5 C          20.6687   73.4908   -2.8342 C.3     1  UNL1        0.1811
      6 C          21.4667   72.7946    0.6031 C.3     1  UNL1        0.2383
      7 C          21.5500   74.3380    0.4886 C.3     1  UNL1        0.1895
      8 O          21.1947   74.9611    1.7245 O.3     1  UNL1       -0.3779
      9 C          20.4966   74.6403   -0.6052 C.3     1  UNL1        0.1713
     10 C          20.3350   73.3026   -1.3522 C.3     1  UNL1        0.1764
     11 O          21.2512   72.3683   -0.7597 O.3     1  UNL1       -0.3308
     12 O          19.2589   75.0343   -0.0106 O.3     1  UNL1       -0.3794
     13 H          21.2321   75.9269    1.7033 H       1  UNL1        0.2106
     14 H          19.3159   75.8396    0.5212 H       1  UNL1        0.2105
     15 N          22.7220   72.2476    1.1229 N.ar    1  UNL1       -0.2551
     16 C          22.8147   70.9334    1.3935 C.ar    1  UNL1        0.3323
     17 N          23.9559   70.4035    1.8722 N.ar    1  UNL1       -0.2743
     18 C          25.0310   71.1886    2.0869 C.ar    1  UNL1        0.2626
     19 C          24.9478   72.5735    1.8054 C.ar    1  UNL1        0.0795
     20 C          23.7926   73.0771    1.3223 C.ar    1  UNL1        0.0869
     21 O          21.8532   70.2135    1.2045 O.2     1  UNL1       -0.2464
     22 O          26.0646   70.7101    2.5197 O.2     1  UNL1       -0.2670
     23 H          24.0053   69.4541    2.0631 H       1  UNL1        0.1734
     24 O          22.3849   72.1604   -5.7372 O.3     1  UNL1       -0.2703
     25 P          21.1823   72.5524   -6.7338 P.3     1  UNL1        0.2208
     26 O          21.0865   74.1556   -6.8539 O.3     1  UNL1       -0.4371
     27 O          21.4399   71.9728   -8.0702 O.2     1  UNL1       -0.5170
     28 O          19.7957   71.9733   -6.1553 O.3     1  UNL1       -0.2865
     29 C          18.5174   72.3718   -6.6536 C.3     1  UNL1        0.2611
     30 C          17.4190   71.8283   -5.7366 C.3     1  UNL1        0.1582
     31 C          17.4665   70.2973   -5.7494 C.3     1  UNL1        0.1625
     32 C          17.3155   69.8045   -7.1911 C.3     1  UNL1        0.1686
     33 C          18.4182   70.4262   -8.0523 C.3     1  UNL1        0.1760
     34 O          16.3978   69.7801   -4.9534 O.3     1  UNL1       -0.3801
     35 O          16.0372   70.1932   -7.6973 O.3     1  UNL1       -0.3794
     36 O          18.3370   71.8506   -7.9720 O.3     1  UNL1       -0.3263
     37 H          16.3675   68.8142   -4.9161 H       1  UNL1        0.2105
     38 H          15.8730   69.9140   -8.6090 H       1  UNL1        0.2105
     39 C          16.5893   72.7097   -3.6219 C.2     1  UNL1        0.2231
     40 C          16.8122   73.2086   -2.2183 C.3     1  UNL1        0.0946
     41 N          17.6368   72.3136   -4.3715 N.am    1  UNL1       -0.2994
     42 O          15.4660   72.6644   -4.0784 O.2     1  UNL1       -0.2751
     43 H          18.5351   72.3507   -4.0072 H       1  UNL1        0.1496
     44 C          18.2386   69.9859   -9.5064 C.3     1  UNL1        0.1693
     45 O          18.6651   71.0347  -10.3785 O.3     1  UNL1       -0.3794
     46 H          18.5793   70.8246  -11.3185 H       1  UNL1        0.2105
@<TRIPOS>BOND
     1    29    30    1
     2    30    41    1
     3    30    31    1
     4    31    34    1
     5    31    32    1
     6    32    35    1
     7    32    33    1
     8    33    36    1
     9    33    44    1
    10    39    40    1
    11    39    42    2
    12    39    41   am
    13    41    43    1
    14    29    28    1
    15    34    37    1
    16    35    38    1
    17    29    36    1
    18    44    45    1
    19    45    46    1
    20    15     6    1
    21    15    16   ar
    22    16    21    2
    23    16    17   ar
    24    17    23    1
    25    17    18   ar
    26    18    19   ar
    27    19    20   ar
    28    15    20   ar
    29    18    22    2
    30     6     7    1
    31     6    11    1
    32     7     9    1
    33     7     8    1
    34     8    13    1
    35     9    10    1
    36     9    12    1
    37    10     5    1
    38    10    11    1
    39    12    14    1
    40     5     4    1
    41     4     1    1
    42     1     2    1
    43     1    24    1
    44     1     3    2
    45    24    25    1
    46    28    25    1
    47    25    26    1
    48    25    27    2
@<TRIPOS>MOLECULE
UD2
 46 48 0 0 0
SMALL
GASTEIGER

@<TRIPOS>ATOM
      1 P          20.5683   73.2115   -1.7408 P.3     1  UNL1        0.2189
      2 O          19.6827   71.9062   -1.4192 O.3     1  UNL1       -0.4371
      3 O          19.8806   74.4148   -1.2231 O.2     1  UNL1       -0.5170
      4 O          22.0084   73.0703   -1.0338 O.3     1  UNL1       -0.3112
      5 C          22.9846   72.1109   -1.4436 C.3     1  UNL1        0.1811
      6 C          24.6132   71.2054    1.6328 C.3     1  UNL1        0.2383
      7 C          23.2608   71.8205    2.0742 C.3     1  UNL1        0.1895
      8 O          22.8021   71.2252    3.2895 O.3     1  UNL1       -0.3779
      9 C          22.3328   71.4480    0.8920 C.3     1  UNL1        0.1713
     10 C          23.3009   71.1745   -0.2748 C.3     1  UNL1        0.1764
     11 O          24.6314   71.4244    0.2055 O.3     1  UNL1       -0.3308
     12 O          21.5773   70.2757    1.2011 O.3     1  UNL1       -0.3794
     13 H          21.9596   71.5774    3.6067 H       1  UNL1        0.2106
     14 H          20.9936   70.3731    1.9655 H       1  UNL1        0.2105
     15 N          25.7304   71.9005    2.2761 N.ar    1  UNL1       -0.2551
     16 C          25.6189   73.2069    2.5755 C.ar    1  UNL1        0.3323
     17 N          26.6297   73.8710    3.1666 N.ar    1  UNL1       -0.2743
     18 C          27.7766   73.2302    3.4708 C.ar    1  UNL1        0.2626
     19 C          27.9074   71.8548    3.1622 C.ar    1  UNL1        0.0795
     20 C          26.8763   71.2131    2.5735 C.ar    1  UNL1        0.0869
     21 O          24.5904   73.7974    2.3071 O.2     1  UNL1       -0.2464
     22 O          28.6921   73.8300    4.0062 O.2     1  UNL1       -0.2670
     23 H          26.5331   74.8131    3.3745 H       1  UNL1        0.1734
     24 O          20.7642   73.3484   -3.3334 O.3     1  UNL1       -0.2703
     25 P          20.7327   72.3027   -4.5575 P.3     1  UNL1        0.2208
     26 O          21.0694   73.0743   -5.9305 O.3     1  UNL1       -0.4371
     27 O          21.7395   71.2435   -4.3280 O.2     1  UNL1       -0.5170
     28 O          19.2689   71.6396   -4.6591 O.3     1  UNL1       -0.2865
     29 C          19.0595   70.2552   -4.9435 C.3     1  UNL1        0.2611
     30 C          18.1158   70.1162   -6.1405 C.3     1  UNL1        0.1582
     31 C          16.7578   70.7281   -5.7827 C.3     1  UNL1        0.1625
     32 C          16.2125   70.0366   -4.5301 C.3     1  UNL1        0.1686
     33 C          17.2299   70.1788   -3.3950 C.3     1  UNL1        0.1760
     34 O          15.8476   70.5373   -6.8682 O.3     1  UNL1       -0.3801
     35 O          15.9940   68.6519   -4.8058 O.3     1  UNL1       -0.3794
     36 O          18.4789   69.6177   -3.8038 O.3     1  UNL1       -0.3263
     37 H          14.9659   70.9018   -6.7103 H       1  UNL1        0.2105
     38 H          15.6485   68.1502   -4.0542 H       1  UNL1        0.2105
     39 C          18.6763   70.2370   -8.5088 C.2     1  UNL1        0.2231
     40 C          19.2575   70.9603   -9.6952 C.3     1  UNL1        0.0946
     41 N          18.6815   70.8204   -7.2940 N.am    1  UNL1       -0.2994
     42 O          18.2031   69.1282   -8.6463 O.2     1  UNL1       -0.2751
     43 H          19.0606   71.7064   -7.1834 H       1  UNL1        0.1496
     44 C          16.7190   69.4392   -2.1570 C.3     1  UNL1        0.1693
     45 O          15.3247   69.1641   -2.3071 O.3     1  UNL1       -0.3794
     46 H          14.9327   68.6957   -1.5575 H       1  UNL1        0.2105
@<TRIPOS>BOND
     1    29    30    1
     2    30    41    1
     3    30    31    1
     4    31    34    1
     5    31    32    1
     6    32    35    1
     7    32    33    1
     8    33    36    1
     9    33    44    1
    10    39    40    1
    11    39    42    2
    12    39    41   am
    13    41    43    1
    14    29    28    1
    15    34    37    1
    16    35    38    1
    17    29    36    1
    18    44    45    1
    19    45    46    1
    20    15     6    1
    21    15    16   ar
    22    16    21    2
    23    16    17   ar
    24    17    23    1
    25    17    18   ar
    26    18    19   ar
    27    19    20   ar
    28    15    20   ar
    29    18    22    2
    30     6     7    1
    31     6    11    1
    32     7     9    1
    33     7     8    1
    34     8    13    1
    35     9    10    1
    36     9    12    1
    37    10     5    1
    38    10    11    1
    39    12    14    1
    40     5     4    1
    41     4     1    1
    42     1     2    1
    43     1    24    1
    44     1     3    2
    45    24    25    1
    46    28    25    1
    47    25    26    1
    48    25    27    2
@<TRIPOS>MOLECULE
UD2
 46 48 0 0 0
SMALL
GASTEIGER

@<TRIPOS>ATOM
      1 P          21.9242   73.1131   -6.5385 P.3     1  UNL1        0.2189
      2 O          23.1380   72.2202   -5.9720 O.3     1  UNL1       -0.4371
      3 O          22.3752   73.8576   -7.7348 O.2     1  UNL1       -0.5170
      4 O          20.6927   72.1542   -6.9357 O.3     1  UNL1       -0.3112
      5 C          20.6308   71.4405   -8.1720 C.3     1  UNL1        0.1811
      6 C          17.4892   70.2070   -6.9288 C.3     1  UNL1        0.2383
      7 C          17.1023   71.1625   -8.0861 C.3     1  UNL1        0.1895
      8 O          15.8960   70.7332   -8.7203 O.3     1  UNL1       -0.3779
      9 C          18.3107   71.0199   -9.0435 C.3     1  UNL1        0.1713
     10 C          19.4402   70.4789   -8.1462 C.3     1  UNL1        0.1764
     11 O          18.9178   70.3834   -6.8115 O.3     1  UNL1       -0.3308
     12 O          18.0130   70.0918  -10.0879 O.3     1  UNL1       -0.3794
     13 H          15.6122   71.2994   -9.4507 H       1  UNL1        0.2106
     14 H          17.2703   70.3542  -10.6483 H       1  UNL1        0.2105
     15 N          16.8169   70.6003   -5.6885 N.ar    1  UNL1       -0.2551
     16 C          16.5086   69.6653   -4.7723 C.ar    1  UNL1        0.3323
     17 N          15.8905   69.9981   -3.6236 N.ar    1  UNL1       -0.2743
     18 C          15.5711   71.2840   -3.3727 C.ar    1  UNL1        0.2626
     19 C          15.8907   72.2788   -4.3279 C.ar    1  UNL1        0.0795
     20 C          16.5142   71.9172   -5.4690 C.ar    1  UNL1        0.0869
     21 O          16.7908   68.5019   -4.9850 O.2     1  UNL1       -0.2464
     22 O          15.0120   71.5867   -2.3333 O.2     1  UNL1       -0.2670
     23 H          15.6743   69.3113   -2.9742 H       1  UNL1        0.1734
     24 O          21.4491   74.1541   -5.4055 O.3     1  UNL1       -0.2703
     25 P          22.2143   74.9781   -4.2529 P.3     1  UNL1        0.2208
     26 O          23.5743   75.5996   -4.8511 O.3     1  UNL1       -0.4371
     27 O          21.3444   76.0720   -3.7679 O.2     1  UNL1       -0.5170
     28 O          22.5669   73.9904   -3.0312 O.3     1  UNL1       -0.2865
     29 C          21.6882   73.7756   -1.9253 C.3     1  UNL1        0.2611
     30 C          22.4468   73.0689   -0.7993 C.3     1  UNL1        0.1582
     31 C          22.9159   71.6972   -1.2939 C.3     1  UNL1        0.1625
     32 C          21.7012   70.8947   -1.7682 C.3     1  UNL1        0.1686
     33 C          20.9712   71.6854   -2.8572 C.3     1  UNL1        0.1760
     34 O          23.5616   71.0000   -0.2260 O.3     1  UNL1       -0.3801
     35 O          20.8184   70.6693   -0.6677 O.3     1  UNL1       -0.3794
     36 O          20.5894   72.9622   -2.3415 O.3     1  UNL1       -0.3263
     37 H          23.8854   70.1219   -0.4692 H       1  UNL1        0.2105
     38 H          20.0244   70.1659   -0.8962 H       1  UNL1        0.2105
     39 C          23.9370   74.0004    0.8887 C.2     1  UNL1        0.2231
     40 C          25.1312   74.8270    1.2877 C.3     1  UNL1        0.0946
     41 N          23.6085   73.8733   -0.4120 N.am    1  UNL1       -0.2994
     42 O          23.2698   73.4485    1.7387 O.2     1  UNL1       -0.2751
     43 H          24.1411   74.3152   -1.0918 H       1  UNL1        0.1496
     44 C          19.7224   70.9173   -3.2944 C.3     1  UNL1        0.1693
     45 O          18.6971   71.0745   -2.3113 O.3     1  UNL1       -0.3794
     46 H          17.8742   70.6130   -2.5232 H       1  UNL1        0.2105
@<TRIPOS>BOND
     1    29    30    1
     2    30    41    1
     3    30    31    1
     4    31    34    1
     5    31    32    1
     6    32    35    1
     7    32    33    1
     8    33    36    1
     9    33    44    1
    10    39    40    1
    11    39    42    2
    12    39    41   am
    13    41    43    1
    14    29    28    1
    15    34    37    1
    16    35    38    1
    17    29    36    1
    18    44    45    1
    19    45    46    1
    20    15     6    1
    21    15    16   ar
    22    16    21    2
    23    16    17   ar
    24    17    23    1
    25    17    18   ar
    26    18    19   ar
    27    19    20   ar
    28    15    20   ar
    29    18    22    2
    30     6     7    1
    31     6    11    1
    32     7     9    1
    33     7     8    1
    34     8    13    1
    35     9    10    1
    36     9    12    1
    37    10     5    1
    38    10    11    1
    39    12    14    1
    40     5     4    1
    41     4     1    1
    42     1     2    1
    43     1    24    1
    44     1     3    2
    45    24    25    1
    46    28    25    1
    47    25    26    1
    48    25    27    2
@<TRIPOS>MOLECULE
UD2
 46 48 0 0 0
SMALL
GASTEIGER

@<TRIPOS>ATOM
      1 P          16.1675   70.5495   -3.1145 P.3     1  UNL1        0.2189
      2 O          15.9512   69.2099   -3.9806 O.3     1  UNL1       -0.4371
      3 O          15.2143   71.5878   -3.5643 O.2     1  UNL1       -0.5170
      4 O          15.9153   70.2278   -1.5568 O.3     1  UNL1       -0.3112
      5 C          14.7722   70.6995   -0.8410 C.3     1  UNL1        0.1811
      6 C          12.6530   68.0895    0.4371 C.3     1  UNL1        0.2383
      7 C          11.8622   69.3966    0.6983 C.3     1  UNL1        0.1895
      8 O          10.4540   69.1603    0.6435 O.3     1  UNL1       -0.3779
      9 C          12.3180   70.2933   -0.4788 C.3     1  UNL1        0.1713
     10 C          13.6479   69.6653   -0.9375 C.3     1  UNL1        0.1764
     11 O          13.9238   68.5604   -0.0620 O.3     1  UNL1       -0.3308
     12 O          11.3567   70.2570   -1.5349 O.3     1  UNL1       -0.3794
     13 H           9.9163   69.9482    0.8012 H       1  UNL1        0.2106
     14 H          10.4831   70.5862   -1.2841 H       1  UNL1        0.2105
     15 N          12.8333   67.3383    1.6814 N.ar    1  UNL1       -0.2551
     16 C          12.5078   66.0341    1.7256 C.ar    1  UNL1        0.3323
     17 N          12.6629   65.3193    2.8557 N.ar    1  UNL1       -0.2743
     18 C          13.1522   65.9050    3.9675 C.ar    1  UNL1        0.2626
     19 C          13.4999   67.2769    3.9349 C.ar    1  UNL1        0.0795
     20 C          13.3380   67.9682    2.7871 C.ar    1  UNL1        0.0869
     21 O          12.0656   65.4929    0.7306 O.2     1  UNL1       -0.2464
     22 O          13.2934   65.2590    4.9909 O.2     1  UNL1       -0.2670
     23 H          12.4221   64.3802    2.8707 H       1  UNL1        0.1734
     24 O          17.6745   71.0809   -3.3149 O.3     1  UNL1       -0.2703
     25 P          19.0866   70.3590   -3.5938 P.3     1  UNL1        0.2208
     26 O          20.0697   70.6025   -2.3417 O.3     1  UNL1       -0.4371
     27 O          18.8711   68.9069   -3.7759 O.2     1  UNL1       -0.5170
     28 O          19.7502   70.9748   -4.9254 O.3     1  UNL1       -0.2865
     29 C          19.8630   72.3794   -5.1610 C.3     1  UNL1        0.2611
     30 C          20.1889   72.6258   -6.6360 C.3     1  UNL1        0.1582
     31 C          21.5429   71.9890   -6.9641 C.3     1  UNL1        0.1625
     32 C          22.6078   72.5695   -6.0295 C.3     1  UNL1        0.1686
     33 C          22.1885   72.3251   -4.5775 C.3     1  UNL1        0.1760
     34 O          21.8896   72.2772   -8.3206 O.3     1  UNL1       -0.3801
     35 O          22.7325   73.9737   -6.2613 O.3     1  UNL1       -0.3794
     36 O          20.9080   72.9161   -4.3472 O.3     1  UNL1       -0.3263
     37 H          22.7372   71.9029   -8.5974 H       1  UNL1        0.2105
     38 H          23.3911   74.4085   -5.7015 H       1  UNL1        0.2105
     39 C          19.3146   70.7798   -7.9647 C.2     1  UNL1        0.2231
     40 C          18.2457   70.1603   -8.8262 C.3     1  UNL1        0.0946
     41 N          19.1488   72.0240   -7.4741 N.am    1  UNL1       -0.2994
     42 O          20.3259   70.1588   -7.7120 O.2     1  UNL1       -0.2751
     43 H          18.3409   72.5212   -7.6767 H       1  UNL1        0.1496
     44 C          23.2177   72.9546   -3.6368 C.3     1  UNL1        0.1693
     45 O          24.5210   72.8433   -4.2124 O.3     1  UNL1       -0.3794
     46 H          25.2253   73.2224   -3.6691 H       1  UNL1        0.2105
@<TRIPOS>BOND
     1    29    30    1
     2    30    41    1
     3    30    31    1
     4    31    34    1
     5    31    32    1
     6    32    35    1
     7    32    33    1
     8    33    36    1
     9    33    44    1
    10    39    40    1
    11    39    42    2
    12    39    41   am
    13    41    43    1
    14    29    28    1
    15    34    37    1
    16    35    38    1
    17    29    36    1
    18    44    45    1
    19    45    46    1
    20    15     6    1
    21    15    16   ar
    22    16    21    2
    23    16    17   ar
    24    17    23    1
    25    17    18   ar
    26    18    19   ar
    27    19    20   ar
    28    15    20   ar
    29    18    22    2
    30     6     7    1
    31     6    11    1
    32     7     9    1
    33     7     8    1
    34     8    13    1
    35     9    10    1
    36     9    12    1
    37    10     5    1
    38    10    11    1
    39    12    14    1
    40     5     4    1
    41     4     1    1
    42     1     2    1
    43     1    24    1
    44     1     3    2
    45    24    25    1
    46    28    25    1
    47    25    26    1
    48    25    27    2
@<TRIPOS>MOLECULE
UD2
 46 48 0 0 0
SMALL
GASTEIGER

@<TRIPOS>ATOM
      1 P          20.6482   71.3753   -1.0074 P.3     1  UNL1        0.2189
      2 O          20.9098   70.6059    0.3822 O.3     1  UNL1       -0.4371
      3 O          21.6986   71.0063   -1.9817 O.2     1  UNL1       -0.5170
      4 O          19.2058   70.9570   -1.5890 O.3     1  UNL1       -0.3112
      5 C          19.0330   69.9513   -2.5891 C.3     1  UNL1        0.1811
      6 C          17.2432   70.3592   -5.6821 C.3     1  UNL1        0.2383
      7 C          16.9539   68.8979   -5.2542 C.3     1  UNL1        0.1895
      8 O          15.6634   68.4808   -5.7040 O.3     1  UNL1       -0.3779
      9 C          16.9951   68.9970   -3.7096 C.3     1  UNL1        0.1713
     10 C          17.8014   70.2810   -3.4360 C.3     1  UNL1        0.1764
     11 O          18.2100   70.8088   -4.7080 O.3     1  UNL1       -0.3308
     12 O          15.6728   69.1143   -3.1817 O.3     1  UNL1       -0.3794
     13 H          15.4365   67.5729   -5.4612 H       1  UNL1        0.2106
     14 H          15.1025   68.3583   -3.3759 H       1  UNL1        0.2105
     15 N          17.8125   70.3987   -7.0309 N.ar    1  UNL1       -0.2551
     16 C          16.9952   70.4404   -8.0982 C.ar    1  UNL1        0.3323
     17 N          17.4909   70.4770   -9.3493 N.ar    1  UNL1       -0.2743
     18 C          18.8242   70.4743   -9.5514 C.ar    1  UNL1        0.2626
     19 C          19.6961   70.4317   -8.4370 C.ar    1  UNL1        0.0795
     20 C          19.1717   70.3998   -7.1938 C.ar    1  UNL1        0.0869
     21 O          15.7909   70.4435   -7.9309 O.2     1  UNL1       -0.2464
     22 O          19.2741   70.5079  -10.6832 O.2     1  UNL1       -0.2670
     23 H          16.8875   70.5056  -10.1077 H       1  UNL1        0.1734
     24 O          20.6839   72.9655   -0.7556 O.3     1  UNL1       -0.2703
     25 P          20.0087   74.2291   -1.4908 P.3     1  UNL1        0.2208
     26 O          19.0138   73.7089   -2.6455 O.3     1  UNL1       -0.4371
     27 O          19.2453   75.0242   -0.5041 O.2     1  UNL1       -0.5170
     28 O          21.1586   75.1464   -2.1456 O.3     1  UNL1       -0.2865
     29 C          22.5162   74.7197   -2.2734 C.3     1  UNL1        0.2611
     30 C          23.4261   75.9432   -2.4070 C.3     1  UNL1        0.1582
     31 C          23.0566   76.7067   -3.6825 C.3     1  UNL1        0.1625
     32 C          23.1737   75.7624   -4.8820 C.3     1  UNL1        0.1686
     33 C          22.2732   74.5456   -4.6529 C.3     1  UNL1        0.1760
     34 O          23.9494   77.8098   -3.8540 O.3     1  UNL1       -0.3801
     35 O          24.5296   75.3342   -5.0221 O.3     1  UNL1       -0.3794
     36 O          22.6497   73.8989   -3.4356 O.3     1  UNL1       -0.3263
     37 H          23.7727   78.3392   -4.6437 H       1  UNL1        0.2105
     38 H          24.6776   74.7312   -5.7641 H       1  UNL1        0.2105
     39 C          24.2711   77.0275   -0.3950 C.2     1  UNL1        0.2231
     40 C          24.0870   77.9250    0.8005 C.3     1  UNL1        0.0946
     41 N          23.2462   76.8161   -1.2442 N.am    1  UNL1       -0.2994
     42 O          25.3426   76.4942   -0.5942 O.2     1  UNL1       -0.2751
     43 H          22.3891   77.2415   -1.0849 H       1  UNL1        0.1496
     44 C          22.4300   73.5686   -5.8196 C.3     1  UNL1        0.1693
     45 O          23.4063   72.5797   -5.4858 O.3     1  UNL1       -0.3794
     46 H          23.5577   71.9252   -6.1814 H       1  UNL1        0.2105
@<TRIPOS>BOND
     1    29    30    1
     2    30    41    1
     3    30    31    1
     4    31    34    1
     5    31    32    1
     6    32    35    1
     7    32    33    1
     8    33    36    1
     9    33    44    1
    10    39    40    1
    11    39    42    2
    12    39    41   am
    13    41    43    1
    14    29    28    1
    15    34    37    1
    16    35    38    1
    17    29    36    1
    18    44    45    1
    19    45    46    1
    20    15     6    1
    21    15    16   ar
    22    16    21    2
    23    16    17   ar
    24    17    23    1
    25    17    18   ar
    26    18    19   ar
    27    19    20   ar
    28    15    20   ar
    29    18    22    2
    30     6     7    1
    31     6    11    1
    32     7     9    1
    33     7     8    1
    34     8    13    1
    35     9    10    1
    36     9    12    1
    37    10     5    1
    38    10    11    1
    39    12    14    1
    40     5     4    1
    41     4     1    1
    42     1     2    1
    43     1    24    1
    44     1     3    2
    45    24    25    1
    46    28    25    1
    47    25    26    1
    48    25    27    2
@<TRIPOS>MOLECULE
UD2
 46 48 0 0 0
SMALL
GASTEIGER

@<TRIPOS>ATOM
      1 P          21.4889   74.2550   -1.9771 P.3     1  UNL1        0.2189
      2 O          20.8001   75.6332   -2.4432 O.3     1  UNL1       -0.4371
      3 O          22.6365   73.9529   -2.8607 O.2     1  UNL1       -0.5170
      4 O          22.0044   74.3996   -0.4582 O.3     1  UNL1       -0.3112
      5 C          21.1290   74.3339    0.6691 C.3     1  UNL1        0.1811
      6 C          23.1925   72.0476    2.5269 C.3     1  UNL1        0.2383
      7 C          22.5341   72.9437    3.6066 C.3     1  UNL1        0.1895
      8 O          22.3474   72.2209    4.8249 O.3     1  UNL1       -0.3779
      9 C          21.1726   73.2902    2.9556 C.3     1  UNL1        0.1713
     10 C          21.4016   73.0469    1.4517 C.3     1  UNL1        0.1764
     11 O          22.7736   72.6552    1.2856 O.3     1  UNL1       -0.3308
     12 O          20.1483   72.4271    3.4521 O.3     1  UNL1       -0.3794
     13 H          21.9390   72.7392    5.5314 H       1  UNL1        0.2106
     14 H          20.0026   72.4960    4.4053 H       1  UNL1        0.2105
     15 N          24.6516   72.0787    2.6504 N.ar    1  UNL1       -0.2551
     16 C          25.3668   70.9718    2.3821 C.ar    1  UNL1        0.3323
     17 N          26.7089   70.9717    2.4874 N.ar    1  UNL1       -0.2743
     18 C          27.3602   72.0907    2.8647 C.ar    1  UNL1        0.2626
     19 C          26.6199   73.2634    3.1492 C.ar    1  UNL1        0.0795
     20 C          25.2757   73.2361    3.0313 C.ar    1  UNL1        0.0869
     21 O          24.7929   69.9558    2.0406 O.2     1  UNL1       -0.2464
     22 O          28.5749   72.0920    2.9600 O.2     1  UNL1       -0.2670
     23 H          27.2092   70.1646    2.2913 H       1  UNL1        0.1734
     24 O          20.4132   73.0599   -2.0665 O.3     1  UNL1       -0.2703
     25 P          20.5176   71.4824   -2.3722 P.3     1  UNL1        0.2208
     26 O          21.8861   70.9051   -1.7497 O.3     1  UNL1       -0.4371
     27 O          19.3654   70.7840   -1.7615 O.2     1  UNL1       -0.5170
     28 O          20.5086   71.2426   -3.9644 O.3     1  UNL1       -0.2865
     29 C          19.7961   72.0829   -4.8741 C.3     1  UNL1        0.2611
     30 C          19.2582   71.2407   -6.0335 C.3     1  UNL1        0.1582
     31 C          20.4358   70.6242   -6.7948 C.3     1  UNL1        0.1625
     32 C          21.3635   71.7445   -7.2727 C.3     1  UNL1        0.1686
     33 C          21.8205   72.5674   -6.0653 C.3     1  UNL1        0.1760
     34 O          19.9459   69.8958   -7.9229 O.3     1  UNL1       -0.3801
     35 O          20.6619   72.5878   -8.1881 O.3     1  UNL1       -0.3794
     36 O          20.6765   73.0865   -5.3841 O.3     1  UNL1       -0.3263
     37 H          20.6391   69.4771   -8.4514 H       1  UNL1        0.2105
     38 H          21.1902   73.3218   -8.5319 H       1  UNL1        0.2105
     39 C          17.2606   69.8497   -6.1453 C.2     1  UNL1        0.2231
     40 C          16.3807   68.7530   -5.6055 C.3     1  UNL1        0.0946
     41 N          18.4027   70.1739   -5.5076 N.am    1  UNL1       -0.2994
     42 O          16.9414   70.4421   -7.1550 O.2     1  UNL1       -0.2751
     43 H          18.6577   69.7013   -4.6998 H       1  UNL1        0.1496
     44 C          22.7001   73.7252   -6.5408 C.3     1  UNL1        0.1693
     45 O          23.4490   74.2398   -5.4378 O.3     1  UNL1       -0.3794
     46 H          24.0301   74.9780   -5.6664 H       1  UNL1        0.2105
@<TRIPOS>BOND
     1    29    30    1
     2    30    41    1
     3    30    31    1
     4    31    34    1
     5    31    32    1
     6    32    35    1
     7    32    33    1
     8    33    36    1
     9    33    44    1
    10    39    40    1
    11    39    42    2
    12    39    41   am
    13    41    43    1
    14    29    28    1
    15    34    37    1
    16    35    38    1
    17    29    36    1
    18    44    45    1
    19    45    46    1
    20    15     6    1
    21    15    16   ar
    22    16    21    2
    23    16    17   ar
    24    17    23    1
    25    17    18   ar
    26    18    19   ar
    27    19    20   ar
    28    15    20   ar
    29    18    22    2
    30     6     7    1
    31     6    11    1
    32     7     9    1
    33     7     8    1
    34     8    13    1
    35     9    10    1
    36     9    12    1
    37    10     5    1
    38    10    11    1
    39    12    14    1
    40     5     4    1
    41     4     1    1
    42     1     2    1
    43     1    24    1
    44     1     3    2
    45    24    25    1
    46    28    25    1
    47    25    26    1
    48    25    27    2
@<TRIPOS>MOLECULE
UD2
 46 48 0 0 0
SMALL
GASTEIGER

@<TRIPOS>ATOM
      1 P          21.9203   72.4497   -6.0795 P.3     1  UNL1        0.2189
      2 O          23.0319   73.4529   -6.6707 O.3     1  UNL1       -0.4371
      3 O          20.7036   73.2136   -5.7260 O.2     1  UNL1       -0.5170
      4 O          21.5545   71.3407   -7.1885 O.3     1  UNL1       -0.3112
      5 C          20.6489   71.5879   -8.2656 C.3     1  UNL1        0.1811
      6 C          17.6716   70.0737   -6.9316 C.3     1  UNL1        0.2383
      7 C          17.1565   71.0694   -8.0018 C.3     1  UNL1        0.1895
      8 O          15.9442   70.5994   -8.5943 O.3     1  UNL1       -0.3779
      9 C          18.3123   71.0664   -9.0321 C.3     1  UNL1        0.1713
     10 C          19.5253   70.5489   -8.2357 C.3     1  UNL1        0.1764
     11 O          19.0906   70.3381   -6.8829 O.3     1  UNL1       -0.3308
     12 O          18.0122   70.1853  -10.1158 O.3     1  UNL1       -0.3794
     13 H          15.5820   71.1885   -9.2699 H       1  UNL1        0.2106
     14 H          17.2223   70.4307  -10.6161 H       1  UNL1        0.2105
     15 N          17.0510   70.3452   -5.6332 N.ar    1  UNL1       -0.2551
     16 C          16.4267   69.3539   -4.9726 C.ar    1  UNL1        0.3323
     17 N          15.8474   69.5749   -3.7777 N.ar    1  UNL1       -0.2743
     18 C          15.8868   70.8026   -3.2211 C.ar    1  UNL1        0.2626
     19 C          16.5415   71.8552   -3.9049 C.ar    1  UNL1        0.0795
     20 C          17.1173   71.6041   -5.0995 C.ar    1  UNL1        0.0869
     21 O          16.3836   68.2418   -5.4624 O.2     1  UNL1       -0.2464
     22 O          15.3633   71.0039   -2.1395 O.2     1  UNL1       -0.2670
     23 H          15.4004   68.8492   -3.3154 H       1  UNL1        0.1734
     24 O          22.4987   71.7222   -4.7644 O.3     1  UNL1       -0.2703
     25 P          23.5256   72.1611   -3.6043 P.3     1  UNL1        0.2208
     26 O          24.2706   70.8558   -3.0257 O.3     1  UNL1       -0.4371
     27 O          24.5289   73.0950   -4.1607 O.2     1  UNL1       -0.5170
     28 O          22.7156   72.8876   -2.4174 O.3     1  UNL1       -0.2865
     29 C          21.3772   72.5376   -2.0605 C.3     1  UNL1        0.2611
     30 C          20.5594   73.8110   -1.8321 C.3     1  UNL1        0.1582
     31 C          21.1637   74.5926   -0.6615 C.3     1  UNL1        0.1625
     32 C          21.1949   73.6929    0.5770 C.3     1  UNL1        0.1686
     33 C          21.9885   72.4237    0.2558 C.3     1  UNL1        0.1760
     34 O          20.3630   75.7461   -0.3939 O.3     1  UNL1       -0.3801
     35 O          19.8601   73.3416    0.9460 O.3     1  UNL1       -0.3794
     36 O          21.3923   71.7609   -0.8610 O.3     1  UNL1       -0.3263
     37 H          20.6884   76.2893    0.3370 H       1  UNL1        0.2105
     38 H          19.8040   72.7703    1.7247 H       1  UNL1        0.2105
     39 C          21.5530   75.5701   -3.1946 C.2     1  UNL1        0.2231
     40 C          21.5879   76.4197   -4.4377 C.3     1  UNL1        0.0946
     41 N          20.5925   74.6373   -3.0416 N.am    1  UNL1       -0.2994
     42 O          22.3899   75.7252   -2.3299 O.2     1  UNL1       -0.2751
     43 H          19.9225   74.5136   -3.7322 H       1  UNL1        0.1496
     44 C          21.9739   71.4924    1.4694 C.3     1  UNL1        0.1693
     45 O          21.5312   70.1939    1.0691 O.3     1  UNL1       -0.3794
     46 H          21.4971   69.5500    1.7896 H       1  UNL1        0.2105
@<TRIPOS>BOND
     1    29    30    1
     2    30    41    1
     3    30    31    1
     4    31    34    1
     5    31    32    1
     6    32    35    1
     7    32    33    1
     8    33    36    1
     9    33    44    1
    10    39    40    1
    11    39    42    2
    12    39    41   am
    13    41    43    1
    14    29    28    1
    15    34    37    1
    16    35    38    1
    17    29    36    1
    18    44    45    1
    19    45    46    1
    20    15     6    1
    21    15    16   ar
    22    16    21    2
    23    16    17   ar
    24    17    23    1
    25    17    18   ar
    26    18    19   ar
    27    19    20   ar
    28    15    20   ar
    29    18    22    2
    30     6     7    1
    31     6    11    1
    32     7     9    1
    33     7     8    1
    34     8    13    1
    35     9    10    1
    36     9    12    1
    37    10     5    1
    38    10    11    1
    39    12    14    1
    40     5     4    1
    41     4     1    1
    42     1     2    1
    43     1    24    1
    44     1     3    2
    45    24    25    1
    46    28    25    1
    47    25    26    1
    48    25    27    2
