@<TRIPOS>MOLECULE
UDP-glaA
 43 45 0 0 0
SMALL
GASTEIGER

@<TRIPOS>ATOM
      1 P          21.6795   73.8870   -5.8465 P.3     1  UNL1        0.2189
      2 O          20.7226   74.9110   -5.0382 O.3     1  UNL1       -0.4371
      3 O          22.9411   74.4932   -6.3879 O.2     1  UNL1       -0.5170
      4 O          20.6959   73.2162   -6.9411 O.3     1  UNL1       -0.3112
      5 C          21.2611   72.3846   -7.9402 C.3     1  UNL1        0.1811
      6 O          19.6656   70.6019   -8.1649 O.3     1  UNL1       -0.3308
      7 O          18.2252   72.3857  -10.0975 O.3     1  UNL1       -0.3794
      8 O          16.7627   72.6771   -7.8145 O.3     1  UNL1       -0.3779
      9 C          18.9340   72.7295   -8.9070 C.3     1  UNL1        0.1713
     10 C          18.1286   72.3404   -7.6854 C.3     1  UNL1        0.1895
     11 C          20.1430   71.8096   -8.7980 C.3     1  UNL1        0.1764
     12 C          18.3565   70.8397   -7.6217 C.3     1  UNL1        0.2383
     13 H          18.7949   72.6169  -10.8509 H       1  UNL1        0.2105
     14 H          16.7106   73.6375   -7.9598 H       1  UNL1        0.2106
     15 O          16.1569   69.4574   -6.5143 O.2     1  UNL1       -0.2464
     16 O          18.2848   68.9486   -2.4583 O.2     1  UNL1       -0.2670
     17 N          18.3089   70.3344   -6.2794 N.ar    1  UNL1       -0.2551
     18 N          17.2178   69.2054   -4.4952 N.ar    1  UNL1       -0.2743
     19 C          17.1562   69.6549   -5.8208 C.ar    1  UNL1        0.3323
     20 C          19.3966   70.5143   -5.4321 C.ar    1  UNL1        0.0869
     21 C          19.4401   70.0793   -4.1709 C.ar    1  UNL1        0.0795
     22 C          18.2768   69.3607   -3.6141 C.ar    1  UNL1        0.2626
     23 H          16.4000   68.7146   -4.1438 H       1  UNL1        0.1734
     24 O          21.9096   72.6904   -4.7834 O.3     1  UNL1       -0.2703
     25 P          23.0317   72.4917   -3.6371 P.3     1  UNL1        0.2208
     26 O          24.2817   73.3583   -4.1872 O.3     1  UNL1       -0.4371
     27 O          23.3570   71.0567   -3.3356 O.2     1  UNL1       -0.5170
     28 O          22.4784   73.3294   -2.3737 O.3     1  UNL1       -0.2858
     29 O          21.4794   71.5726   -1.1429 O.3     1  UNL1       -0.3226
     30 O          21.5224   74.6663    1.6332 O.3     1  UNL1       -0.3794
     31 O          20.8390   75.1861   -1.1540 O.3     1  UNL1       -0.3775
     32 O          20.9485   71.9644    1.6506 O.3     1  UNL1       -0.3792
     33 C          21.9608   73.8583    0.5445 C.3     1  UNL1        0.1718
     34 C          20.9293   73.8827   -0.5884 C.3     1  UNL1        0.1968
     35 C          22.1596   72.4236    1.0412 C.3     1  UNL1        0.1723
     36 C          21.3080   72.8844   -1.6895 C.3     1  UNL1        0.2706
     37 C          22.4916   71.5133   -0.1391 C.3     1  UNL1        0.1830
     38 H          22.2030   74.6193    2.3262 H       1  UNL1        0.2105
     39 H          20.1832   75.1503   -1.8706 H       1  UNL1        0.2106
     40 H          20.2993   71.7838    0.9498 H       1  UNL1        0.2106
     41 O          23.8325   69.6114    0.1586 O.co2   1  UNL1       -0.5466
     42 O          21.6221   69.4153    0.6807 O.co2   1  UNL1       -0.5466
     43 C          22.5669   70.0795    0.2798 C.2     1  UNL1        0.0799
@<TRIPOS>UNITY_ATOM_ATTR
41 1
charge -1
@<TRIPOS>BOND
     1     1     4    1
     2     1    24    1
     3     1     2    1
     4     1     3    2
     5    25    28    1
     6    25    24    1
     7    25    26    1
     8    25    27    2
     9     6    11    1
    10     6    12    1
    11    29    36    1
    12    29    37    1
    13     7     9    1
    14     7    13    1
    15     8    10    1
    16     8    14    1
    17     4     5    1
    18    28    36    1
    19    30    33    1
    20    30    38    1
    21    31    34    1
    22    31    39    1
    23    32    35    1
    24    32    40    1
    25    41    43   ar
    26    15    19    2
    27    42    43   ar
    28    16    22    2
    29    17    12    1
    30    17    19   ar
    31    17    20   ar
    32    18    19   ar
    33    18    22   ar
    34    18    23    1
    35     9    10    1
    36     9    11    1
    37    10    12    1
    38    11     5    1
    39    33    34    1
    40    33    35    1
    41    34    36    1
    42    35    37    1
    43    37    43    1
    44    20    21   ar
    45    21    22   ar
@<TRIPOS>MOLECULE
UDP-glaA
 43 45 0 0 0
SMALL
GASTEIGER

@<TRIPOS>ATOM
      1 P          22.5001   71.5658   -2.4362 P.3     1  UNL1        0.2189
      2 O          21.4322   72.7784   -2.3553 O.3     1  UNL1       -0.4371
      3 O          23.5582   71.7234   -3.4887 O.2     1  UNL1       -0.5170
      4 O          21.5786   70.2424   -2.5585 O.3     1  UNL1       -0.3112
      5 C          20.7703   70.0840   -3.7121 C.3     1  UNL1        0.1811
      6 O          19.0930   71.5151   -4.6674 O.3     1  UNL1       -0.3308
      7 O          17.2568   70.4709   -2.5392 O.3     1  UNL1       -0.3794
      8 O          16.5047   69.0347   -4.7317 O.3     1  UNL1       -0.3779
      9 C          18.2849   69.7904   -3.2585 C.3     1  UNL1        0.1713
     10 C          17.8348   69.5072   -4.6762 C.3     1  UNL1        0.1895
     11 C          19.4314   70.7688   -3.4776 C.3     1  UNL1        0.1764
     12 C          18.0002   70.8651   -5.3371 C.3     1  UNL1        0.2383
     13 H          17.6039   70.6653   -1.6519 H       1  UNL1        0.2105
     14 H          16.4595   68.2239   -4.1963 H       1  UNL1        0.2106
     15 O          16.0735   70.4795   -7.3657 O.2     1  UNL1       -0.2464
     16 O          19.2862   70.4767  -10.6699 O.2     1  UNL1       -0.2670
     17 N          18.3050   70.7606   -6.7355 N.ar    1  UNL1       -0.2551
     18 N          17.6746   70.4778   -9.0096 N.ar    1  UNL1       -0.2743
     19 C          17.2638   70.5666   -7.6731 C.ar    1  UNL1        0.3323
     20 C          19.6241   70.8502   -7.1660 C.ar    1  UNL1        0.0869
     21 C          19.9997   70.7641   -8.4440 C.ar    1  UNL1        0.0795
     22 C          18.9738   70.5606   -9.4861 C.ar    1  UNL1        0.2626
     23 H          16.9430   70.3377   -9.7011 H       1  UNL1        0.1734
     24 O          23.0634   71.4775   -0.9229 O.3     1  UNL1       -0.2703
     25 P          22.4567   70.7637    0.3943 P.3     1  UNL1        0.2208
     26 O          23.5154   69.5785    0.6950 O.3     1  UNL1       -0.4371
     27 O          21.0352   70.3023    0.2453 O.2     1  UNL1       -0.5170
     28 O          22.6902   71.8309    1.5820 O.3     1  UNL1       -0.2858
     29 O          21.9538   72.5540    3.7113 O.3     1  UNL1       -0.3226
     30 O          21.2332   75.9032    1.3569 O.3     1  UNL1       -0.3794
     31 O          20.6556   73.2292    0.3459 O.3     1  UNL1       -0.3775
     32 O          21.1714   75.2947    4.0506 O.3     1  UNL1       -0.3792
     33 C          21.8868   74.7229    1.8154 C.3     1  UNL1        0.1718
     34 C          20.9478   73.5165    1.7093 C.3     1  UNL1        0.1968
     35 C          22.3145   74.9275    3.2713 C.3     1  UNL1        0.1723
     36 C          21.5791   72.2782    2.3576 C.3     1  UNL1        0.2706
     37 C          22.8891   73.6254    3.8251 C.3     1  UNL1        0.1830
     38 H          21.8621   76.6396    1.4443 H       1  UNL1        0.2105
     39 H          20.0679   72.4551    0.3286 H       1  UNL1        0.2106
     40 H          20.6160   74.5065    4.1747 H       1  UNL1        0.2106
     41 O          24.4526   74.2256    5.4679 O.co2   1  UNL1       -0.5466
     42 O          22.4359   73.4454    6.1899 O.co2   1  UNL1       -0.5466
     43 C          23.2008   73.7414    5.2833 C.2     1  UNL1        0.0799
@<TRIPOS>UNITY_ATOM_ATTR
41 1
charge -1
@<TRIPOS>BOND
     1     1     4    1
     2     1    24    1
     3     1     2    1
     4     1     3    2
     5    25    28    1
     6    25    24    1
     7    25    26    1
     8    25    27    2
     9     6    11    1
    10     6    12    1
    11    29    36    1
    12    29    37    1
    13     7     9    1
    14     7    13    1
    15     8    10    1
    16     8    14    1
    17     4     5    1
    18    28    36    1
    19    30    33    1
    20    30    38    1
    21    31    34    1
    22    31    39    1
    23    32    35    1
    24    32    40    1
    25    41    43   ar
    26    15    19    2
    27    42    43   ar
    28    16    22    2
    29    17    12    1
    30    17    19   ar
    31    17    20   ar
    32    18    19   ar
    33    18    22   ar
    34    18    23    1
    35     9    10    1
    36     9    11    1
    37    10    12    1
    38    11     5    1
    39    33    34    1
    40    33    35    1
    41    34    36    1
    42    35    37    1
    43    37    43    1
    44    20    21   ar
    45    21    22   ar
@<TRIPOS>MOLECULE
UDP-glaA
 43 45 0 0 0
SMALL
GASTEIGER

@<TRIPOS>ATOM
      1 P          23.0153   72.0036   -3.2569 P.3     1  UNL1        0.2189
      2 O          23.7860   73.0037   -4.2685 O.3     1  UNL1       -0.4371
      3 O          23.5651   70.6082   -3.2054 O.2     1  UNL1       -0.5170
      4 O          21.4624   72.1318   -3.6901 O.3     1  UNL1       -0.3112
      5 C          20.6334   70.9867   -3.5861 C.3     1  UNL1        0.1811
      6 O          18.7635   71.9922   -4.7115 O.3     1  UNL1       -0.3308
      7 O          17.0655   70.8312   -2.5297 O.3     1  UNL1       -0.3794
      8 O          16.6686   69.0850   -4.5862 O.3     1  UNL1       -0.3779
      9 C          18.2261   70.2866   -3.1575 C.3     1  UNL1        0.1713
     10 C          17.8887   69.7960   -4.5497 C.3     1  UNL1        0.1895
     11 C          19.1851   71.4337   -3.4476 C.3     1  UNL1        0.1764
     12 C          17.8319   71.0941   -5.3369 C.3     1  UNL1        0.2383
     13 H          17.3378   71.1670   -1.6587 H       1  UNL1        0.2105
     14 H          16.7498   68.3327   -3.9750 H       1  UNL1        0.2106
     15 O          16.0252   70.4442   -7.4078 O.2     1  UNL1       -0.2464
     16 O          19.3723   70.4418  -10.5756 O.2     1  UNL1       -0.2670
     17 N          18.2037   70.9182   -6.7117 N.ar    1  UNL1       -0.2551
     18 N          17.6932   70.4429   -8.9837 N.ar    1  UNL1       -0.2743
     19 C          17.2194   70.5918   -7.6736 C.ar    1  UNL1        0.3323
     20 C          19.5317   71.0690   -7.0953 C.ar    1  UNL1        0.0869
     21 C          19.9676   70.9242   -8.3487 C.ar    1  UNL1        0.0795
     22 C          19.0038   70.5825   -9.4135 C.ar    1  UNL1        0.2626
     23 H          17.0032   70.2076   -9.6920 H       1  UNL1        0.1734
     24 O          23.0670   72.8002   -1.8506 O.3     1  UNL1       -0.2703
     25 P          23.1430   74.3828   -1.5306 P.3     1  UNL1        0.2208
     26 O          21.9327   74.9977   -2.4098 O.3     1  UNL1       -0.4371
     27 O          24.4839   75.0024   -1.8025 O.2     1  UNL1       -0.5170
     28 O          22.6452   74.5152   -0.0013 O.3     1  UNL1       -0.2858
     29 O          21.5474   72.4619    0.4207 O.3     1  UNL1       -0.3226
     30 O          21.4602   74.2803    4.1576 O.3     1  UNL1       -0.3794
     31 O          20.9588   75.8348    1.7414 O.3     1  UNL1       -0.3775
     32 O          20.8492   71.7930    3.1232 O.3     1  UNL1       -0.3792
     33 C          21.9543   73.9259    2.8690 C.3     1  UNL1        0.1718
     34 C          20.9957   74.4121    1.7768 C.3     1  UNL1        0.1968
     35 C          22.1020   72.4036    2.7968 C.3     1  UNL1        0.1723
     36 C          21.4284   73.8882    0.4017 C.3     1  UNL1        0.2706
     37 C          22.4943   71.9927    1.3793 C.3     1  UNL1        0.1830
     38 H          22.0956   73.9515    4.8162 H       1  UNL1        0.2105
     39 H          20.3484   76.0949    1.0310 H       1  UNL1        0.2106
     40 H          20.2424   71.9130    2.3732 H       1  UNL1        0.2106
     41 O          21.4183   70.0679    0.5787 O.co2   1  UNL1       -0.5466
     42 O          23.4191   69.7767    1.6318 O.co2   1  UNL1       -0.5466
     43 C          22.5236   70.5049    1.2291 C.2     1  UNL1        0.0799
@<TRIPOS>UNITY_ATOM_ATTR
41 1
charge -1
@<TRIPOS>BOND
     1     1     4    1
     2     1    24    1
     3     1     2    1
     4     1     3    2
     5    25    28    1
     6    25    24    1
     7    25    26    1
     8    25    27    2
     9     6    11    1
    10     6    12    1
    11    29    36    1
    12    29    37    1
    13     7     9    1
    14     7    13    1
    15     8    10    1
    16     8    14    1
    17     4     5    1
    18    28    36    1
    19    30    33    1
    20    30    38    1
    21    31    34    1
    22    31    39    1
    23    32    35    1
    24    32    40    1
    25    41    43   ar
    26    15    19    2
    27    42    43   ar
    28    16    22    2
    29    17    12    1
    30    17    19   ar
    31    17    20   ar
    32    18    19   ar
    33    18    22   ar
    34    18    23    1
    35     9    10    1
    36     9    11    1
    37    10    12    1
    38    11     5    1
    39    33    34    1
    40    33    35    1
    41    34    36    1
    42    35    37    1
    43    37    43    1
    44    20    21   ar
    45    21    22   ar
@<TRIPOS>MOLECULE
UDP-glaA
 43 45 0 0 0
SMALL
GASTEIGER

@<TRIPOS>ATOM
      1 P          22.8989   71.8390   -2.4702 P.3     1  UNL1        0.2189
      2 O          23.7090   73.2341   -2.5918 O.3     1  UNL1       -0.4371
      3 O          23.4892   70.6950   -3.2415 O.2     1  UNL1       -0.5170
      4 O          21.3790   72.2361   -2.8546 O.3     1  UNL1       -0.3112
      5 C          20.6061   71.3128   -3.6024 C.3     1  UNL1        0.1811
      6 O          18.6739   72.1680   -4.7468 O.3     1  UNL1       -0.3308
      7 O          17.0586   70.9744   -2.5203 O.3     1  UNL1       -0.3794
      8 O          16.7598   69.1446   -4.5200 O.3     1  UNL1       -0.3779
      9 C          18.2475   70.4819   -3.1382 C.3     1  UNL1        0.1713
     10 C          17.9347   69.9289   -4.5126 C.3     1  UNL1        0.1895
     11 C          19.1339   71.6754   -3.4690 C.3     1  UNL1        0.1764
     12 C          17.7960   71.1963   -5.3388 C.3     1  UNL1        0.2383
     13 H          17.3136   71.3529   -1.6617 H       1  UNL1        0.2105
     14 H          16.8890   68.4179   -3.8866 H       1  UNL1        0.2106
     15 O          16.0236   70.3737   -7.3778 O.2     1  UNL1       -0.2464
     16 O          19.3514   70.4768  -10.5643 O.2     1  UNL1       -0.2670
     17 N          18.1721   71.0008   -6.7098 N.ar    1  UNL1       -0.2551
     18 N          17.6820   70.4251   -8.9631 N.ar    1  UNL1       -0.2743
     19 C          17.2055   70.5854   -7.6553 C.ar    1  UNL1        0.3323
     20 C          19.4868   71.2201   -7.1059 C.ar    1  UNL1        0.0869
     21 C          19.9254   71.0633   -8.3569 C.ar    1  UNL1        0.0795
     22 C          18.9798   70.6307   -9.4049 C.ar    1  UNL1        0.2626
     23 H          17.0047   70.1264   -9.6596 H       1  UNL1        0.1734
     24 O          22.8197   71.6041   -0.8721 O.3     1  UNL1       -0.2703
     25 P          22.0261   70.4977   -0.0012 P.3     1  UNL1        0.2208
     26 O          23.2106   69.5571    0.5719 O.3     1  UNL1       -0.4371
     27 O          20.9629   69.7602   -0.7637 O.2     1  UNL1       -0.5170
     28 O          21.4846   71.3034    1.2879 O.3     1  UNL1       -0.2858
     29 O          21.9132   73.6127    1.0002 O.3     1  UNL1       -0.3226
     30 O          20.2230   73.5068    4.7964 O.3     1  UNL1       -0.3794
     31 O          22.1319   71.4638    3.9670 O.3     1  UNL1       -0.3775
     32 O          20.9671   75.4562    2.9864 O.3     1  UNL1       -0.3792
     33 C          20.4530   73.1398    3.4389 C.3     1  UNL1        0.1718
     34 C          21.8998   72.6715    3.2497 C.3     1  UNL1        0.1968
     35 C          20.1729   74.3504    2.5443 C.3     1  UNL1        0.1723
     36 C          22.2056   72.4386    1.7650 C.3     1  UNL1        0.2706
     37 C          20.5497   74.0205    1.1016 C.3     1  UNL1        0.1830
     38 H          19.2980   73.7981    4.8688 H       1  UNL1        0.2105
     39 H          23.0548   71.2021    3.8099 H       1  UNL1        0.2106
     40 H          21.8902   75.2972    2.7260 H       1  UNL1        0.2106
     41 O          19.3492   75.9679    0.5819 O.co2   1  UNL1       -0.5466
     42 O          21.1606   75.4875   -0.7162 O.co2   1  UNL1       -0.5466
     43 C          20.4147   75.2164    0.2137 C.2     1  UNL1        0.0799
@<TRIPOS>UNITY_ATOM_ATTR
41 1
charge -1
@<TRIPOS>BOND
     1     1     4    1
     2     1    24    1
     3     1     2    1
     4     1     3    2
     5    25    28    1
     6    25    24    1
     7    25    26    1
     8    25    27    2
     9     6    11    1
    10     6    12    1
    11    29    36    1
    12    29    37    1
    13     7     9    1
    14     7    13    1
    15     8    10    1
    16     8    14    1
    17     4     5    1
    18    28    36    1
    19    30    33    1
    20    30    38    1
    21    31    34    1
    22    31    39    1
    23    32    35    1
    24    32    40    1
    25    41    43   ar
    26    15    19    2
    27    42    43   ar
    28    16    22    2
    29    17    12    1
    30    17    19   ar
    31    17    20   ar
    32    18    19   ar
    33    18    22   ar
    34    18    23    1
    35     9    10    1
    36     9    11    1
    37    10    12    1
    38    11     5    1
    39    33    34    1
    40    33    35    1
    41    34    36    1
    42    35    37    1
    43    37    43    1
    44    20    21   ar
    45    21    22   ar
@<TRIPOS>MOLECULE
UDP-glaA
 43 45 0 0 0
SMALL
GASTEIGER

@<TRIPOS>ATOM
      1 P          22.1770   70.9606   -1.4576 P.3     1  UNL1        0.2189
      2 O          23.5508   70.7281   -2.2799 O.3     1  UNL1       -0.4371
      3 O          21.4973   69.7059   -0.9932 O.2     1  UNL1       -0.5170
      4 O          21.3018   71.9179   -2.4236 O.3     1  UNL1       -0.3112
      5 C          20.5900   71.3276   -3.4979 C.3     1  UNL1        0.1811
      6 O          18.6687   72.1907   -4.6545 O.3     1  UNL1       -0.3308
      7 O          17.0327   70.9843   -2.4501 O.3     1  UNL1       -0.3794
      8 O          16.7513   69.1670   -4.4635 O.3     1  UNL1       -0.3779
      9 C          18.2269   70.4950   -3.0601 C.3     1  UNL1        0.1713
     10 C          17.9264   69.9506   -4.4407 C.3     1  UNL1        0.1895
     11 C          19.1168   71.6901   -3.3755 C.3     1  UNL1        0.1764
     12 C          17.7958   71.2231   -5.2603 C.3     1  UNL1        0.2383
     13 H          17.2801   71.3574   -1.5869 H       1  UNL1        0.2105
     14 H          16.8744   68.4363   -3.8334 H       1  UNL1        0.2106
     15 O          16.0476   70.3879   -7.3150 O.2     1  UNL1       -0.2464
     16 O          19.3980   70.5361  -10.4760 O.2     1  UNL1       -0.2670
     17 N          18.1842   71.0358   -6.6290 N.ar    1  UNL1       -0.2551
     18 N          17.7173   70.4618   -8.8876 N.ar    1  UNL1       -0.2743
     19 C          17.2292   70.6131   -7.5830 C.ar    1  UNL1        0.3323
     20 C          19.4994   71.2704   -7.0146 C.ar    1  UNL1        0.0869
     21 C          19.9491   71.1220   -8.2627 C.ar    1  UNL1        0.0795
     22 C          19.0161   70.6826   -9.3190 C.ar    1  UNL1        0.2626
     23 H          17.0484   70.1580   -9.5901 H       1  UNL1        0.1734
     24 O          22.6304   71.9601   -0.2699 O.3     1  UNL1       -0.2703
     25 P          22.7054   73.5737   -0.2129 P.3     1  UNL1        0.2208
     26 O          21.2309   74.0310   -0.6951 O.3     1  UNL1       -0.4371
     27 O          23.8306   74.1666   -1.0117 O.2     1  UNL1       -0.5170
     28 O          22.7478   73.9257    1.3614 O.3     1  UNL1       -0.2858
     29 O          23.8891   73.2715    3.3283 O.3     1  UNL1       -0.3226
     30 O          19.9144   73.1162    4.5352 O.3     1  UNL1       -0.3794
     31 O          20.7005   72.1525    1.8972 O.3     1  UNL1       -0.3775
     32 O          22.3877   72.9138    5.7483 O.3     1  UNL1       -0.3792
     33 C          21.0684   73.5724    3.8350 C.3     1  UNL1        0.1718
     34 C          21.6227   72.4612    2.9370 C.3     1  UNL1        0.1968
     35 C          22.1286   74.0005    4.8535 C.3     1  UNL1        0.1723
     36 C          22.9585   72.8830    2.3125 C.3     1  UNL1        0.2706
     37 C          23.4233   74.3582    4.1269 C.3     1  UNL1        0.1830
     38 H          19.5999   73.8492    5.0914 H       1  UNL1        0.2105
     39 H          21.0975   71.4532    1.3510 H       1  UNL1        0.2106
     40 H          22.9075   72.2417    5.2758 H       1  UNL1        0.2106
     41 O          24.0865   75.4648    6.0864 O.co2   1  UNL1       -0.5466
     42 O          25.6703   74.2350    5.0019 O.co2   1  UNL1       -0.5466
     43 C          24.5268   74.6581    5.0909 C.2     1  UNL1        0.0799
@<TRIPOS>UNITY_ATOM_ATTR
41 1
charge -1
@<TRIPOS>BOND
     1     1     4    1
     2     1    24    1
     3     1     2    1
     4     1     3    2
     5    25    28    1
     6    25    24    1
     7    25    26    1
     8    25    27    2
     9     6    11    1
    10     6    12    1
    11    29    36    1
    12    29    37    1
    13     7     9    1
    14     7    13    1
    15     8    10    1
    16     8    14    1
    17     4     5    1
    18    28    36    1
    19    30    33    1
    20    30    38    1
    21    31    34    1
    22    31    39    1
    23    32    35    1
    24    32    40    1
    25    41    43   ar
    26    15    19    2
    27    42    43   ar
    28    16    22    2
    29    17    12    1
    30    17    19   ar
    31    17    20   ar
    32    18    19   ar
    33    18    22   ar
    34    18    23    1
    35     9    10    1
    36     9    11    1
    37    10    12    1
    38    11     5    1
    39    33    34    1
    40    33    35    1
    41    34    36    1
    42    35    37    1
    43    37    43    1
    44    20    21   ar
    45    21    22   ar
@<TRIPOS>MOLECULE
UDP-glaA
 43 45 0 0 0
SMALL
GASTEIGER

@<TRIPOS>ATOM
      1 P          23.0029   71.9054   -2.9877 P.3     1  UNL1        0.2189
      2 O          23.6477   70.4419   -3.2321 O.3     1  UNL1       -0.4371
      3 O          22.9045   72.3215   -1.5492 O.2     1  UNL1       -0.5170
      4 O          21.6068   71.8572   -3.8026 O.3     1  UNL1       -0.3112
      5 C          20.7497   70.7442   -3.6129 C.3     1  UNL1        0.1811
      6 O          18.8866   71.8549   -4.6469 O.3     1  UNL1       -0.3308
      7 O          17.2138   70.6964   -2.4444 O.3     1  UNL1       -0.3794
      8 O          16.6823   69.0292   -4.5357 O.3     1  UNL1       -0.3779
      9 C          18.3312   70.1260   -3.1254 C.3     1  UNL1        0.1713
     10 C          17.9304   69.6906   -4.5191 C.3     1  UNL1        0.1895
     11 C          19.3255   71.2430   -3.4140 C.3     1  UNL1        0.1764
     12 C          17.9005   71.0129   -5.2666 C.3     1  UNL1        0.2383
     13 H          17.5268   70.9953   -1.5737 H       1  UNL1        0.2105
     14 H          16.7528   68.2564   -3.9492 H       1  UNL1        0.2106
     15 O          15.9989   70.5431   -7.3010 O.2     1  UNL1       -0.2464
     16 O          19.2467   70.4550  -10.5694 O.2     1  UNL1       -0.2670
     17 N          18.2212   70.8637   -6.6574 N.ar    1  UNL1       -0.2551
     18 N          17.6175   70.4991   -8.9271 N.ar    1  UNL1       -0.2743
     19 C          17.1916   70.6296   -7.5987 C.ar    1  UNL1        0.3323
     20 C          19.5441   70.9496   -7.0769 C.ar    1  UNL1        0.0869
     21 C          19.9340   70.8234   -8.3472 C.ar    1  UNL1        0.0795
     22 C          18.9210   70.5764   -9.3925 C.ar    1  UNL1        0.2626
     23 H          16.8944   70.3296   -9.6211 H       1  UNL1        0.1734
     24 O          23.9258   72.8657   -3.9050 O.3     1  UNL1       -0.2703
     25 P          24.0999   74.4726   -3.9168 P.3     1  UNL1        0.2208
     26 O          25.7049   74.6718   -3.9347 O.3     1  UNL1       -0.4371
     27 O          23.4003   75.1762   -2.7893 O.2     1  UNL1       -0.5170
     28 O          23.6156   74.9256   -5.3879 O.3     1  UNL1       -0.2858
     29 O          21.7328   76.1856   -6.0711 O.3     1  UNL1       -0.3226
     30 O          22.2107   73.5433   -9.2444 O.3     1  UNL1       -0.3794
     31 O          22.5477   72.6325   -6.4943 O.3     1  UNL1       -0.3775
     32 O          20.6673   75.7694   -8.7036 O.3     1  UNL1       -0.3792
     33 C          22.5808   74.3970   -8.1652 C.3     1  UNL1        0.1718
     34 C          21.9794   73.8882   -6.8508 C.3     1  UNL1        0.1968
     35 C          22.0768   75.8128   -8.4585 C.3     1  UNL1        0.1723
     36 C          22.2274   74.8900   -5.7163 C.3     1  UNL1        0.2706
     37 C          22.3383   76.7109   -7.2514 C.3     1  UNL1        0.1830
     38 H          22.6102   73.9041  -10.0542 H       1  UNL1        0.2105
     39 H          22.1448   72.3560   -5.6541 H       1  UNL1        0.2106
     40 H          20.2107   75.6283   -7.8570 H       1  UNL1        0.2106
     41 O          21.5707   78.3354   -8.7599 O.co2   1  UNL1       -0.5466
     42 O          21.4545   78.8424   -6.5403 O.co2   1  UNL1       -0.5466
     43 C          21.7461   78.0709   -7.4427 C.2     1  UNL1        0.0799
@<TRIPOS>UNITY_ATOM_ATTR
41 1
charge -1
@<TRIPOS>BOND
     1     1     4    1
     2     1    24    1
     3     1     2    1
     4     1     3    2
     5    25    28    1
     6    25    24    1
     7    25    26    1
     8    25    27    2
     9     6    11    1
    10     6    12    1
    11    29    36    1
    12    29    37    1
    13     7     9    1
    14     7    13    1
    15     8    10    1
    16     8    14    1
    17     4     5    1
    18    28    36    1
    19    30    33    1
    20    30    38    1
    21    31    34    1
    22    31    39    1
    23    32    35    1
    24    32    40    1
    25    41    43   ar
    26    15    19    2
    27    42    43   ar
    28    16    22    2
    29    17    12    1
    30    17    19   ar
    31    17    20   ar
    32    18    19   ar
    33    18    22   ar
    34    18    23    1
    35     9    10    1
    36     9    11    1
    37    10    12    1
    38    11     5    1
    39    33    34    1
    40    33    35    1
    41    34    36    1
    42    35    37    1
    43    37    43    1
    44    20    21   ar
    45    21    22   ar
@<TRIPOS>MOLECULE
UDP-glaA
 43 45 0 0 0
SMALL
GASTEIGER

@<TRIPOS>ATOM
      1 P          22.5345   74.0896   -5.6566 P.3     1  UNL1        0.2189
      2 O          23.8662   74.6256   -4.9106 O.3     1  UNL1       -0.4371
      3 O          22.7706   73.0192   -6.6817 O.2     1  UNL1       -0.5170
      4 O          21.8222   75.4367   -6.1982 O.3     1  UNL1       -0.3112
      5 C          20.4087   75.5258   -6.1405 C.3     1  UNL1        0.1811
      6 O          19.5174   74.4270   -8.0828 O.3     1  UNL1       -0.3308
      7 O          18.4734   77.1179   -8.8956 O.3     1  UNL1       -0.3794
      8 O          16.2588   75.9067   -7.8640 O.3     1  UNL1       -0.3779
      9 C          18.5875   76.5497   -7.5911 C.3     1  UNL1        0.1713
     10 C          17.5214   75.4949   -7.3826 C.3     1  UNL1        0.1895
     11 C          19.8661   75.7233   -7.5489 C.3     1  UNL1        0.1764
     12 C          18.0865   74.3172   -8.1584 C.3     1  UNL1        0.2383
     13 H          19.1984   77.7578   -8.9974 H       1  UNL1        0.2105
     14 H          16.0191   76.7243   -7.3948 H       1  UNL1        0.2106
     15 O          15.5750   73.1064   -8.6075 O.2     1  UNL1       -0.2464
     16 O          16.6553   69.4702   -5.9903 O.2     1  UNL1       -0.2670
     17 N          17.6851   73.0545   -7.6074 N.ar    1  UNL1       -0.2551
     18 N          16.1144   71.2968   -7.3035 N.ar    1  UNL1       -0.2743
     19 C          16.4011   72.5348   -7.8937 C.ar    1  UNL1        0.3323
     20 C          18.5598   72.3442   -6.7926 C.ar    1  UNL1        0.0869
     21 C          18.2718   71.1648   -6.2378 C.ar    1  UNL1        0.0795
     22 C          16.9513   70.5531   -6.4860 C.ar    1  UNL1        0.2626
     23 H          15.1966   70.9042   -7.4951 H       1  UNL1        0.1734
     24 O          21.5837   73.6457   -4.4261 O.3     1  UNL1       -0.2703
     25 P          21.6466   72.3607   -3.4476 P.3     1  UNL1        0.2208
     26 O          23.1628   71.8282   -3.6314 O.3     1  UNL1       -0.4371
     27 O          20.5898   71.3283   -3.7180 O.2     1  UNL1       -0.5170
     28 O          21.6087   72.9791   -1.9576 O.3     1  UNL1       -0.2858
     29 O          21.1248   71.2230   -0.4471 O.3     1  UNL1       -0.3226
     30 O          21.4101   74.5020    2.0918 O.3     1  UNL1       -0.3794
     31 O          20.0695   74.7376   -0.4875 O.3     1  UNL1       -0.3775
     32 O          21.1825   71.7634    2.3713 O.3     1  UNL1       -0.3792
     33 C          21.6903   73.6661    0.9724 C.3     1  UNL1        0.1718
     34 C          20.4382   73.4968    0.1052 C.3     1  UNL1        0.1968
     35 C          22.1646   72.3016    1.4798 C.3     1  UNL1        0.1723
     36 C          20.6807   72.4649   -1.0033 C.3     1  UNL1        0.2706
     37 C          22.3338   71.3461    0.3005 C.3     1  UNL1        0.1830
     38 H          22.2278   74.5790    2.6124 H       1  UNL1        0.2105
     39 H          19.2805   74.5793   -1.0328 H       1  UNL1        0.2106
     40 H          20.4207   71.4635    1.8470 H       1  UNL1        0.2106
     41 O          23.4138   70.0040    1.8931 O.co2   1  UNL1       -0.5466
     42 O          22.3258   68.9337    0.1996 O.co2   1  UNL1       -0.5466
     43 C          22.6713   69.9635    0.7605 C.2     1  UNL1        0.0799
@<TRIPOS>UNITY_ATOM_ATTR
41 1
charge -1
@<TRIPOS>BOND
     1     1     4    1
     2     1    24    1
     3     1     2    1
     4     1     3    2
     5    25    28    1
     6    25    24    1
     7    25    26    1
     8    25    27    2
     9     6    11    1
    10     6    12    1
    11    29    36    1
    12    29    37    1
    13     7     9    1
    14     7    13    1
    15     8    10    1
    16     8    14    1
    17     4     5    1
    18    28    36    1
    19    30    33    1
    20    30    38    1
    21    31    34    1
    22    31    39    1
    23    32    35    1
    24    32    40    1
    25    41    43   ar
    26    15    19    2
    27    42    43   ar
    28    16    22    2
    29    17    12    1
    30    17    19   ar
    31    17    20   ar
    32    18    19   ar
    33    18    22   ar
    34    18    23    1
    35     9    10    1
    36     9    11    1
    37    10    12    1
    38    11     5    1
    39    33    34    1
    40    33    35    1
    41    34    36    1
    42    35    37    1
    43    37    43    1
    44    20    21   ar
    45    21    22   ar
@<TRIPOS>MOLECULE
UDP-glaA
 43 45 0 0 0
SMALL
GASTEIGER

@<TRIPOS>ATOM
      1 P          22.4725   71.0135   -1.6274 P.3     1  UNL1        0.2189
      2 O          23.4888   71.3169   -2.8490 O.3     1  UNL1       -0.4371
      3 O          23.0960   70.3476   -0.4358 O.2     1  UNL1       -0.5170
      4 O          21.2543   70.2098   -2.3244 O.3     1  UNL1       -0.3112
      5 C          20.7704   70.6657   -3.5763 C.3     1  UNL1        0.1811
      6 O          18.9656   71.8517   -4.6300 O.3     1  UNL1       -0.3308
      7 O          17.2245   70.7686   -2.4422 O.3     1  UNL1       -0.3794
      8 O          16.6437   69.1212   -4.5361 O.3     1  UNL1       -0.3779
      9 C          18.3235   70.1505   -3.1114 C.3     1  UNL1        0.1713
     10 C          17.9183   69.7297   -4.5083 C.3     1  UNL1        0.1895
     11 C          19.3666   71.2242   -3.3920 C.3     1  UNL1        0.1764
     12 C          17.9511   71.0506   -5.2581 C.3     1  UNL1        0.2383
     13 H          17.5414   71.0557   -1.5688 H       1  UNL1        0.2105
     14 H          16.6760   68.3472   -3.9478 H       1  UNL1        0.2106
     15 O          16.0799   70.4103   -7.2739 O.2     1  UNL1       -0.2464
     16 O          19.3225   70.4397  -10.5485 O.2     1  UNL1       -0.2670
     17 N          18.2786   70.8856   -6.6454 N.ar    1  UNL1       -0.2551
     18 N          17.6959   70.4249   -8.9031 N.ar    1  UNL1       -0.2743
     19 C          17.2645   70.5632   -7.5773 C.ar    1  UNL1        0.3323
     20 C          19.5931   71.0428   -7.0708 C.ar    1  UNL1        0.0869
     21 C          19.9884   70.9080   -8.3387 C.ar    1  UNL1        0.0795
     22 C          18.9915   70.5711   -9.3741 C.ar    1  UNL1        0.2626
     23 H          16.9839   70.1926   -9.5903 H       1  UNL1        0.1734
     24 O          21.8249   72.4643   -1.3260 O.3     1  UNL1       -0.2703
     25 P          22.3895   73.7232   -0.4839 P.3     1  UNL1        0.2208
     26 O          21.5003   74.9609   -1.0258 O.3     1  UNL1       -0.4371
     27 O          23.8729   73.9273   -0.6013 O.2     1  UNL1       -0.5170
     28 O          21.8679   73.4744    1.0227 O.3     1  UNL1       -0.2858
     29 O          20.7209   75.2215    2.1324 O.3     1  UNL1       -0.3226
     30 O          21.7176   72.6966    5.2806 O.3     1  UNL1       -0.3794
     31 O          23.6253   73.2154    3.1364 O.3     1  UNL1       -0.3775
     32 O          20.1592   74.9508    4.9342 O.3     1  UNL1       -0.3792
     33 C          21.3430   73.0834    3.9613 C.3     1  UNL1        0.1718
     34 C          22.4297   73.9627    3.3334 C.3     1  UNL1        0.1968
     35 C          20.0204   73.8520    4.0273 C.3     1  UNL1        0.1723
     36 C          21.9622   74.5240    1.9848 C.3     1  UNL1        0.2706
     37 C          19.6743   74.3976    2.6436 C.3     1  UNL1        0.1830
     38 H          21.0015   72.1450    5.6390 H       1  UNL1        0.2105
     39 H          24.2786   73.8090    2.7295 H       1  UNL1        0.2106
     40 H          20.7011   75.6363    4.5082 H       1  UNL1        0.2106
     41 O          17.8841   75.3464    1.4610 O.co2   1  UNL1       -0.5466
     42 O          18.0283   75.8241    3.6854 O.co2   1  UNL1       -0.5466
     43 C          18.4566   75.2649    2.6863 C.2     1  UNL1        0.0799
@<TRIPOS>UNITY_ATOM_ATTR
41 1
charge -1
@<TRIPOS>BOND
     1     1     4    1
     2     1    24    1
     3     1     2    1
     4     1     3    2
     5    25    28    1
     6    25    24    1
     7    25    26    1
     8    25    27    2
     9     6    11    1
    10     6    12    1
    11    29    36    1
    12    29    37    1
    13     7     9    1
    14     7    13    1
    15     8    10    1
    16     8    14    1
    17     4     5    1
    18    28    36    1
    19    30    33    1
    20    30    38    1
    21    31    34    1
    22    31    39    1
    23    32    35    1
    24    32    40    1
    25    41    43   ar
    26    15    19    2
    27    42    43   ar
    28    16    22    2
    29    17    12    1
    30    17    19   ar
    31    17    20   ar
    32    18    19   ar
    33    18    22   ar
    34    18    23    1
    35     9    10    1
    36     9    11    1
    37    10    12    1
    38    11     5    1
    39    33    34    1
    40    33    35    1
    41    34    36    1
    42    35    37    1
    43    37    43    1
    44    20    21   ar
    45    21    22   ar
@<TRIPOS>MOLECULE
UDP-glaA
 43 45 0 0 0
SMALL
GASTEIGER

@<TRIPOS>ATOM
      1 P          21.0894   74.2824   -5.7430 P.3     1  UNL1        0.2189
      2 O          19.9022   74.5194   -4.6699 O.3     1  UNL1       -0.4371
      3 O          21.5831   75.5245   -6.4253 O.2     1  UNL1       -0.5170
      4 O          20.5100   73.1285   -6.7167 O.3     1  UNL1       -0.3112
      5 C          21.2147   72.8326   -7.9105 C.3     1  UNL1        0.1811
      6 O          19.9248   70.8290   -8.2202 O.3     1  UNL1       -0.3308
      7 O          18.4728   72.3207  -10.3784 O.3     1  UNL1       -0.3794
      8 O          16.7354   72.4659   -8.2817 O.3     1  UNL1       -0.3779
      9 C          18.9864   72.8019   -9.1364 C.3     1  UNL1        0.1713
     10 C          18.1118   72.3373   -7.9911 C.3     1  UNL1        0.1895
     11 C          20.2939   72.0732   -8.8550 C.3     1  UNL1        0.1764
     12 C          18.5423   70.8891   -7.8324 C.3     1  UNL1        0.2383
     13 H          19.0851   72.6092  -11.0765 H       1  UNL1        0.2105
     14 H          16.5638   73.4032   -8.4771 H       1  UNL1        0.2106
     15 O          16.1489   69.9066   -6.7002 O.2     1  UNL1       -0.2464
     16 O          18.1744   69.1359   -2.6330 O.2     1  UNL1       -0.2670
     17 N          18.4158   70.4246   -6.4805 N.ar    1  UNL1       -0.2551
     18 N          17.1590   69.5239   -4.6755 N.ar    1  UNL1       -0.2743
     19 C          17.1687   69.9517   -6.0097 C.ar    1  UNL1        0.3323
     20 C          19.5202   70.4407   -5.6358 C.ar    1  UNL1        0.0869
     21 C          19.4950   70.0290   -4.3663 C.ar    1  UNL1        0.0795
     22 C          18.2311   69.5213   -3.7967 C.ar    1  UNL1        0.2626
     23 H          16.2728   69.1804   -4.3153 H       1  UNL1        0.1734
     24 O          22.2088   73.4991   -4.8778 O.3     1  UNL1       -0.2703
     25 P          23.1315   73.9905   -3.6450 P.3     1  UNL1        0.2208
     26 O          22.7960   75.5690   -3.5365 O.3     1  UNL1       -0.4371
     27 O          24.5916   73.6766   -3.8051 O.2     1  UNL1       -0.5170
     28 O          22.4486   73.3369   -2.3372 O.3     1  UNL1       -0.2858
     29 O          22.9455   72.6547   -0.1265 O.3     1  UNL1       -0.3226
     30 O          21.2512   69.2181   -1.7385 O.3     1  UNL1       -0.3794
     31 O          23.0993   70.8365   -3.3106 O.3     1  UNL1       -0.3775
     32 O          22.0535   70.0751    0.7618 O.3     1  UNL1       -0.3792
     33 C          21.4709   70.6090   -1.5208 C.3     1  UNL1        0.1718
     34 C          22.9033   70.9910   -1.9089 C.3     1  UNL1        0.1968
     35 C          21.2272   70.9234   -0.0422 C.3     1  UNL1        0.1723
     36 C          23.2027   72.4438   -1.5187 C.3     1  UNL1        0.2706
     37 C          21.5947   72.3785    0.2404 C.3     1  UNL1        0.1830
     38 H          20.3353   69.0214   -1.4778 H       1  UNL1        0.2105
     39 H          24.0140   71.0982   -3.5095 H       1  UNL1        0.2106
     40 H          22.9716   70.3887    0.6990 H       1  UNL1        0.2106
     41 O          22.2592   73.7700    2.0084 O.co2   1  UNL1       -0.5466
     42 O          20.8185   72.0749    2.5065 O.co2   1  UNL1       -0.5466
     43 C          21.4955   72.6945    1.6989 C.2     1  UNL1        0.0799
@<TRIPOS>UNITY_ATOM_ATTR
41 1
charge -1
@<TRIPOS>BOND
     1     1     4    1
     2     1    24    1
     3     1     2    1
     4     1     3    2
     5    25    28    1
     6    25    24    1
     7    25    26    1
     8    25    27    2
     9     6    11    1
    10     6    12    1
    11    29    36    1
    12    29    37    1
    13     7     9    1
    14     7    13    1
    15     8    10    1
    16     8    14    1
    17     4     5    1
    18    28    36    1
    19    30    33    1
    20    30    38    1
    21    31    34    1
    22    31    39    1
    23    32    35    1
    24    32    40    1
    25    41    43   ar
    26    15    19    2
    27    42    43   ar
    28    16    22    2
    29    17    12    1
    30    17    19   ar
    31    17    20   ar
    32    18    19   ar
    33    18    22   ar
    34    18    23    1
    35     9    10    1
    36     9    11    1
    37    10    12    1
    38    11     5    1
    39    33    34    1
    40    33    35    1
    41    34    36    1
    42    35    37    1
    43    37    43    1
    44    20    21   ar
    45    21    22   ar
@<TRIPOS>MOLECULE
UDP-glaA
 43 45 0 0 0
SMALL
GASTEIGER

@<TRIPOS>ATOM
      1 P          19.9902   70.8646   -4.1231 P.3     1  UNL1        0.2189
      2 O          20.6012   69.5663   -3.3759 O.3     1  UNL1       -0.4371
      3 O          18.8091   71.4903   -3.4407 O.2     1  UNL1       -0.5170
      4 O          19.7400   70.3599   -5.6391 O.3     1  UNL1       -0.3112
      5 C          19.8849   71.2930   -6.6963 C.3     1  UNL1        0.1811
      6 O          17.6400   70.9846   -7.4961 O.3     1  UNL1       -0.3308
      7 O          18.8268   70.9378  -10.2495 O.3     1  UNL1       -0.3794
      8 O          17.8358   73.4719  -10.0712 O.3     1  UNL1       -0.3779
      9 C          19.2116   71.7113   -9.1131 C.3     1  UNL1        0.1713
     10 C          18.2142   72.8250   -8.8738 C.3     1  UNL1        0.1895
     11 C          19.0280   70.8470   -7.8726 C.3     1  UNL1        0.1764
     12 C          17.0608   72.0814   -8.2221 C.3     1  UNL1        0.2383
     13 H          19.4713   70.2153  -10.3400 H       1  UNL1        0.2105
     14 H          18.6439   73.8264  -10.4804 H       1  UNL1        0.2106
     15 O          14.9223   73.7672   -8.9703 O.2     1  UNL1       -0.2464
     16 O          14.2995   75.2058   -4.6366 O.2     1  UNL1       -0.2670
     17 N          16.3218   72.9069   -7.3101 N.ar    1  UNL1       -0.2551
     18 N          14.6139   74.4828   -6.8119 N.ar    1  UNL1       -0.2743
     19 C          15.2660   73.7179   -7.7879 C.ar    1  UNL1        0.3323
     20 C          16.6457   72.9078   -5.9578 C.ar    1  UNL1        0.0869
     21 C          16.0140   73.6425   -5.0396 C.ar    1  UNL1        0.0795
     22 C          14.9002   74.5174   -5.4559 C.ar    1  UNL1        0.2626
     23 H          13.8518   75.0740   -7.1327 H       1  UNL1        0.1734
     24 O          21.2749   71.8356   -4.2711 O.3     1  UNL1       -0.2703
     25 P          22.6591   71.8968   -3.4387 P.3     1  UNL1        0.2208
     26 O          23.5915   72.8636   -4.3398 O.3     1  UNL1       -0.4371
     27 O          23.2612   70.5526   -3.1451 O.2     1  UNL1       -0.5170
     28 O          22.3100   72.7715   -2.1284 O.3     1  UNL1       -0.2858
     29 O          21.5122   71.2273   -0.5226 O.3     1  UNL1       -0.3226
     30 O          21.4542   74.8003    1.6010 O.3     1  UNL1       -0.3794
     31 O          20.5948   74.7184   -1.1848 O.3     1  UNL1       -0.3775
     32 O          21.0924   72.1220    2.1722 O.3     1  UNL1       -0.3792
     33 C          21.8990   73.8257    0.6615 C.3     1  UNL1        0.1718
     34 C          20.8135   73.5597   -0.3870 C.3     1  UNL1        0.1968
     35 C          22.2325   72.5323    1.4101 C.3     1  UNL1        0.1723
     36 C          21.2130   72.3925   -1.2983 C.3     1  UNL1        0.2706
     37 C          22.5748   71.4326    0.4072 C.3     1  UNL1        0.1830
     38 H          22.1700   74.9349    2.2453 H       1  UNL1        0.2105
     39 H          19.9088   74.4997   -1.8378 H       1  UNL1        0.2106
     40 H          20.4250   71.7653    1.5619 H       1  UNL1        0.2106
     41 O          22.0067   69.1593    0.5225 O.co2   1  UNL1       -0.5466
     42 O          23.5445   69.9226    2.0225 O.co2   1  UNL1       -0.5466
     43 C          22.7814   70.1167    1.0874 C.2     1  UNL1        0.0799
@<TRIPOS>UNITY_ATOM_ATTR
41 1
charge -1
@<TRIPOS>BOND
     1     1     4    1
     2     1    24    1
     3     1     2    1
     4     1     3    2
     5    25    28    1
     6    25    24    1
     7    25    26    1
     8    25    27    2
     9     6    11    1
    10     6    12    1
    11    29    36    1
    12    29    37    1
    13     7     9    1
    14     7    13    1
    15     8    10    1
    16     8    14    1
    17     4     5    1
    18    28    36    1
    19    30    33    1
    20    30    38    1
    21    31    34    1
    22    31    39    1
    23    32    35    1
    24    32    40    1
    25    41    43   ar
    26    15    19    2
    27    42    43   ar
    28    16    22    2
    29    17    12    1
    30    17    19   ar
    31    17    20   ar
    32    18    19   ar
    33    18    22   ar
    34    18    23    1
    35     9    10    1
    36     9    11    1
    37    10    12    1
    38    11     5    1
    39    33    34    1
    40    33    35    1
    41    34    36    1
    42    35    37    1
    43    37    43    1
    44    20    21   ar
    45    21    22   ar
@<TRIPOS>MOLECULE
UDP-glaA
 43 45 0 0 0
SMALL
GASTEIGER

@<TRIPOS>ATOM
      1 P          22.6601   74.9203   -8.7887 P.3     1  UNL1        0.2189
      2 O          22.2306   76.3758   -9.3494 O.3     1  UNL1       -0.4371
      3 O          23.4889   74.0980   -9.7316 O.2     1  UNL1       -0.5170
      4 O          21.2626   74.2557   -8.3189 O.3     1  UNL1       -0.3112
      5 C          21.2658   72.9057   -7.8869 C.3     1  UNL1        0.1811
      6 O          20.0178   70.8676   -8.1378 O.3     1  UNL1       -0.3308
      7 O          18.6261   72.2209  -10.4233 O.3     1  UNL1       -0.3794
      8 O          16.8094   72.4463   -8.4023 O.3     1  UNL1       -0.3779
      9 C          19.0858   72.7744   -9.1904 C.3     1  UNL1        0.1713
     10 C          18.1757   72.3557   -8.0551 C.3     1  UNL1        0.1895
     11 C          20.3922   72.0830   -8.8232 C.3     1  UNL1        0.1764
     12 C          18.6210   70.9250   -7.8046 C.3     1  UNL1        0.2383
     13 H          19.2599   72.4827  -11.1127 H       1  UNL1        0.2105
     14 H          16.6316   73.3692   -8.6529 H       1  UNL1        0.2106
     15 O          16.2016   69.9626   -6.7111 O.2     1  UNL1       -0.2464
     16 O          18.0839   69.4389   -2.5372 O.2     1  UNL1       -0.2670
     17 N          18.4507   70.5295   -6.4357 N.ar    1  UNL1       -0.2551
     18 N          17.1404   69.7030   -4.6333 N.ar    1  UNL1       -0.2743
     19 C          17.1939   70.0607   -5.9869 C.ar    1  UNL1        0.3323
     20 C          19.5222   70.6081   -5.5530 C.ar    1  UNL1        0.0869
     21 C          19.4553   70.2628   -4.2654 C.ar    1  UNL1        0.0795
     22 C          18.1786   69.7641   -3.7167 C.ar    1  UNL1        0.2626
     23 H          16.2465   69.3637   -4.2884 H       1  UNL1        0.1734
     24 O          23.3847   75.2716   -7.3863 O.3     1  UNL1       -0.2703
     25 P          24.5009   76.3812   -7.0183 P.3     1  UNL1        0.2208
     26 O          24.8932   76.0207   -5.4911 O.3     1  UNL1       -0.4371
     27 O          24.0513   77.7992   -7.2248 O.2     1  UNL1       -0.5170
     28 O          25.7967   75.9600   -7.8830 O.3     1  UNL1       -0.2858
     29 O          28.0911   75.9340   -7.3048 O.3     1  UNL1       -0.3226
     30 O          28.2217   76.9086  -11.3437 O.3     1  UNL1       -0.3794
     31 O          26.2001   78.0837   -9.6006 O.3     1  UNL1       -0.3775
     32 O          30.0479   76.2385   -9.3825 O.3     1  UNL1       -0.3792
     33 C          27.7561   76.2974  -10.1437 C.3     1  UNL1        0.1718
     34 C          27.3351   77.3654   -9.1285 C.3     1  UNL1        0.1968
     35 C          28.8777   75.4335   -9.5604 C.3     1  UNL1        0.1723
     36 C          26.9959   76.7259   -7.7764 C.3     1  UNL1        0.2706
     37 C          28.4483   74.8837   -8.2020 C.3     1  UNL1        0.1830
     38 H          28.4790   76.1971  -11.9546 H       1  UNL1        0.2105
     39 H          25.9654   78.7397   -8.9229 H       1  UNL1        0.2106
     40 H          29.9072   76.8236   -8.6190 H       1  UNL1        0.2106
     41 O          30.1712   74.9187   -6.6100 O.co2   1  UNL1       -0.5466
     42 O          29.8824   72.9865   -7.7848 O.co2   1  UNL1       -0.5466
     43 C          29.5619   74.1397   -7.5360 C.2     1  UNL1        0.0799
@<TRIPOS>UNITY_ATOM_ATTR
41 1
charge -1
@<TRIPOS>BOND
     1     1     4    1
     2     1    24    1
     3     1     2    1
     4     1     3    2
     5    25    28    1
     6    25    24    1
     7    25    26    1
     8    25    27    2
     9     6    11    1
    10     6    12    1
    11    29    36    1
    12    29    37    1
    13     7     9    1
    14     7    13    1
    15     8    10    1
    16     8    14    1
    17     4     5    1
    18    28    36    1
    19    30    33    1
    20    30    38    1
    21    31    34    1
    22    31    39    1
    23    32    35    1
    24    32    40    1
    25    41    43   ar
    26    15    19    2
    27    42    43   ar
    28    16    22    2
    29    17    12    1
    30    17    19   ar
    31    17    20   ar
    32    18    19   ar
    33    18    22   ar
    34    18    23    1
    35     9    10    1
    36     9    11    1
    37    10    12    1
    38    11     5    1
    39    33    34    1
    40    33    35    1
    41    34    36    1
    42    35    37    1
    43    37    43    1
    44    20    21   ar
    45    21    22   ar
@<TRIPOS>MOLECULE
UDP-glaA
 43 45 0 0 0
SMALL
GASTEIGER

@<TRIPOS>ATOM
      1 P          22.7666   75.1146   -8.3519 P.3     1  UNL1        0.2189
      2 O          23.6345   73.9612   -9.0824 O.3     1  UNL1       -0.4371
      3 O          23.2704   75.5247   -6.9991 O.2     1  UNL1       -0.5170
      4 O          21.2519   74.5496   -8.3964 O.3     1  UNL1       -0.3112
      5 C          20.9774   73.2988   -7.7887 C.3     1  UNL1        0.1811
      6 O          19.9519   71.1542   -8.1400 O.3     1  UNL1       -0.3308
      7 O          18.4435   72.4517  -10.3834 O.3     1  UNL1       -0.3794
      8 O          16.5977   72.3990   -8.3769 O.3     1  UNL1       -0.3779
      9 C          18.8331   72.9967   -9.1229 C.3     1  UNL1        0.1713
     10 C          17.9633   72.4369   -8.0172 C.3     1  UNL1        0.1895
     11 C          20.2020   72.4304   -8.7692 C.3     1  UNL1        0.1764
     12 C          18.5543   71.0510   -7.8217 C.3     1  UNL1        0.2383
     13 H          19.0516   72.8077  -11.0535 H       1  UNL1        0.2105
     14 H          16.3261   73.3083   -8.5907 H       1  UNL1        0.2106
     15 O          16.1857   69.9460   -6.7520 O.2     1  UNL1       -0.2464
     16 O          18.1387   69.2842   -2.6305 O.2     1  UNL1       -0.2670
     17 N          18.4159   70.5814   -6.4727 N.ar    1  UNL1       -0.2551
     18 N          17.1596   69.6176   -4.7002 N.ar    1  UNL1       -0.2743
     19 C          17.1828   70.0445   -6.0345 C.ar    1  UNL1        0.3323
     20 C          19.4949   70.6555   -5.5989 C.ar    1  UNL1        0.0869
     21 C          19.4571   70.2438   -4.3297 C.ar    1  UNL1        0.0795
     22 C          18.2065   69.6713   -3.7931 C.ar    1  UNL1        0.2626
     23 H          16.2831   69.2286   -4.3632 H       1  UNL1        0.1734
     24 O          22.7438   76.3013   -9.4503 O.3     1  UNL1       -0.2703
     25 P          23.8931   77.3390   -9.9140 P.3     1  UNL1        0.2208
     26 O          25.1537   76.9365   -8.9840 O.3     1  UNL1       -0.4371
     27 O          23.4918   78.7835   -9.8231 O.2     1  UNL1       -0.5170
     28 O          24.3078   76.8544  -11.3963 O.3     1  UNL1       -0.2858
     29 O          24.6529   74.6966  -12.3041 O.3     1  UNL1       -0.3226
     30 O          27.4835   76.9605  -14.3390 O.3     1  UNL1       -0.3794
     31 O          27.0156   77.3845  -11.4917 O.3     1  UNL1       -0.3775
     32 O          26.4839   74.3901  -14.4931 O.3     1  UNL1       -0.3792
     33 C          26.2569   76.6541  -13.6820 C.3     1  UNL1        0.1718
     34 C          26.5146   76.2693  -12.2212 C.3     1  UNL1        0.1968
     35 C          25.5775   75.4953  -14.4169 C.3     1  UNL1        0.1723
     36 C          25.2255   75.7733  -11.5546 C.3     1  UNL1        0.2706
     37 C          24.3333   75.0582  -13.6467 C.3     1  UNL1        0.1830
     38 H          27.2729   77.1954  -15.2589 H       1  UNL1        0.2105
     39 H          27.1541   77.0964  -10.5738 H       1  UNL1        0.2106
     40 H          26.5484   73.9823  -13.6130 H       1  UNL1        0.2106
     41 O          22.9344   74.1860  -15.3159 O.co2   1  UNL1       -0.5466
     42 O          23.8737   72.6981  -13.8665 O.co2   1  UNL1       -0.5466
     43 C          23.7095   73.8443  -14.2584 C.2     1  UNL1        0.0799
@<TRIPOS>UNITY_ATOM_ATTR
41 1
charge -1
@<TRIPOS>BOND
     1     1     4    1
     2     1    24    1
     3     1     2    1
     4     1     3    2
     5    25    28    1
     6    25    24    1
     7    25    26    1
     8    25    27    2
     9     6    11    1
    10     6    12    1
    11    29    36    1
    12    29    37    1
    13     7     9    1
    14     7    13    1
    15     8    10    1
    16     8    14    1
    17     4     5    1
    18    28    36    1
    19    30    33    1
    20    30    38    1
    21    31    34    1
    22    31    39    1
    23    32    35    1
    24    32    40    1
    25    41    43   ar
    26    15    19    2
    27    42    43   ar
    28    16    22    2
    29    17    12    1
    30    17    19   ar
    31    17    20   ar
    32    18    19   ar
    33    18    22   ar
    34    18    23    1
    35     9    10    1
    36     9    11    1
    37    10    12    1
    38    11     5    1
    39    33    34    1
    40    33    35    1
    41    34    36    1
    42    35    37    1
    43    37    43    1
    44    20    21   ar
    45    21    22   ar
@<TRIPOS>MOLECULE
UDP-glaA
 43 45 0 0 0
SMALL
GASTEIGER

@<TRIPOS>ATOM
      1 P          21.6294   73.4618   -5.6618 P.3     1  UNL1        0.2189
      2 O          20.9975   74.8679   -6.1526 O.3     1  UNL1       -0.4371
      3 O          22.6184   72.8475   -6.6086 O.2     1  UNL1       -0.5170
      4 O          20.3370   72.5555   -5.3097 O.3     1  UNL1       -0.3112
      5 C          20.5278   71.3628   -4.5679 C.3     1  UNL1        0.1811
      6 O          18.3208   72.1106   -3.9811 O.3     1  UNL1       -0.3308
      7 O          18.0815   69.5701   -2.4063 O.3     1  UNL1       -0.3794
      8 O          16.6921   68.9939   -4.6808 O.3     1  UNL1       -0.3779
      9 C          18.7406   69.8025   -3.6510 C.3     1  UNL1        0.1713
     10 C          17.7243   69.9548   -4.7630 C.3     1  UNL1        0.1895
     11 C          19.3666   71.1900   -3.5991 C.3     1  UNL1        0.1764
     12 C          17.2226   71.3714   -4.5404 C.3     1  UNL1        0.2383
     13 H          18.7683   69.5184   -1.7199 H       1  UNL1        0.2105
     14 H          17.1065   68.1149   -4.7221 H       1  UNL1        0.2106
     15 O          16.5067   69.9837   -6.8936 O.2     1  UNL1       -0.2464
     16 O          15.6447   73.9024   -9.1607 O.2     1  UNL1       -0.2670
     17 N          16.8068   72.0036   -5.7597 N.ar    1  UNL1       -0.2551
     18 N          16.0784   71.9360   -8.0211 N.ar    1  UNL1       -0.2743
     19 C          16.4696   71.2155   -6.8849 C.ar    1  UNL1        0.3323
     20 C          16.7364   73.3904   -5.8325 C.ar    1  UNL1        0.0869
     21 C          16.3611   74.0625   -6.9230 C.ar    1  UNL1        0.0795
     22 C          15.9934   73.3144   -8.1415 C.ar    1  UNL1        0.2626
     23 H          15.8320   71.3901   -8.8423 H       1  UNL1        0.1734
     24 O          22.2278   73.8229   -4.2035 O.3     1  UNL1       -0.2703
     25 P          23.4589   73.1828   -3.3744 P.3     1  UNL1        0.2208
     26 O          24.7268   74.0666   -3.8514 O.3     1  UNL1       -0.4371
     27 O          23.6274   71.7028   -3.5664 O.2     1  UNL1       -0.5170
     28 O          23.2000   73.6316   -1.8462 O.3     1  UNL1       -0.2858
     29 O          21.6027   72.0658   -1.0740 O.3     1  UNL1       -0.3226
     30 O          22.4972   74.1788    2.3922 O.3     1  UNL1       -0.3794
     31 O          22.1959   75.5686   -0.1542 O.3     1  UNL1       -0.3775
     32 O          21.0618   71.9105    1.7406 O.3     1  UNL1       -0.3792
     33 C          22.7092   73.5658    1.1234 C.3     1  UNL1        0.1718
     34 C          21.8151   74.2137    0.0608 C.3     1  UNL1        0.1968
     35 C          22.3914   72.0723    1.2357 C.3     1  UNL1        0.1723
     36 C          21.9087   73.4508   -1.2664 C.3     1  UNL1        0.2706
     37 C          22.4750   71.4246   -0.1447 C.3     1  UNL1        0.1830
     38 H          23.0802   73.7367    3.0326 H       1  UNL1        0.2105
     39 H          21.6103   75.9328   -0.8391 H       1  UNL1        0.2106
     40 H          20.4334   72.1371    1.0341 H       1  UNL1        0.2106
     41 O          20.8394   69.8373   -0.7008 O.co2   1  UNL1       -0.5466
     42 O          22.6905   69.0808    0.3939 O.co2   1  UNL1       -0.5466
     43 C          22.0459   69.9924   -0.1041 C.2     1  UNL1        0.0799
@<TRIPOS>UNITY_ATOM_ATTR
41 1
charge -1
@<TRIPOS>BOND
     1     1     4    1
     2     1    24    1
     3     1     2    1
     4     1     3    2
     5    25    28    1
     6    25    24    1
     7    25    26    1
     8    25    27    2
     9     6    11    1
    10     6    12    1
    11    29    36    1
    12    29    37    1
    13     7     9    1
    14     7    13    1
    15     8    10    1
    16     8    14    1
    17     4     5    1
    18    28    36    1
    19    30    33    1
    20    30    38    1
    21    31    34    1
    22    31    39    1
    23    32    35    1
    24    32    40    1
    25    41    43   ar
    26    15    19    2
    27    42    43   ar
    28    16    22    2
    29    17    12    1
    30    17    19   ar
    31    17    20   ar
    32    18    19   ar
    33    18    22   ar
    34    18    23    1
    35     9    10    1
    36     9    11    1
    37    10    12    1
    38    11     5    1
    39    33    34    1
    40    33    35    1
    41    34    36    1
    42    35    37    1
    43    37    43    1
    44    20    21   ar
    45    21    22   ar
@<TRIPOS>MOLECULE
UDP-glaA
 43 45 0 0 0
SMALL
GASTEIGER

@<TRIPOS>ATOM
      1 P          18.3540   70.4638   -3.1817 P.3     1  UNL1        0.2189
      2 O          17.6373   69.1882   -3.8719 O.3     1  UNL1       -0.4371
      3 O          17.4212   71.4232   -2.5024 O.2     1  UNL1       -0.5170
      4 O          19.2640   71.0868   -4.3647 O.3     1  UNL1       -0.3112
      5 C          19.0712   70.6153   -5.6874 C.3     1  UNL1        0.1811
      6 O          18.6335   72.8126   -6.5562 O.3     1  UNL1       -0.3308
      7 O          16.4082   71.5479   -8.1183 O.3     1  UNL1       -0.3794
      8 O          18.3807   71.7949   -9.9849 O.3     1  UNL1       -0.3779
      9 C          17.6921   71.0198   -7.7859 C.3     1  UNL1        0.1713
     10 C          18.7643   71.6750   -8.6307 C.3     1  UNL1        0.1895
     11 C          18.0502   71.5018   -6.3862 C.3     1  UNL1        0.1764
     12 C          18.9248   73.0225   -7.9477 C.3     1  UNL1        0.2383
     13 H          15.7603   71.1286   -7.5268 H       1  UNL1        0.2105
     14 H          18.1919   70.8999  -10.3160 H       1  UNL1        0.2106
     15 O          21.2669   71.4445   -7.9373 O.2     1  UNL1       -0.2464
     16 O          23.9776   75.1385   -8.4321 O.2     1  UNL1       -0.2670
     17 N          20.2553   73.5454   -8.0727 N.ar    1  UNL1       -0.2551
     18 N          22.6152   73.2850   -8.1832 N.ar    1  UNL1       -0.2743
     19 C          21.3641   72.6673   -8.0548 C.ar    1  UNL1        0.3323
     20 C          20.4517   74.9150   -8.2110 C.ar    1  UNL1        0.0869
     21 C          21.6509   75.4885   -8.3329 C.ar    1  UNL1        0.0795
     22 C          22.8606   74.6423   -8.3228 C.ar    1  UNL1        0.2626
     23 H          23.4268   72.6732   -8.1723 H       1  UNL1        0.1734
     24 O          19.4466   69.7807   -2.2046 O.3     1  UNL1       -0.2703
     25 P          20.8140   70.3645   -1.5707 P.3     1  UNL1        0.2208
     26 O          21.9115   70.0714   -2.7221 O.3     1  UNL1       -0.4371
     27 O          21.1608   69.7961   -0.2245 O.2     1  UNL1       -0.5170
     28 O          20.6216   71.9666   -1.5884 O.3     1  UNL1       -0.2858
     29 O          22.6721   73.0533   -2.0506 O.3     1  UNL1       -0.3226
     30 O          20.1393   76.2601   -1.2888 O.3     1  UNL1       -0.3794
     31 O          20.0012   73.8439    0.3387 O.3     1  UNL1       -0.3775
     32 O          22.7133   75.9177   -2.2307 O.3     1  UNL1       -0.3792
     33 C          20.5443   74.9722   -1.7442 C.3     1  UNL1        0.1718
     34 C          21.0574   74.1280   -0.5727 C.3     1  UNL1        0.1968
     35 C          21.6489   75.1418   -2.7910 C.3     1  UNL1        0.1723
     36 C          21.6539   72.8073   -1.0750 C.3     1  UNL1        0.2706
     37 C          22.1952   73.7719   -3.1872 C.3     1  UNL1        0.1830
     38 H          19.8251   76.7593   -2.0619 H       1  UNL1        0.2105
     39 H          20.3705   73.3015    1.0558 H       1  UNL1        0.2106
     40 H          23.2004   75.3626   -1.5984 H       1  UNL1        0.2106
     41 O          23.1866   74.9262   -4.9728 O.co2   1  UNL1       -0.5466
     42 O          24.3501   73.1725   -4.0964 O.co2   1  UNL1       -0.5466
     43 C          23.3645   73.8955   -4.1115 C.2     1  UNL1        0.0799
@<TRIPOS>UNITY_ATOM_ATTR
41 1
charge -1
@<TRIPOS>BOND
     1     1     4    1
     2     1    24    1
     3     1     2    1
     4     1     3    2
     5    25    28    1
     6    25    24    1
     7    25    26    1
     8    25    27    2
     9     6    11    1
    10     6    12    1
    11    29    36    1
    12    29    37    1
    13     7     9    1
    14     7    13    1
    15     8    10    1
    16     8    14    1
    17     4     5    1
    18    28    36    1
    19    30    33    1
    20    30    38    1
    21    31    34    1
    22    31    39    1
    23    32    35    1
    24    32    40    1
    25    41    43   ar
    26    15    19    2
    27    42    43   ar
    28    16    22    2
    29    17    12    1
    30    17    19   ar
    31    17    20   ar
    32    18    19   ar
    33    18    22   ar
    34    18    23    1
    35     9    10    1
    36     9    11    1
    37    10    12    1
    38    11     5    1
    39    33    34    1
    40    33    35    1
    41    34    36    1
    42    35    37    1
    43    37    43    1
    44    20    21   ar
    45    21    22   ar
@<TRIPOS>MOLECULE
UDP-glaA
 43 45 0 0 0
SMALL
GASTEIGER

@<TRIPOS>ATOM
      1 P          22.4648   72.7411   -4.5273 P.3     1  UNL1        0.2189
      2 O          23.9995   73.1287   -4.1930 O.3     1  UNL1       -0.4371
      3 O          21.9578   71.5098   -3.8352 O.2     1  UNL1       -0.5170
      4 O          22.4138   72.7103   -6.1434 O.3     1  UNL1       -0.3112
      5 C          21.1928   73.0294   -6.7889 C.3     1  UNL1        0.1811
      6 O          19.0465   71.9494   -6.8317 O.3     1  UNL1       -0.3308
      7 O          20.3026   69.9406   -8.6697 O.3     1  UNL1       -0.3794
      8 O          18.9242   71.5435  -10.3920 O.3     1  UNL1       -0.3779
      9 C          20.5303   71.3468   -8.5775 C.3     1  UNL1        0.1713
     10 C          19.3652   72.1077   -9.1743 C.3     1  UNL1        0.1895
     11 C          20.4490   71.7404   -7.1084 C.3     1  UNL1        0.1764
     12 C          18.3241   72.0060   -8.0727 C.3     1  UNL1        0.2383
     13 H          21.0540   69.4966   -8.2411 H       1  UNL1        0.2105
     14 H          19.6784   71.5472  -11.0064 H       1  UNL1        0.2106
     15 O          19.1030   74.6540   -8.6700 O.2     1  UNL1       -0.2464
     16 O          14.8468   76.2644   -7.9419 O.2     1  UNL1       -0.2670
     17 N          17.4402   73.1363   -8.0476 N.ar    1  UNL1       -0.2551
     18 N          16.9832   75.4542   -8.3065 N.ar    1  UNL1       -0.2743
     19 C          17.9317   74.4246   -8.3632 C.ar    1  UNL1        0.3323
     20 C          16.1019   72.9624   -7.7128 C.ar    1  UNL1        0.0869
     21 C          15.2099   73.9542   -7.6637 C.ar    1  UNL1        0.0795
     22 C          15.6420   75.3304   -7.9785 C.ar    1  UNL1        0.2626
     23 H          17.3142   76.3891   -8.5290 H       1  UNL1        0.1734
     24 O          21.6614   74.0968   -4.1644 O.3     1  UNL1       -0.2703
     25 P          20.6539   74.4387   -2.9475 P.3     1  UNL1        0.2208
     26 O          19.3595   73.5238   -3.2692 O.3     1  UNL1       -0.4371
     27 O          20.3548   75.9019   -2.7881 O.2     1  UNL1       -0.5170
     28 O          21.3284   73.7513   -1.6527 O.3     1  UNL1       -0.2858
     29 O          20.9560   71.7243   -0.4899 O.3     1  UNL1       -0.3226
     30 O          21.7300   74.3793    2.6135 O.3     1  UNL1       -0.3794
     31 O          20.0815   75.1885    0.3478 O.3     1  UNL1       -0.3775
     32 O          21.4036   71.6497    2.3443 O.3     1  UNL1       -0.3792
     33 C          21.8213   73.7956    1.3169 C.3     1  UNL1        0.1718
     34 C          20.4610   73.8422    0.6128 C.3     1  UNL1        0.1968
     35 C          22.2882   72.3443    1.4590 C.3     1  UNL1        0.1723
     36 C          20.5066   73.0656   -0.7090 C.3     1  UNL1        0.2706
     37 C          22.2559   71.6589    0.0946 C.3     1  UNL1        0.1830
     38 H          22.6108   74.3258    3.0220 H       1  UNL1        0.2105
     39 H          19.2218   75.1672   -0.1054 H       1  UNL1        0.2106
     40 H          20.5665   71.4850    1.8781 H       1  UNL1        0.2106
     41 O          21.4664   69.4849    0.4870 O.co2   1  UNL1       -0.5466
     42 O          23.6936   69.7194    0.0609 O.co2   1  UNL1       -0.5466
     43 C          22.5802   70.2031    0.2057 C.2     1  UNL1        0.0799
@<TRIPOS>UNITY_ATOM_ATTR
41 1
charge -1
@<TRIPOS>BOND
     1     1     4    1
     2     1    24    1
     3     1     2    1
     4     1     3    2
     5    25    28    1
     6    25    24    1
     7    25    26    1
     8    25    27    2
     9     6    11    1
    10     6    12    1
    11    29    36    1
    12    29    37    1
    13     7     9    1
    14     7    13    1
    15     8    10    1
    16     8    14    1
    17     4     5    1
    18    28    36    1
    19    30    33    1
    20    30    38    1
    21    31    34    1
    22    31    39    1
    23    32    35    1
    24    32    40    1
    25    41    43   ar
    26    15    19    2
    27    42    43   ar
    28    16    22    2
    29    17    12    1
    30    17    19   ar
    31    17    20   ar
    32    18    19   ar
    33    18    22   ar
    34    18    23    1
    35     9    10    1
    36     9    11    1
    37    10    12    1
    38    11     5    1
    39    33    34    1
    40    33    35    1
    41    34    36    1
    42    35    37    1
    43    37    43    1
    44    20    21   ar
    45    21    22   ar
@<TRIPOS>MOLECULE
UDP-glaA
 43 45 0 0 0
SMALL
GASTEIGER

@<TRIPOS>ATOM
      1 P          22.1020   73.5859   -5.9475 P.3     1  UNL1        0.2189
      2 O          20.9718   74.4277   -5.1528 O.3     1  UNL1       -0.4371
      3 O          22.9856   74.4025   -6.8444 O.2     1  UNL1       -0.5170
      4 O          21.2701   72.4016   -6.6693 O.3     1  UNL1       -0.3112
      5 C          21.3334   72.2925   -8.0811 C.3     1  UNL1        0.1811
      6 O          19.0307   71.7401   -7.6729 O.3     1  UNL1       -0.3308
      7 O          18.9402   70.8198  -10.5253 O.3     1  UNL1       -0.3794
      8 O          17.7631   73.2761  -10.6544 O.3     1  UNL1       -0.3779
      9 C          19.6522   71.9163   -9.9522 C.3     1  UNL1        0.1713
     10 C          18.6996   73.0460   -9.6221 C.3     1  UNL1        0.1895
     11 C          20.1348   71.4926   -8.5712 C.3     1  UNL1        0.1764
     12 C          18.0484   72.5466   -8.3436 C.3     1  UNL1        0.2383
     13 H          19.5831   70.1076  -10.6833 H       1  UNL1        0.2105
     14 H          18.2633   73.4833  -11.4625 H       1  UNL1        0.2106
     15 O          15.8694   72.4252   -6.5513 O.2     1  UNL1       -0.2464
     16 O          16.6190   76.7216   -5.0621 O.2     1  UNL1       -0.2670
     17 N          17.6520   73.6183   -7.4754 N.ar    1  UNL1       -0.2551
     18 N          16.2438   74.5649   -5.8113 N.ar    1  UNL1       -0.2743
     19 C          16.5422   73.4558   -6.6137 C.ar    1  UNL1        0.3323
     20 C          18.3603   74.8148   -7.4835 C.ar    1  UNL1        0.0869
     21 C          18.0635   75.8630   -6.7120 C.ar    1  UNL1        0.0795
     22 C          16.9184   75.7757   -5.7843 C.ar    1  UNL1        0.2626
     23 H          15.4493   74.4710   -5.1842 H       1  UNL1        0.1734
     24 O          22.8794   72.8117   -4.7595 O.3     1  UNL1       -0.2703
     25 P          22.3219   71.9137   -3.5366 P.3     1  UNL1        0.2208
     26 O          23.5369   70.8862   -3.2468 O.3     1  UNL1       -0.4371
     27 O          21.0019   71.2516   -3.8105 O.2     1  UNL1       -0.5170
     28 O          22.3174   72.9095   -2.2669 O.3     1  UNL1       -0.2858
     29 O          21.3521   71.5889   -0.5570 O.3     1  UNL1       -0.3226
     30 O          22.5181   74.9927    1.5248 O.3     1  UNL1       -0.3794
     31 O          21.3166   75.2146   -1.1234 O.3     1  UNL1       -0.3775
     32 O          21.5353   72.4910    2.1616 O.3     1  UNL1       -0.3792
     33 C          22.5636   73.9605    0.5436 C.3     1  UNL1        0.1718
     34 C          21.3208   74.0186   -0.3512 C.3     1  UNL1        0.1968
     35 C          22.6354   72.6056    1.2531 C.3     1  UNL1        0.1723
     36 C          21.2755   72.8120   -1.2969 C.3     1  UNL1        0.2706
     37 C          22.5415   71.4816    0.2235 C.3     1  UNL1        0.1830
     38 H          23.3208   74.9163    2.0684 H       1  UNL1        0.2105
     39 H          20.5190   75.2023   -1.6790 H       1  UNL1        0.2106
     40 H          20.7244   72.3396    1.6473 H       1  UNL1        0.2106
     41 O          23.3692   70.0634    1.8992 O.co2   1  UNL1       -0.5466
     42 O          21.7245   69.2340    0.5560 O.co2   1  UNL1       -0.5466
     43 C          22.4773   70.1403    0.8821 C.2     1  UNL1        0.0799
@<TRIPOS>UNITY_ATOM_ATTR
41 1
charge -1
@<TRIPOS>BOND
     1     1     4    1
     2     1    24    1
     3     1     2    1
     4     1     3    2
     5    25    28    1
     6    25    24    1
     7    25    26    1
     8    25    27    2
     9     6    11    1
    10     6    12    1
    11    29    36    1
    12    29    37    1
    13     7     9    1
    14     7    13    1
    15     8    10    1
    16     8    14    1
    17     4     5    1
    18    28    36    1
    19    30    33    1
    20    30    38    1
    21    31    34    1
    22    31    39    1
    23    32    35    1
    24    32    40    1
    25    41    43   ar
    26    15    19    2
    27    42    43   ar
    28    16    22    2
    29    17    12    1
    30    17    19   ar
    31    17    20   ar
    32    18    19   ar
    33    18    22   ar
    34    18    23    1
    35     9    10    1
    36     9    11    1
    37    10    12    1
    38    11     5    1
    39    33    34    1
    40    33    35    1
    41    34    36    1
    42    35    37    1
    43    37    43    1
    44    20    21   ar
    45    21    22   ar
@<TRIPOS>MOLECULE
UDP-glaA
 43 45 0 0 0
SMALL
GASTEIGER

@<TRIPOS>ATOM
      1 P          19.8130   74.6497   -3.9659 P.3     1  UNL1        0.2189
      2 O          20.0054   75.2948   -2.4948 O.3     1  UNL1       -0.4371
      3 O          18.9651   75.4566   -4.9050 O.2     1  UNL1       -0.5170
      4 O          19.2962   73.1465   -3.6677 O.3     1  UNL1       -0.3112
      5 C          19.5933   72.5651   -2.4096 C.3     1  UNL1        0.1811
      6 O          21.9484   72.2518   -2.0495 O.3     1  UNL1       -0.3308
      7 O          21.4187   69.3190   -2.3801 O.3     1  UNL1       -0.3794
      8 O          21.5933   69.5910    0.3275 O.3     1  UNL1       -0.3779
      9 C          20.6047   70.3207   -1.7704 C.3     1  UNL1        0.1713
     10 C          21.1745   70.7120   -0.4232 C.3     1  UNL1        0.1895
     11 C          20.7650   71.6069   -2.5700 C.3     1  UNL1        0.1764
     12 C          22.3306   71.6145   -0.8194 C.3     1  UNL1        0.2383
     13 H          21.0381   69.1289   -3.2545 H       1  UNL1        0.2105
     14 H          20.8206   69.0119    0.4446 H       1  UNL1        0.2106
     15 O          21.3300   71.5758    1.8212 O.2     1  UNL1       -0.2464
     16 O          23.4323   75.5404    2.8706 O.2     1  UNL1       -0.2670
     17 N          22.6009   72.6231    0.1649 N.ar    1  UNL1       -0.2551
     18 N          22.3771   73.5503    2.3418 N.ar    1  UNL1       -0.2743
     19 C          22.0490   72.5101    1.4624 C.ar    1  UNL1        0.3323
     20 C          23.4052   73.7101   -0.1593 C.ar    1  UNL1        0.0869
     21 C          23.7091   74.6935    0.6906 C.ar    1  UNL1        0.0795
     22 C          23.1722   74.6517    2.0653 C.ar    1  UNL1        0.2626
     23 H          21.9908   73.4903    3.2801 H       1  UNL1        0.1734
     24 O          21.3347   74.4187   -4.4621 O.3     1  UNL1       -0.2703
     25 P          21.9201   73.8406   -5.8534 P.3     1  UNL1        0.2208
     26 O          22.7163   72.5090   -5.3962 O.3     1  UNL1       -0.4371
     27 O          22.7498   74.8237   -6.6284 O.2     1  UNL1       -0.5170
     28 O          20.6256   73.2909   -6.6447 O.3     1  UNL1       -0.2858
     29 O          19.6473   71.1397   -6.5242 O.3     1  UNL1       -0.3226
     30 O          18.7180   72.3029  -10.4053 O.3     1  UNL1       -0.3794
     31 O          21.3463   72.8728   -9.2769 O.3     1  UNL1       -0.3775
     32 O          18.0418   70.2219   -8.7194 O.3     1  UNL1       -0.3792
     33 C          18.9712   72.4326   -9.0091 C.3     1  UNL1        0.1718
     34 C          20.4013   71.9898   -8.6818 C.3     1  UNL1        0.1968
     35 C          17.9667   71.5690   -8.2413 C.3     1  UNL1        0.1723
     36 C          20.6278   71.9623   -7.1652 C.3     1  UNL1        0.2706
     37 C          18.3104   71.5822   -6.7534 C.3     1  UNL1        0.1830
     38 H          17.8033   72.5911  -10.5656 H       1  UNL1        0.2105
     39 H          22.2339   72.5588   -9.0351 H       1  UNL1        0.2106
     40 H          18.8610   69.8202   -8.3835 H       1  UNL1        0.2106
     41 O          17.9194   70.4609   -4.7301 O.co2   1  UNL1       -0.5466
     42 O          16.4160   70.1250   -6.4106 O.co2   1  UNL1       -0.5466
     43 C          17.4338   70.6484   -5.9809 C.2     1  UNL1        0.0799
@<TRIPOS>UNITY_ATOM_ATTR
41 1
charge -1
@<TRIPOS>BOND
     1     1     4    1
     2     1    24    1
     3     1     2    1
     4     1     3    2
     5    25    28    1
     6    25    24    1
     7    25    26    1
     8    25    27    2
     9     6    11    1
    10     6    12    1
    11    29    36    1
    12    29    37    1
    13     7     9    1
    14     7    13    1
    15     8    10    1
    16     8    14    1
    17     4     5    1
    18    28    36    1
    19    30    33    1
    20    30    38    1
    21    31    34    1
    22    31    39    1
    23    32    35    1
    24    32    40    1
    25    41    43   ar
    26    15    19    2
    27    42    43   ar
    28    16    22    2
    29    17    12    1
    30    17    19   ar
    31    17    20   ar
    32    18    19   ar
    33    18    22   ar
    34    18    23    1
    35     9    10    1
    36     9    11    1
    37    10    12    1
    38    11     5    1
    39    33    34    1
    40    33    35    1
    41    34    36    1
    42    35    37    1
    43    37    43    1
    44    20    21   ar
    45    21    22   ar
@<TRIPOS>MOLECULE
UDP-glaA
 43 45 0 0 0
SMALL
GASTEIGER

@<TRIPOS>ATOM
      1 P          19.0201   70.4436   -3.3075 P.3     1  UNL1        0.2189
      2 O          18.6265   69.1688   -2.3925 O.3     1  UNL1       -0.4371
      3 O          18.6141   71.7750   -2.7464 O.2     1  UNL1       -0.5170
      4 O          18.4156   70.0803   -4.7629 O.3     1  UNL1       -0.3112
      5 C          19.0188   70.6551   -5.9097 C.3     1  UNL1        0.1811
      6 O          18.6341   72.9015   -6.6713 O.3     1  UNL1       -0.3308
      7 O          16.4055   71.7610   -8.3217 O.3     1  UNL1       -0.3794
      8 O          18.4061   72.0629  -10.1499 O.3     1  UNL1       -0.3779
      9 C          17.6747   71.1917   -8.0012 C.3     1  UNL1        0.1713
     10 C          18.7699   71.8674   -8.7989 C.3     1  UNL1        0.1895
     11 C          18.0239   71.5955   -6.5748 C.3     1  UNL1        0.1764
     12 C          18.9472   73.1755   -8.0468 C.3     1  UNL1        0.2383
     13 H          15.7422   71.3252   -7.7599 H       1  UNL1        0.2105
     14 H          18.2046   71.1896  -10.5280 H       1  UNL1        0.2106
     15 O          21.2602   71.5551   -8.0504 O.2     1  UNL1       -0.2464
     16 O          24.0450   75.2135   -8.3655 O.2     1  UNL1       -0.2670
     17 N          20.2889   73.6778   -8.1294 N.ar    1  UNL1       -0.2551
     18 N          22.6454   73.3779   -8.2068 N.ar    1  UNL1       -0.2743
     19 C          21.3814   72.7793   -8.1228 C.ar    1  UNL1        0.3323
     20 C          20.5122   75.0475   -8.2156 C.ar    1  UNL1        0.0869
     21 C          21.7235   75.6027   -8.2956 C.ar    1  UNL1        0.0795
     22 C          22.9175   74.7344   -8.2938 C.ar    1  UNL1        0.2626
     23 H          23.4456   72.7512   -8.2031 H       1  UNL1        0.1734
     24 O          20.6127   70.2595   -3.5195 O.3     1  UNL1       -0.2703
     25 P          21.8616   71.1372   -2.9879 P.3     1  UNL1        0.2208
     26 O          21.5776   72.6023   -3.6115 O.3     1  UNL1       -0.4371
     27 O          23.2071   70.5664   -3.3336 O.2     1  UNL1       -0.5170
     28 O          21.5968   71.3085   -1.4054 O.3     1  UNL1       -0.2858
     29 O          23.2346   72.7660   -0.5150 O.3     1  UNL1       -0.3226
     30 O          21.0553   71.7325    2.8706 O.3     1  UNL1       -0.3794
     31 O          21.7012   69.7262    0.8548 O.3     1  UNL1       -0.3775
     32 O          23.0542   73.5333    2.2450 O.3     1  UNL1       -0.3792
     33 C          21.3104   72.0359    1.5020 C.3     1  UNL1        0.1718
     34 C          22.2904   71.0213    0.9032 C.3     1  UNL1        0.1968
     35 C          21.8958   73.4477    1.4085 C.3     1  UNL1        0.1723
     36 C          22.7038   71.4366   -0.5142 C.3     1  UNL1        0.2706
     37 C          22.3080   73.7380   -0.0330 C.3     1  UNL1        0.1830
     38 H          20.4339   72.3999    3.2082 H       1  UNL1        0.2105
     39 H          22.3529   69.1219    0.4611 H       1  UNL1        0.2106
     40 H          23.7807   73.0493    1.8170 H       1  UNL1        0.2106
     41 O          24.3392   74.9102    0.0275 O.co2   1  UNL1       -0.5466
     42 O          22.4516   76.1241   -0.3728 O.co2   1  UNL1       -0.5466
     43 C          23.0038   75.0569   -0.1481 C.2     1  UNL1        0.0799
@<TRIPOS>UNITY_ATOM_ATTR
41 1
charge -1
@<TRIPOS>BOND
     1     1     4    1
     2     1    24    1
     3     1     2    1
     4     1     3    2
     5    25    28    1
     6    25    24    1
     7    25    26    1
     8    25    27    2
     9     6    11    1
    10     6    12    1
    11    29    36    1
    12    29    37    1
    13     7     9    1
    14     7    13    1
    15     8    10    1
    16     8    14    1
    17     4     5    1
    18    28    36    1
    19    30    33    1
    20    30    38    1
    21    31    34    1
    22    31    39    1
    23    32    35    1
    24    32    40    1
    25    41    43   ar
    26    15    19    2
    27    42    43   ar
    28    16    22    2
    29    17    12    1
    30    17    19   ar
    31    17    20   ar
    32    18    19   ar
    33    18    22   ar
    34    18    23    1
    35     9    10    1
    36     9    11    1
    37    10    12    1
    38    11     5    1
    39    33    34    1
    40    33    35    1
    41    34    36    1
    42    35    37    1
    43    37    43    1
    44    20    21   ar
    45    21    22   ar
@<TRIPOS>MOLECULE
UDP-glaA
 43 45 0 0 0
SMALL
GASTEIGER

@<TRIPOS>ATOM
      1 P          22.0207   70.7603   -2.6348 P.3     1  UNL1        0.2189
      2 O          21.1570   69.4192   -2.9044 O.3     1  UNL1       -0.4371
      3 O          23.3940   70.7611   -3.2400 O.2     1  UNL1       -0.5170
      4 O          21.9600   70.9468   -1.0295 O.3     1  UNL1       -0.3112
      5 C          21.1411   71.9742   -0.4974 C.3     1  UNL1        0.1811
      6 O          23.2086   72.8249    0.3835 O.3     1  UNL1       -0.3308
      7 O          21.5492   74.1212    2.5183 O.3     1  UNL1       -0.3794
      8 O          22.0521   76.1911    0.8159 O.3     1  UNL1       -0.3779
      9 C          21.2476   73.9195    1.1377 C.3     1  UNL1        0.1713
     10 C          22.0403   74.8838    0.2807 C.3     1  UNL1        0.1895
     11 C          21.8268   72.5736    0.7221 C.3     1  UNL1        0.1764
     12 C          23.4176   74.2426    0.2753 C.3     1  UNL1        0.2383
     13 H          21.0497   73.4575    3.0240 H       1  UNL1        0.2105
     14 H          21.1280   76.4864    0.8875 H       1  UNL1        0.2106
     15 O          25.9329   75.5235    0.1856 O.2     1  UNL1       -0.2464
     16 O          26.1155   75.2444   -4.4109 O.2     1  UNL1       -0.2670
     17 N          24.1452   74.5168   -0.9308 N.ar    1  UNL1       -0.2551
     18 N          26.0219   75.3842   -2.1032 N.ar    1  UNL1       -0.2743
     19 C          25.4003   75.1659   -0.8666 C.ar    1  UNL1        0.3323
     20 C          23.6143   74.1438   -2.1606 C.ar    1  UNL1        0.0869
     21 C          24.2195   74.3585   -3.3308 C.ar    1  UNL1        0.0795
     22 C          25.5332   75.0317   -3.3517 C.ar    1  UNL1        0.2626
     23 H          26.9251   75.8499   -2.0814 H       1  UNL1        0.1734
     24 O          21.0465   71.9332   -3.1738 O.3     1  UNL1       -0.2703
     25 P          19.4390   71.9863   -3.3337 P.3     1  UNL1        0.2208
     26 O          19.0944   73.5494   -3.1011 O.3     1  UNL1       -0.4371
     27 O          18.6983   71.0464   -2.4260 O.2     1  UNL1       -0.5170
     28 O          19.1761   71.7397   -4.9066 O.3     1  UNL1       -0.2858
     29 O          18.3792   72.8220   -6.8542 O.3     1  UNL1       -0.3226
     30 O          16.0071   69.4110   -6.7208 O.3     1  UNL1       -0.3794
     31 O          16.6286   70.8799   -4.2791 O.3     1  UNL1       -0.3775
     32 O          16.4646   71.4666   -8.5083 O.3     1  UNL1       -0.3792
     33 C          17.1646   70.2258   -6.5576 C.3     1  UNL1        0.1718
     34 C          16.8749   71.3781   -5.5898 C.3     1  UNL1        0.1968
     35 C          17.5766   70.7803   -7.9240 C.3     1  UNL1        0.1723
     36 C          18.0556   72.3557   -5.5401 C.3     1  UNL1        0.2706
     37 C          18.7280   71.7685   -7.7509 C.3     1  UNL1        0.1830
     38 H          16.2354   68.6981   -7.3415 H       1  UNL1        0.2105
     39 H          16.4603   71.6435   -3.7017 H       1  UNL1        0.2106
     40 H          16.3436   72.3113   -8.0424 H       1  UNL1        0.2106
     41 O          19.0375   71.5436  -10.0655 O.co2   1  UNL1       -0.5466
     42 O          19.3596   73.6158   -9.1715 O.co2   1  UNL1       -0.5466
     43 C          19.0780   72.4330   -9.0443 C.2     1  UNL1        0.0799
@<TRIPOS>UNITY_ATOM_ATTR
41 1
charge -1
@<TRIPOS>BOND
     1     1     4    1
     2     1    24    1
     3     1     2    1
     4     1     3    2
     5    25    28    1
     6    25    24    1
     7    25    26    1
     8    25    27    2
     9     6    11    1
    10     6    12    1
    11    29    36    1
    12    29    37    1
    13     7     9    1
    14     7    13    1
    15     8    10    1
    16     8    14    1
    17     4     5    1
    18    28    36    1
    19    30    33    1
    20    30    38    1
    21    31    34    1
    22    31    39    1
    23    32    35    1
    24    32    40    1
    25    41    43   ar
    26    15    19    2
    27    42    43   ar
    28    16    22    2
    29    17    12    1
    30    17    19   ar
    31    17    20   ar
    32    18    19   ar
    33    18    22   ar
    34    18    23    1
    35     9    10    1
    36     9    11    1
    37    10    12    1
    38    11     5    1
    39    33    34    1
    40    33    35    1
    41    34    36    1
    42    35    37    1
    43    37    43    1
    44    20    21   ar
    45    21    22   ar
@<TRIPOS>MOLECULE
UDP-glaA
 43 45 0 0 0
SMALL
GASTEIGER

@<TRIPOS>ATOM
      1 P          22.7421   73.3969   -4.5257 P.3     1  UNL1        0.2189
      2 O          22.0214   74.8408   -4.6408 O.3     1  UNL1       -0.4371
      3 O          24.1495   73.4317   -4.0060 O.2     1  UNL1       -0.5170
      4 O          22.5511   72.7477   -5.9946 O.3     1  UNL1       -0.3112
      5 C          21.3583   73.0258   -6.7082 C.3     1  UNL1        0.1811
      6 O          19.3047   71.7841   -6.5847 O.3     1  UNL1       -0.3308
      7 O          20.4424   70.0478   -8.7486 O.3     1  UNL1       -0.3794
      8 O          18.7418   71.6761  -10.1241 O.3     1  UNL1       -0.3779
      9 C          20.5830   71.4547   -8.5520 C.3     1  UNL1        0.1713
     10 C          19.2998   72.1676   -8.9230 C.3     1  UNL1        0.1895
     11 C          20.6694   71.7132   -7.0535 C.3     1  UNL1        0.1764
     12 C          18.4226   71.8884   -7.7145 C.3     1  UNL1        0.2383
     13 H          21.2726   69.6307   -8.4617 H       1  UNL1        0.2105
     14 H          19.4062   71.7931  -10.8249 H       1  UNL1        0.2106
     15 O          15.9960   71.5515   -6.3096 O.2     1  UNL1       -0.2464
     16 O          14.8592   75.9856   -6.8439 O.2     1  UNL1       -0.2670
     17 N          17.4741   72.9375   -7.4713 N.ar    1  UNL1       -0.2551
     18 N          15.4313   73.7596   -6.5771 N.ar    1  UNL1       -0.2743
     19 C          16.2852   72.6633   -6.7558 C.ar    1  UNL1        0.3323
     20 C          17.7261   74.2221   -7.9402 C.ar    1  UNL1        0.0869
     21 C          16.9022   75.2569   -7.7612 C.ar    1  UNL1        0.0795
     22 C          15.6385   75.0551   -7.0250 C.ar    1  UNL1        0.2626
     23 H          14.5701   73.5857   -6.0659 H       1  UNL1        0.1734
     24 O          21.7091   72.5478   -3.6162 O.3     1  UNL1       -0.2703
     25 P          21.7701   71.0221   -3.0862 P.3     1  UNL1        0.2208
     26 O          23.3292   70.6297   -3.2635 O.3     1  UNL1       -0.4371
     27 O          20.8143   70.0915   -3.7763 O.2     1  UNL1       -0.5170
     28 O          21.5561   71.1346   -1.4907 O.3     1  UNL1       -0.2858
     29 O          23.1523   72.7019   -0.7191 O.3     1  UNL1       -0.3226
     30 O          21.1206   71.7352    2.7762 O.3     1  UNL1       -0.3794
     31 O          21.7968   69.6663    0.8350 O.3     1  UNL1       -0.3775
     32 O          23.0180   73.5895    2.0071 O.3     1  UNL1       -0.3792
     33 C          21.3220   71.9848    1.3878 C.3     1  UNL1        0.1718
     34 C          22.3286   70.9865    0.8059 C.3     1  UNL1        0.1968
     35 C          21.8408   73.4146    1.2119 C.3     1  UNL1        0.1723
     36 C          22.6817   71.3522   -0.6411 C.3     1  UNL1        0.2706
     37 C          22.1976   73.6544   -0.2535 C.3     1  UNL1        0.1830
     38 H          20.4800   72.3902    3.1021 H       1  UNL1        0.2105
     39 H          22.4632   69.0730    0.4493 H       1  UNL1        0.2106
     40 H          23.7526   73.1179    1.5794 H       1  UNL1        0.2106
     41 O          23.8095   75.2010    0.4630 O.co2   1  UNL1       -0.5466
     42 O          22.5150   75.7994   -1.3156 O.co2   1  UNL1       -0.5466
     43 C          22.8301   74.9953   -0.4503 C.2     1  UNL1        0.0799
@<TRIPOS>UNITY_ATOM_ATTR
41 1
charge -1
@<TRIPOS>BOND
     1     1     4    1
     2     1    24    1
     3     1     2    1
     4     1     3    2
     5    25    28    1
     6    25    24    1
     7    25    26    1
     8    25    27    2
     9     6    11    1
    10     6    12    1
    11    29    36    1
    12    29    37    1
    13     7     9    1
    14     7    13    1
    15     8    10    1
    16     8    14    1
    17     4     5    1
    18    28    36    1
    19    30    33    1
    20    30    38    1
    21    31    34    1
    22    31    39    1
    23    32    35    1
    24    32    40    1
    25    41    43   ar
    26    15    19    2
    27    42    43   ar
    28    16    22    2
    29    17    12    1
    30    17    19   ar
    31    17    20   ar
    32    18    19   ar
    33    18    22   ar
    34    18    23    1
    35     9    10    1
    36     9    11    1
    37    10    12    1
    38    11     5    1
    39    33    34    1
    40    33    35    1
    41    34    36    1
    42    35    37    1
    43    37    43    1
    44    20    21   ar
    45    21    22   ar
