@<TRIPOS>MOLECULE
UDP-glaA
 43 45 0 0 0
SMALL
GASTEIGER

@<TRIPOS>ATOM
      1 P          21.4045   72.0325   -4.6437 P.3     1  UNL1        0.2189
      2 O          20.4700   73.3385   -4.4478 O.3     1  UNL1       -0.4371
      3 O          22.4439   72.1535   -5.7194 O.2     1  UNL1       -0.5170
      4 O          20.3484   70.8204   -4.8197 O.3     1  UNL1       -0.3112
      5 C          19.7002   70.3137   -3.6655 C.3     1  UNL1        0.1811
      6 O          17.9938   71.4478   -4.9210 O.3     1  UNL1       -0.3308
      7 O          16.0268   70.1325   -3.0793 O.3     1  UNL1       -0.3794
      8 O          15.8784   68.5800   -5.3161 O.3     1  UNL1       -0.3779
      9 C          17.2530   69.6234   -3.6037 C.3     1  UNL1        0.1713
     10 C          17.0895   69.2624   -5.0650 C.3     1  UNL1        0.1895
     11 C          18.2493   70.7736   -3.6691 C.3     1  UNL1        0.1764
     12 C          17.1416   70.6251   -5.7347 C.3     1  UNL1        0.2383
     13 H          16.1901   70.3860   -2.1548 H       1  UNL1        0.2105
     14 H          15.8766   67.7758   -4.7688 H       1  UNL1        0.2106
     15 O          15.5854   70.4175   -8.0821 O.2     1  UNL1       -0.2464
     16 O          19.3236   70.3921  -10.7772 O.2     1  UNL1       -0.2670
     17 N          17.6818   70.5630   -7.0627 N.ar    1  UNL1       -0.2551
     18 N          17.4479   70.4045   -9.4226 N.ar    1  UNL1       -0.2743
     19 C          16.8136   70.4587   -8.1745 C.ar    1  UNL1        0.3323
     20 C          19.0585   70.6053   -7.2537 C.ar    1  UNL1        0.0869
     21 C          19.6479   70.5531   -8.4502 C.ar    1  UNL1        0.0795
     22 C          18.8127   70.4428   -9.6626 C.ar    1  UNL1        0.2626
     23 H          16.8434   70.3287  -10.2362 H       1  UNL1        0.1734
     24 O          21.9970   71.7851   -3.1594 O.3     1  UNL1       -0.2703
     25 P          23.5084   71.8723   -2.5931 P.3     1  UNL1        0.2208
     26 O          24.0344   73.2943   -3.1565 O.3     1  UNL1       -0.4371
     27 O          24.3730   70.7010   -2.9621 O.2     1  UNL1       -0.5170
     28 O          23.3373   72.1004   -1.0048 O.3     1  UNL1       -0.2858
     29 O          24.5101   71.0123    0.7388 O.3     1  UNL1       -0.3226
     30 O          20.8886   71.9265    2.5632 O.3     1  UNL1       -0.3794
     31 O          20.9596   70.9598   -0.1875 O.3     1  UNL1       -0.3775
     32 O          23.3418   70.9378    3.3595 O.3     1  UNL1       -0.3792
     33 C          22.0102   72.0776    1.6975 C.3     1  UNL1        0.1718
     34 C          22.0738   70.9180    0.6977 C.3     1  UNL1        0.1968
     35 C          23.2868   72.1116    2.5422 C.3     1  UNL1        0.1723
     36 C          23.3679   70.9788   -0.1232 C.3     1  UNL1        0.2706
     37 C          24.5083   72.1299    1.6258 C.3     1  UNL1        0.1830
     38 H          20.8896   72.6792    3.1788 H       1  UNL1        0.2105
     39 H          21.0478   70.2149   -0.8057 H       1  UNL1        0.2106
     40 H          23.5649   70.1784    2.7949 H       1  UNL1        0.2106
     41 O          25.8874   73.0658    3.2768 O.co2   1  UNL1       -0.5466
     42 O          26.6115   71.1448    2.2857 O.co2   1  UNL1       -0.5466
     43 C          25.7800   72.0326    2.4069 C.2     1  UNL1        0.0799
@<TRIPOS>UNITY_ATOM_ATTR
41 1
charge -1
@<TRIPOS>BOND
     1     1     4    1
     2     1    24    1
     3     1     2    1
     4     1     3    2
     5    25    28    1
     6    25    24    1
     7    25    26    1
     8    25    27    2
     9     6    11    1
    10     6    12    1
    11    29    36    1
    12    29    37    1
    13     7     9    1
    14     7    13    1
    15     8    10    1
    16     8    14    1
    17     4     5    1
    18    28    36    1
    19    30    33    1
    20    30    38    1
    21    31    34    1
    22    31    39    1
    23    32    35    1
    24    32    40    1
    25    41    43   ar
    26    15    19    2
    27    42    43   ar
    28    16    22    2
    29    17    12    1
    30    17    19   ar
    31    17    20   ar
    32    18    19   ar
    33    18    22   ar
    34    18    23    1
    35     9    10    1
    36     9    11    1
    37    10    12    1
    38    11     5    1
    39    33    34    1
    40    33    35    1
    41    34    36    1
    42    35    37    1
    43    37    43    1
    44    20    21   ar
    45    21    22   ar
@<TRIPOS>MOLECULE
UDP-glaA
 43 45 0 0 0
SMALL
GASTEIGER

@<TRIPOS>ATOM
      1 P          22.1957   73.1518   -4.8089 P.3     1  UNL1        0.2189
      2 O          22.2057   74.7689   -4.8567 O.3     1  UNL1       -0.4371
      3 O          23.1621   72.4850   -5.7435 O.2     1  UNL1       -0.5170
      4 O          20.6388   72.7654   -5.0144 O.3     1  UNL1       -0.3112
      5 C          19.6539   73.7405   -4.7169 C.3     1  UNL1        0.1811
      6 O          17.6626   72.6856   -5.5515 O.3     1  UNL1       -0.3308
      7 O          17.4041   71.4472   -2.8329 O.3     1  UNL1       -0.3794
      8 O          18.4505   69.4128   -4.3169 O.3     1  UNL1       -0.3779
      9 C          18.5818   71.7287   -3.5888 C.3     1  UNL1        0.1713
     10 C          18.7269   70.7370   -4.7238 C.3     1  UNL1        0.1895
     11 C          18.3590   73.0373   -4.3355 C.3     1  UNL1        0.1764
     12 C          17.7182   71.2609   -5.7318 C.3     1  UNL1        0.2383
     13 H          17.3322   72.1292   -2.1436 H       1  UNL1        0.2105
     14 H          19.0670   69.1930   -3.5974 H       1  UNL1        0.2106
     15 O          15.9424   70.3444   -7.7273 O.2     1  UNL1       -0.2464
     16 O          19.2872   70.1978  -10.8942 O.2     1  UNL1       -0.2670
     17 N          18.0977   70.9758   -7.0860 N.ar    1  UNL1       -0.2551
     18 N          17.6093   70.2715   -9.3028 N.ar    1  UNL1       -0.2743
     19 C          17.1290   70.5193   -8.0101 C.ar    1  UNL1        0.3323
     20 C          19.4179   71.1489   -7.4869 C.ar    1  UNL1        0.0869
     21 C          19.8600   70.9087   -8.7233 C.ar    1  UNL1        0.0795
     22 C          18.9125   70.4284   -9.7486 C.ar    1  UNL1        0.2626
     23 H          16.9305   69.9419   -9.9838 H       1  UNL1        0.1734
     24 O          22.4450   72.8341   -3.2430 O.3     1  UNL1       -0.2703
     25 P          22.7250   71.4393   -2.4756 P.3     1  UNL1        0.2208
     26 O          24.1825   71.0007   -3.0230 O.3     1  UNL1       -0.4371
     27 O          21.6534   70.4047   -2.6677 O.2     1  UNL1       -0.5170
     28 O          22.9761   71.8616   -0.9385 O.3     1  UNL1       -0.2858
     29 O          24.3139   71.0234    0.8243 O.3     1  UNL1       -0.3226
     30 O          20.7888   72.0045    2.7967 O.3     1  UNL1       -0.3794
     31 O          20.7140   70.7341    0.1725 O.3     1  UNL1       -0.3775
     32 O          23.3330   71.2046    3.5157 O.3     1  UNL1       -0.3792
     33 C          21.8403   72.0975    1.8396 C.3     1  UNL1        0.1718
     34 C          21.8872   70.8347    0.9728 C.3     1  UNL1        0.1968
     35 C          23.1691   72.2748    2.5794 C.3     1  UNL1        0.1723
     36 C          23.1178   70.8495    0.0575 C.3     1  UNL1        0.2706
     37 C          24.3226   72.2339    1.5795 C.3     1  UNL1        0.1830
     38 H          20.7982   72.8220    3.3232 H       1  UNL1        0.2105
     39 H          20.7931   69.9274   -0.3640 H       1  UNL1        0.2106
     40 H          23.5508   70.3947    3.0240 H       1  UNL1        0.2106
     41 O          26.1852   71.0320    2.3474 O.co2   1  UNL1       -0.5466
     42 O          26.1817   73.2830    2.7076 O.co2   1  UNL1       -0.5466
     43 C          25.6481   72.2735    2.2712 C.2     1  UNL1        0.0799
@<TRIPOS>UNITY_ATOM_ATTR
41 1
charge -1
@<TRIPOS>BOND
     1     1     4    1
     2     1    24    1
     3     1     2    1
     4     1     3    2
     5    25    28    1
     6    25    24    1
     7    25    26    1
     8    25    27    2
     9     6    11    1
    10     6    12    1
    11    29    36    1
    12    29    37    1
    13     7     9    1
    14     7    13    1
    15     8    10    1
    16     8    14    1
    17     4     5    1
    18    28    36    1
    19    30    33    1
    20    30    38    1
    21    31    34    1
    22    31    39    1
    23    32    35    1
    24    32    40    1
    25    41    43   ar
    26    15    19    2
    27    42    43   ar
    28    16    22    2
    29    17    12    1
    30    17    19   ar
    31    17    20   ar
    32    18    19   ar
    33    18    22   ar
    34    18    23    1
    35     9    10    1
    36     9    11    1
    37    10    12    1
    38    11     5    1
    39    33    34    1
    40    33    35    1
    41    34    36    1
    42    35    37    1
    43    37    43    1
    44    20    21   ar
    45    21    22   ar
@<TRIPOS>MOLECULE
UDP-glaA
 43 45 0 0 0
SMALL
GASTEIGER

@<TRIPOS>ATOM
      1 P          22.3070   71.5235   -2.3608 P.3     1  UNL1        0.2189
      2 O          21.7894   73.0414   -2.5744 O.3     1  UNL1       -0.4371
      3 O          23.4397   71.1095   -3.2539 O.2     1  UNL1       -0.5170
      4 O          20.9614   70.6335   -2.4737 O.3     1  UNL1       -0.3112
      5 C          20.3307   70.5162   -3.7377 C.3     1  UNL1        0.1811
      6 O          18.5073   71.6124   -4.8549 O.3     1  UNL1       -0.3308
      7 O          16.7312   70.3471   -2.7968 O.3     1  UNL1       -0.3794
      8 O          16.3751   68.7319   -4.9647 O.3     1  UNL1       -0.3779
      9 C          17.9035   69.8249   -3.4220 C.3     1  UNL1        0.1713
     10 C          17.6020   69.4226   -4.8503 C.3     1  UNL1        0.1895
     11 C          18.8843   70.9740   -3.6149 C.3     1  UNL1        0.1764
     12 C          17.5843   70.7659   -5.5597 C.3     1  UNL1        0.2383
     13 H          16.9814   70.6268   -1.8997 H       1  UNL1        0.2105
     14 H          16.4290   67.9435   -4.3975 H       1  UNL1        0.2106
     15 O          15.8360   70.2416   -7.7147 O.2     1  UNL1       -0.2464
     16 O          19.2724   70.4064  -10.7811 O.2     1  UNL1       -0.2670
     17 N          17.9948   70.6670   -6.9311 N.ar    1  UNL1       -0.2551
     18 N          17.5484   70.3235   -9.2402 N.ar    1  UNL1       -0.2743
     19 C          17.0377   70.3996   -7.9377 C.ar    1  UNL1        0.3323
     20 C          19.3336   70.8343   -7.2677 C.ar    1  UNL1        0.0869
     21 C          19.8047   70.7593   -8.5144 C.ar    1  UNL1        0.0795
     22 C          18.8710   70.4823   -9.6239 C.ar    1  UNL1        0.2626
     23 H          16.8784   70.1315   -9.9800 H       1  UNL1        0.1734
     24 O          22.6432   71.4744   -0.7798 O.3     1  UNL1       -0.2703
     25 P          21.6762   71.5552    0.5129 P.3     1  UNL1        0.2208
     26 O          21.5607   70.0131    0.9868 O.3     1  UNL1       -0.4371
     27 O          20.3569   72.2248    0.2543 O.2     1  UNL1       -0.5170
     28 O          22.5730   72.2661    1.6506 O.3     1  UNL1       -0.2858
     29 O          22.1168   74.0638    3.1201 O.3     1  UNL1       -0.3226
     30 O          26.1530   74.6169    2.2940 O.3     1  UNL1       -0.3794
     31 O          24.3010   73.8387    0.1797 O.3     1  UNL1       -0.3775
     32 O          24.2937   75.7010    4.0254 O.3     1  UNL1       -0.3792
     33 C          24.9325   73.9188    2.5251 C.3     1  UNL1        0.1718
     34 C          23.8923   74.2954    1.4647 C.3     1  UNL1        0.1968
     35 C          24.4128   74.2785    3.9198 C.3     1  UNL1        0.1723
     36 C          22.5267   73.6842    1.8023 C.3     1  UNL1        0.2706
     37 C          23.0358   73.6530    4.1313 C.3     1  UNL1        0.1830
     38 H          26.7794   74.3504    2.9883 H       1  UNL1        0.2105
     39 H          23.6092   74.0908   -0.4549 H       1  UNL1        0.2106
     40 H          23.5215   75.9856    3.5078 H       1  UNL1        0.2106
     41 O          22.6737   73.1673    6.3977 O.co2   1  UNL1       -0.5466
     42 O          21.8091   75.1216    5.6039 O.co2   1  UNL1       -0.5466
     43 C          22.4325   74.0844    5.4301 C.2     1  UNL1        0.0799
@<TRIPOS>UNITY_ATOM_ATTR
41 1
charge -1
@<TRIPOS>BOND
     1     1     4    1
     2     1    24    1
     3     1     2    1
     4     1     3    2
     5    25    28    1
     6    25    24    1
     7    25    26    1
     8    25    27    2
     9     6    11    1
    10     6    12    1
    11    29    36    1
    12    29    37    1
    13     7     9    1
    14     7    13    1
    15     8    10    1
    16     8    14    1
    17     4     5    1
    18    28    36    1
    19    30    33    1
    20    30    38    1
    21    31    34    1
    22    31    39    1
    23    32    35    1
    24    32    40    1
    25    41    43   ar
    26    15    19    2
    27    42    43   ar
    28    16    22    2
    29    17    12    1
    30    17    19   ar
    31    17    20   ar
    32    18    19   ar
    33    18    22   ar
    34    18    23    1
    35     9    10    1
    36     9    11    1
    37    10    12    1
    38    11     5    1
    39    33    34    1
    40    33    35    1
    41    34    36    1
    42    35    37    1
    43    37    43    1
    44    20    21   ar
    45    21    22   ar
@<TRIPOS>MOLECULE
UDP-glaA
 43 45 0 0 0
SMALL
GASTEIGER

@<TRIPOS>ATOM
      1 P          22.8759   72.5616   -2.7501 P.3     1  UNL1        0.2189
      2 O          22.8212   74.1392   -3.1043 O.3     1  UNL1       -0.4371
      3 O          23.8328   71.7588   -3.5820 O.2     1  UNL1       -0.5170
      4 O          21.3287   72.0946   -2.8110 O.3     1  UNL1       -0.3112
      5 C          20.6632   72.1170   -4.0623 C.3     1  UNL1        0.1811
      6 O          18.5051   72.3673   -5.0892 O.3     1  UNL1       -0.3308
      7 O          17.3943   71.0344   -2.6436 O.3     1  UNL1       -0.3794
      8 O          17.4234   69.0061   -4.4661 O.3     1  UNL1       -0.3779
      9 C          18.6230   70.7880   -3.3273 C.3     1  UNL1        0.1713
     10 C          18.3639   70.0484   -4.6229 C.3     1  UNL1        0.1895
     11 C          19.1598   72.1237   -3.8246 C.3     1  UNL1        0.1764
     12 C          17.8579   71.1607   -5.5256 C.3     1  UNL1        0.2383
     13 H          17.6055   71.5427   -1.8421 H       1  UNL1        0.2105
     14 H          17.7725   68.3954   -3.7943 H       1  UNL1        0.2106
     15 O          15.9605   70.5090   -7.5132 O.2     1  UNL1       -0.2464
     16 O          19.1929   70.3082  -10.7919 O.2     1  UNL1       -0.2670
     17 N          18.1757   70.9333   -6.9064 N.ar    1  UNL1       -0.2551
     18 N          17.5715   70.4089   -9.1444 N.ar    1  UNL1       -0.2743
     19 C          17.1487   70.6107   -7.8240 C.ar    1  UNL1        0.3323
     20 C          19.4935   71.0305   -7.3395 C.ar    1  UNL1        0.0869
     21 C          19.8804   70.8357   -8.6021 C.ar    1  UNL1        0.0795
     22 C          18.8698   70.4941   -9.6227 C.ar    1  UNL1        0.2626
     23 H          16.8501   70.1753   -9.8214 H       1  UNL1        0.1734
     24 O          23.1943   72.5571   -1.1646 O.3     1  UNL1       -0.2703
     25 P          22.2568   72.2049    0.1041 P.3     1  UNL1        0.2208
     26 O          22.6544   70.6749    0.4461 O.3     1  UNL1       -0.4371
     27 O          20.7904   72.4262   -0.1333 O.2     1  UNL1       -0.5170
     28 O          22.8730   73.0685    1.3201 O.3     1  UNL1       -0.2858
     29 O          24.3909   73.0185    3.1347 O.3     1  UNL1       -0.3226
     30 O          20.7824   73.8128    5.0393 O.3     1  UNL1       -0.3794
     31 O          20.9131   71.8799    2.8592 O.3     1  UNL1       -0.3775
     32 O          23.4511   73.7421    5.7485 O.3     1  UNL1       -0.3792
     33 C          21.7721   73.8379    4.0145 C.3     1  UNL1        0.1718
     34 C          22.0577   72.4186    3.5124 C.3     1  UNL1        0.1968
     35 C          23.0521   74.4619    4.5774 C.3     1  UNL1        0.1723
     36 C          23.2395   72.4157    2.5348 C.3     1  UNL1        0.2706
     37 C          24.1681   74.3685    3.5392 C.3     1  UNL1        0.1830
     38 H          20.6358   74.7297    5.3280 H       1  UNL1        0.2105
     39 H          21.1439   70.9873    2.5513 H       1  UNL1        0.2106
     40 H          23.8193   72.8852    5.4739 H       1  UNL1        0.2106
     41 O          25.9327   75.9064    3.3821 O.co2   1  UNL1       -0.5466
     42 O          26.0475   74.3619    5.0549 O.co2   1  UNL1       -0.5466
     43 C          25.4719   74.8488    4.0926 C.2     1  UNL1        0.0799
@<TRIPOS>UNITY_ATOM_ATTR
41 1
charge -1
@<TRIPOS>BOND
     1     1     4    1
     2     1    24    1
     3     1     2    1
     4     1     3    2
     5    25    28    1
     6    25    24    1
     7    25    26    1
     8    25    27    2
     9     6    11    1
    10     6    12    1
    11    29    36    1
    12    29    37    1
    13     7     9    1
    14     7    13    1
    15     8    10    1
    16     8    14    1
    17     4     5    1
    18    28    36    1
    19    30    33    1
    20    30    38    1
    21    31    34    1
    22    31    39    1
    23    32    35    1
    24    32    40    1
    25    41    43   ar
    26    15    19    2
    27    42    43   ar
    28    16    22    2
    29    17    12    1
    30    17    19   ar
    31    17    20   ar
    32    18    19   ar
    33    18    22   ar
    34    18    23    1
    35     9    10    1
    36     9    11    1
    37    10    12    1
    38    11     5    1
    39    33    34    1
    40    33    35    1
    41    34    36    1
    42    35    37    1
    43    37    43    1
    44    20    21   ar
    45    21    22   ar
@<TRIPOS>MOLECULE
UDP-glaA
 43 45 0 0 0
SMALL
GASTEIGER

@<TRIPOS>ATOM
      1 P          22.4888   71.3850   -2.8646 P.3     1  UNL1        0.2189
      2 O          22.3913   72.9822   -2.6264 O.3     1  UNL1       -0.4371
      3 O          23.8681   70.8718   -3.1583 O.2     1  UNL1       -0.5170
      4 O          21.3733   71.0911   -3.9981 O.3     1  UNL1       -0.3112
      5 C          20.4042   70.0867   -3.7507 C.3     1  UNL1        0.1811
      6 O          18.7397   71.4666   -4.7992 O.3     1  UNL1       -0.3308
      7 O          16.8332   70.4053   -2.7425 O.3     1  UNL1       -0.3794
      8 O          16.2143   68.9258   -4.9478 O.3     1  UNL1       -0.3779
      9 C          17.9082   69.7405   -3.4058 C.3     1  UNL1        0.1713
     10 C          17.5294   69.4299   -4.8385 C.3     1  UNL1        0.1895
     11 C          19.0408   70.7428   -3.5857 C.3     1  UNL1        0.1764
     12 C          17.6935   70.7833   -5.5090 C.3     1  UNL1        0.2383
     13 H          17.1352   70.6185   -1.8431 H       1  UNL1        0.2105
     14 H          16.1635   68.1206   -4.4044 H       1  UNL1        0.2106
     15 O          15.8889   70.2003   -7.6015 O.2     1  UNL1       -0.2464
     16 O          19.2278   70.3678  -10.7736 O.2     1  UNL1       -0.2670
     17 N          18.0638   70.6692   -6.8908 N.ar    1  UNL1       -0.2551
     18 N          17.5528   70.2836   -9.1796 N.ar    1  UNL1       -0.2743
     19 C          17.0807   70.3723   -7.8635 C.ar    1  UNL1        0.3323
     20 C          19.3890   70.8508   -7.2705 C.ar    1  UNL1        0.0869
     21 C          19.8233   70.7634   -8.5297 C.ar    1  UNL1        0.0795
     22 C          18.8606   70.4557   -9.6059 C.ar    1  UNL1        0.2626
     23 H          16.8637   70.0704   -9.8957 H       1  UNL1        0.1734
     24 O          21.8150   70.7772   -1.5260 O.3     1  UNL1       -0.2703
     25 P          22.1301   71.0474    0.0362 P.3     1  UNL1        0.2208
     26 O          23.7398   71.2021    0.0687 O.3     1  UNL1       -0.4371
     27 O          21.5893   69.9976    0.9642 O.2     1  UNL1       -0.5170
     28 O          21.5711   72.5353    0.3147 O.3     1  UNL1       -0.2858
     29 O          21.3084   72.7084    2.6600 O.3     1  UNL1       -0.3226
     30 O          20.2073   76.5061    1.3776 O.3     1  UNL1       -0.3794
     31 O          19.3633   74.1396   -0.1033 O.3     1  UNL1       -0.3775
     32 O          20.6855   75.2679    3.8001 O.3     1  UNL1       -0.3792
     33 C          20.9098   75.2666    1.3949 C.3     1  UNL1        0.1718
     34 C          19.9376   74.0984    1.1988 C.3     1  UNL1        0.1968
     35 C          21.6334   75.1262    2.7370 C.3     1  UNL1        0.1723
     36 C          20.6559   72.7564    1.3869 C.3     1  UNL1        0.2706
     37 C          22.2751   73.7436    2.8319 C.3     1  UNL1        0.1830
     38 H          20.8600   77.2151    1.5074 H       1  UNL1        0.2105
     39 H          18.7644   73.3782   -0.1840 H       1  UNL1        0.2106
     40 H          20.1469   74.4597    3.8435 H       1  UNL1        0.2106
     41 O          22.6653   72.2421    4.5917 O.co2   1  UNL1       -0.5466
     42 O          23.4972   74.3519    4.8234 O.co2   1  UNL1       -0.5466
     43 C          22.8834   73.5139    4.1788 C.2     1  UNL1        0.0799
@<TRIPOS>UNITY_ATOM_ATTR
41 1
charge -1
@<TRIPOS>BOND
     1     1     4    1
     2     1    24    1
     3     1     2    1
     4     1     3    2
     5    25    28    1
     6    25    24    1
     7    25    26    1
     8    25    27    2
     9     6    11    1
    10     6    12    1
    11    29    36    1
    12    29    37    1
    13     7     9    1
    14     7    13    1
    15     8    10    1
    16     8    14    1
    17     4     5    1
    18    28    36    1
    19    30    33    1
    20    30    38    1
    21    31    34    1
    22    31    39    1
    23    32    35    1
    24    32    40    1
    25    41    43   ar
    26    15    19    2
    27    42    43   ar
    28    16    22    2
    29    17    12    1
    30    17    19   ar
    31    17    20   ar
    32    18    19   ar
    33    18    22   ar
    34    18    23    1
    35     9    10    1
    36     9    11    1
    37    10    12    1
    38    11     5    1
    39    33    34    1
    40    33    35    1
    41    34    36    1
    42    35    37    1
    43    37    43    1
    44    20    21   ar
    45    21    22   ar
@<TRIPOS>MOLECULE
UDP-glaA
 43 45 0 0 0
SMALL
GASTEIGER

@<TRIPOS>ATOM
      1 P          21.9392   72.4777   -5.8964 P.3     1  UNL1        0.2189
      2 O          21.2856   73.9041   -5.5021 O.3     1  UNL1       -0.4371
      3 O          23.1164   72.5556   -6.8239 O.2     1  UNL1       -0.5170
      4 O          20.6836   71.6067   -6.4259 O.3     1  UNL1       -0.3112
      5 C          20.0804   71.9669   -7.6570 C.3     1  UNL1        0.1811
      6 O          18.8837   69.9345   -7.1967 O.3     1  UNL1       -0.3308
      7 O          18.0772   69.9756  -10.0845 O.3     1  UNL1       -0.3794
      8 O          15.8515   70.9300   -8.8309 O.3     1  UNL1       -0.3779
      9 C          18.2536   71.0661   -9.1804 C.3     1  UNL1        0.1713
     10 C          17.1004   71.1284   -8.2012 C.3     1  UNL1        0.1895
     11 C          19.4281   70.7353   -8.2689 C.3     1  UNL1        0.1764
     12 C          17.4492   70.0124   -7.2312 C.3     1  UNL1        0.2383
     13 H          18.8566   69.9518  -10.6654 H       1  UNL1        0.2105
     14 H          15.7535   71.6193   -9.5102 H       1  UNL1        0.2106
     15 O          16.2956   68.0565   -5.5522 O.2     1  UNL1       -0.2464
     16 O          15.6168   71.1039   -2.1623 O.2     1  UNL1       -0.2670
     17 N          16.9631   70.2667   -5.9052 N.ar    1  UNL1       -0.2551
     18 N          15.9579   69.5754   -3.8655 N.ar    1  UNL1       -0.2743
     19 C          16.4005   69.2149   -5.1450 C.ar    1  UNL1        0.3323
     20 C          17.0461   71.5475   -5.3703 C.ar    1  UNL1        0.0869
     21 C          16.6200   71.8752   -4.1485 C.ar    1  UNL1        0.0795
     22 C          16.0188   70.8352   -3.2902 C.ar    1  UNL1        0.2626
     23 H          15.5492   68.8353   -3.3012 H       1  UNL1        0.1734
     24 O          22.2591   71.8153   -4.4562 O.3     1  UNL1       -0.2703
     25 P          23.4917   72.0415   -3.4354 P.3     1  UNL1        0.2208
     26 O          24.4346   73.0957   -4.2200 O.3     1  UNL1       -0.4371
     27 O          24.1876   70.7770   -3.0201 O.2     1  UNL1       -0.5170
     28 O          22.8613   72.8875   -2.2143 O.3     1  UNL1       -0.2858
     29 O          21.1989   71.9944   -0.7867 O.3     1  UNL1       -0.3226
     30 O          20.7056   76.0862   -0.2451 O.3     1  UNL1       -0.3794
     31 O          21.2138   74.9938   -2.9011 O.3     1  UNL1       -0.3775
     32 O          19.7309   73.7777    0.9172 O.3     1  UNL1       -0.3792
     33 C          21.3811   74.8539   -0.4806 C.3     1  UNL1        0.1718
     34 C          20.8693   74.2017   -1.7694 C.3     1  UNL1        0.1968
     35 C          21.1398   73.9216    0.7098 C.3     1  UNL1        0.1723
     36 C          21.4637   72.7982   -1.9411 C.3     1  UNL1        0.2706
     37 C          21.7358   72.5470    0.4141 C.3     1  UNL1        0.1830
     38 H          21.0587   76.4613    0.5796 H       1  UNL1        0.2105
     39 H          20.8786   74.5378   -3.6914 H       1  UNL1        0.2106
     40 H          19.3719   73.2085    0.2155 H       1  UNL1        0.2106
     41 O          21.5511   70.2952    1.0460 O.co2   1  UNL1       -0.5466
     42 O          21.0693   71.8611    2.6311 O.co2   1  UNL1       -0.5466
     43 C          21.4112   71.5657    1.4952 C.2     1  UNL1        0.0799
@<TRIPOS>UNITY_ATOM_ATTR
41 1
charge -1
@<TRIPOS>BOND
     1     1     4    1
     2     1    24    1
     3     1     2    1
     4     1     3    2
     5    25    28    1
     6    25    24    1
     7    25    26    1
     8    25    27    2
     9     6    11    1
    10     6    12    1
    11    29    36    1
    12    29    37    1
    13     7     9    1
    14     7    13    1
    15     8    10    1
    16     8    14    1
    17     4     5    1
    18    28    36    1
    19    30    33    1
    20    30    38    1
    21    31    34    1
    22    31    39    1
    23    32    35    1
    24    32    40    1
    25    41    43   ar
    26    15    19    2
    27    42    43   ar
    28    16    22    2
    29    17    12    1
    30    17    19   ar
    31    17    20   ar
    32    18    19   ar
    33    18    22   ar
    34    18    23    1
    35     9    10    1
    36     9    11    1
    37    10    12    1
    38    11     5    1
    39    33    34    1
    40    33    35    1
    41    34    36    1
    42    35    37    1
    43    37    43    1
    44    20    21   ar
    45    21    22   ar
@<TRIPOS>MOLECULE
UDP-glaA
 43 45 0 0 0
SMALL
GASTEIGER

@<TRIPOS>ATOM
      1 P          22.9887   71.6326   -2.5961 P.3     1  UNL1        0.2189
      2 O          24.2569   70.8124   -3.1760 O.3     1  UNL1       -0.4371
      3 O          22.6164   71.3043   -1.1799 O.2     1  UNL1       -0.5170
      4 O          21.8318   71.3932   -3.7005 O.3     1  UNL1       -0.3112
      5 C          21.6479   72.3695   -4.7116 C.3     1  UNL1        0.1811
      6 O          20.6652   70.4959   -5.8510 O.3     1  UNL1       -0.3308
      7 O          21.1155   72.0382   -8.3827 O.3     1  UNL1       -0.3794
      8 O          18.4621   72.4436   -7.9025 O.3     1  UNL1       -0.3779
      9 C          20.7515   72.5149   -7.0874 C.3     1  UNL1        0.1713
     10 C          19.3021   72.1882   -6.7958 C.3     1  UNL1        0.1895
     11 C          21.4831   71.6696   -6.0531 C.3     1  UNL1        0.1764
     12 C          19.3753   70.7115   -6.4468 C.3     1  UNL1        0.2383
     13 H          22.0595   72.2347   -8.5091 H       1  UNL1        0.2105
     14 H          18.5555   73.3848   -8.1298 H       1  UNL1        0.2106
     15 O          16.7731   69.8913   -7.1759 O.2     1  UNL1       -0.2464
     16 O          15.5546   69.2240   -2.7818 O.2     1  UNL1       -0.2670
     17 N          18.3582   70.3175   -5.5142 N.ar    1  UNL1       -0.2551
     18 N          16.1679   69.5601   -4.9873 N.ar    1  UNL1       -0.2743
     19 C          17.0835   69.9234   -5.9837 C.ar    1  UNL1        0.3323
     20 C          18.6283   70.3241   -4.1502 C.ar    1  UNL1        0.0869
     21 C          17.7448   69.9744   -3.2127 C.ar    1  UNL1        0.0795
     22 C          16.3901   69.5510   -3.6190 C.ar    1  UNL1        0.2626
     23 H          15.2447   69.2738   -5.3017 H       1  UNL1        0.1734
     24 O          23.4114   73.1742   -2.8414 O.3     1  UNL1       -0.2703
     25 P          23.2133   74.4873   -1.9200 P.3     1  UNL1        0.2208
     26 O          21.6727   74.3751   -1.4403 O.3     1  UNL1       -0.4371
     27 O          23.5565   75.7786   -2.6060 O.2     1  UNL1       -0.5170
     28 O          24.0778   74.1883   -0.5906 O.3     1  UNL1       -0.2858
     29 O          23.3389   73.0827    1.3667 O.3     1  UNL1       -0.3226
     30 O          26.3191   75.5745    2.8462 O.3     1  UNL1       -0.3794
     31 O          24.4586   76.5337    0.8153 O.3     1  UNL1       -0.3775
     32 O          24.7607   73.5135    3.8226 O.3     1  UNL1       -0.3792
     33 C          25.6404   74.7239    1.9263 C.3     1  UNL1        0.1718
     34 C          24.2829   75.3240    1.5451 C.3     1  UNL1        0.1968
     35 C          25.4427   73.3509    2.5747 C.3     1  UNL1        0.1723
     36 C          23.4733   74.3386    0.6932 C.3     1  UNL1        0.2706
     37 C          24.5931   72.4697    1.6616 C.3     1  UNL1        0.1830
     38 H          27.1697   75.1550    3.0609 H       1  UNL1        0.2105
     39 H          23.5755   76.8705    0.5885 H       1  UNL1        0.2106
     40 H          23.8284   73.7205    3.6405 H       1  UNL1        0.2106
     41 O          23.0847   71.2401    2.9718 O.co2   1  UNL1       -0.5466
     42 O          24.9604   70.1590    2.2576 O.co2   1  UNL1       -0.5466
     43 C          24.2655   71.1633    2.3119 C.2     1  UNL1        0.0799
@<TRIPOS>UNITY_ATOM_ATTR
41 1
charge -1
@<TRIPOS>BOND
     1     1     4    1
     2     1    24    1
     3     1     2    1
     4     1     3    2
     5    25    28    1
     6    25    24    1
     7    25    26    1
     8    25    27    2
     9     6    11    1
    10     6    12    1
    11    29    36    1
    12    29    37    1
    13     7     9    1
    14     7    13    1
    15     8    10    1
    16     8    14    1
    17     4     5    1
    18    28    36    1
    19    30    33    1
    20    30    38    1
    21    31    34    1
    22    31    39    1
    23    32    35    1
    24    32    40    1
    25    41    43   ar
    26    15    19    2
    27    42    43   ar
    28    16    22    2
    29    17    12    1
    30    17    19   ar
    31    17    20   ar
    32    18    19   ar
    33    18    22   ar
    34    18    23    1
    35     9    10    1
    36     9    11    1
    37    10    12    1
    38    11     5    1
    39    33    34    1
    40    33    35    1
    41    34    36    1
    42    35    37    1
    43    37    43    1
    44    20    21   ar
    45    21    22   ar
@<TRIPOS>MOLECULE
UDP-glaA
 43 45 0 0 0
SMALL
GASTEIGER

@<TRIPOS>ATOM
      1 P          22.9713   71.5498   -2.4116 P.3     1  UNL1        0.2189
      2 O          22.2384   70.6474   -1.2864 O.3     1  UNL1       -0.4371
      3 O          24.2173   70.9482   -2.9926 O.2     1  UNL1       -0.5170
      4 O          23.1526   72.9901   -1.6987 O.3     1  UNL1       -0.3112
      5 C          23.7645   73.0414   -0.4212 C.3     1  UNL1        0.1811
      6 O          24.7738   71.2581    0.8339 O.3     1  UNL1       -0.3308
      7 O          21.9997   70.5849    1.7517 O.3     1  UNL1       -0.3794
      8 O          23.0218   71.9372    3.8876 O.3     1  UNL1       -0.3779
      9 C          22.5817   71.8634    1.4977 C.3     1  UNL1        0.1713
     10 C          23.5424   72.2329    2.6082 C.3     1  UNL1        0.1895
     11 C          23.5147   71.7256    0.3018 C.3     1  UNL1        0.1764
     12 C          24.7604   71.3924    2.2647 C.3     1  UNL1        0.2383
     13 H          21.4236   70.3737    0.9973 H       1  UNL1        0.2105
     14 H          22.1889   72.4299    3.9858 H       1  UNL1        0.2106
     15 O          25.0150   74.1059    3.0045 O.2     1  UNL1       -0.2464
     16 O          29.5173   73.6371    3.8698 O.2     1  UNL1       -0.2670
     17 N          25.9868   72.0057    2.6878 N.ar    1  UNL1       -0.2551
     18 N          27.2569   73.8708    3.4344 N.ar    1  UNL1       -0.2743
     19 C          26.0076   73.3763    3.0370 C.ar    1  UNL1        0.3323
     20 C          27.1527   71.2509    2.7536 C.ar    1  UNL1        0.0869
     21 C          28.3360   71.7369    3.1349 C.ar    1  UNL1        0.0795
     22 C          28.4439   73.1593    3.5152 C.ar    1  UNL1        0.2626
     23 H          27.2958   74.8539    3.6894 H       1  UNL1        0.1734
     24 O          21.7912   71.8212   -3.4835 O.3     1  UNL1       -0.2703
     25 P          20.4326   71.0027   -3.7946 P.3     1  UNL1        0.2208
     26 O          19.5385   71.2504   -2.4697 O.3     1  UNL1       -0.4371
     27 O          20.6492   69.5559   -4.1348 O.2     1  UNL1       -0.5170
     28 O          19.6964   71.8560   -4.9495 O.3     1  UNL1       -0.2858
     29 O          18.2396   70.1262   -5.6459 O.3     1  UNL1       -0.3226
     30 O          16.3416   73.5136   -7.1300 O.3     1  UNL1       -0.3794
     31 O          19.2420   73.2512   -7.2882 O.3     1  UNL1       -0.3775
     32 O          15.7464   70.8276   -6.8829 O.3     1  UNL1       -0.3792
     33 C          17.1156   72.7116   -6.2422 C.3     1  UNL1        0.1718
     34 C          18.3650   72.1809   -6.9533 C.3     1  UNL1        0.1968
     35 C          16.2554   71.5434   -5.7527 C.3     1  UNL1        0.1723
     36 C          19.1131   71.1808   -6.0630 C.3     1  UNL1        0.2706
     37 C          17.1083   70.5944   -4.9135 C.3     1  UNL1        0.1830
     38 H          15.5619   73.8251   -6.6396 H       1  UNL1        0.2105
     39 H          20.0200   72.8669   -7.7262 H       1  UNL1        0.2106
     40 H          16.4725   70.3147   -7.2763 H       1  UNL1        0.2106
     41 O          16.4274   68.4236   -5.4858 O.co2   1  UNL1       -0.5466
     42 O          15.7231   69.2365   -3.4758 O.co2   1  UNL1       -0.5466
     43 C          16.3417   69.3715   -4.5216 C.2     1  UNL1        0.0799
@<TRIPOS>UNITY_ATOM_ATTR
41 1
charge -1
@<TRIPOS>BOND
     1     1     4    1
     2     1    24    1
     3     1     2    1
     4     1     3    2
     5    25    28    1
     6    25    24    1
     7    25    26    1
     8    25    27    2
     9     6    11    1
    10     6    12    1
    11    29    36    1
    12    29    37    1
    13     7     9    1
    14     7    13    1
    15     8    10    1
    16     8    14    1
    17     4     5    1
    18    28    36    1
    19    30    33    1
    20    30    38    1
    21    31    34    1
    22    31    39    1
    23    32    35    1
    24    32    40    1
    25    41    43   ar
    26    15    19    2
    27    42    43   ar
    28    16    22    2
    29    17    12    1
    30    17    19   ar
    31    17    20   ar
    32    18    19   ar
    33    18    22   ar
    34    18    23    1
    35     9    10    1
    36     9    11    1
    37    10    12    1
    38    11     5    1
    39    33    34    1
    40    33    35    1
    41    34    36    1
    42    35    37    1
    43    37    43    1
    44    20    21   ar
    45    21    22   ar
@<TRIPOS>MOLECULE
UDP-glaA
 43 45 0 0 0
SMALL
GASTEIGER

@<TRIPOS>ATOM
      1 P          20.9152   72.9150   -4.9764 P.3     1  UNL1        0.2189
      2 O          21.0322   74.5279   -5.0247 O.3     1  UNL1       -0.4371
      3 O          21.6373   72.1948   -6.0774 O.2     1  UNL1       -0.5170
      4 O          19.3239   72.6423   -4.8836 O.3     1  UNL1       -0.3112
      5 C          18.8192   71.9555   -3.7509 C.3     1  UNL1        0.1811
      6 O          17.0216   71.9033   -5.3446 O.3     1  UNL1       -0.3308
      7 O          15.5293   70.2622   -3.3269 O.3     1  UNL1       -0.3794
      8 O          16.4197   68.3781   -5.0856 O.3     1  UNL1       -0.3779
      9 C          16.9228   70.2645   -3.6367 C.3     1  UNL1        0.1713
     10 C          17.1678   69.5698   -4.9596 C.3     1  UNL1        0.1895
     11 C          17.3322   71.6979   -3.9488 C.3     1  UNL1        0.1764
     12 C          16.7441   70.6336   -5.9580 C.3     1  UNL1        0.2383
     13 H          15.4170   70.7505   -2.4935 H       1  UNL1        0.2105
     14 H          16.6709   67.7955   -4.3483 H       1  UNL1        0.2106
     15 O          15.5653   70.8499   -8.5152 O.2     1  UNL1       -0.2464
     16 O          19.6174   70.2721  -10.6331 O.2     1  UNL1       -0.2670
     17 N          17.4672   70.5441   -7.1943 N.ar    1  UNL1       -0.2551
     18 N          17.5838   70.5615   -9.5681 N.ar    1  UNL1       -0.2743
     19 C          16.7804   70.6652   -8.4249 C.ar    1  UNL1        0.3323
     20 C          18.8423   70.3382   -7.1797 C.ar    1  UNL1        0.0869
     21 C          19.5943   70.2420   -8.2784 C.ar    1  UNL1        0.0795
     22 C          18.9544   70.3566   -9.6039 C.ar    1  UNL1        0.2626
     23 H          17.1113   70.6450  -10.4642 H       1  UNL1        0.1734
     24 O          21.4323   72.5587   -3.4862 O.3     1  UNL1       -0.2703
     25 P          21.9771   71.1736   -2.8558 P.3     1  UNL1        0.2208
     26 O          23.5840   71.3535   -2.8982 O.3     1  UNL1       -0.4371
     27 O          21.4728   69.9407   -3.5495 O.2     1  UNL1       -0.5170
     28 O          21.5976   71.2598   -1.2898 O.3     1  UNL1       -0.2858
     29 O          22.8693   73.0873   -0.4882 O.3     1  UNL1       -0.3226
     30 O          20.5988   72.0778    2.8442 O.3     1  UNL1       -0.3794
     31 O          21.7653   70.0008    1.1616 O.3     1  UNL1       -0.3775
     32 O          22.3050   74.1281    2.1265 O.3     1  UNL1       -0.3792
     33 C          20.9227   72.2596    1.4686 C.3     1  UNL1        0.1718
     34 C          22.1145   71.3785    1.0792 C.3     1  UNL1        0.1968
     35 C          21.2611   73.7338    1.2301 C.3     1  UNL1        0.1723
     36 C          22.5788   71.6927   -0.3484 C.3     1  UNL1        0.2706
     37 C          21.7481   73.9229   -0.2049 C.3     1  UNL1        0.1830
     38 H          19.8428   72.6550    3.0464 H       1  UNL1        0.2105
     39 H          22.5453   69.4842    0.8978 H       1  UNL1        0.2106
     40 H          23.1406   73.7386    1.8180 H       1  UNL1        0.2106
     41 O          23.5472   75.4282   -0.2347 O.co2   1  UNL1       -0.5466
     42 O          21.4947   76.2525   -0.7868 O.co2   1  UNL1       -0.5466
     43 C          22.2128   75.3241   -0.4448 C.2     1  UNL1        0.0799
@<TRIPOS>UNITY_ATOM_ATTR
41 1
charge -1
@<TRIPOS>BOND
     1     1     4    1
     2     1    24    1
     3     1     2    1
     4     1     3    2
     5    25    28    1
     6    25    24    1
     7    25    26    1
     8    25    27    2
     9     6    11    1
    10     6    12    1
    11    29    36    1
    12    29    37    1
    13     7     9    1
    14     7    13    1
    15     8    10    1
    16     8    14    1
    17     4     5    1
    18    28    36    1
    19    30    33    1
    20    30    38    1
    21    31    34    1
    22    31    39    1
    23    32    35    1
    24    32    40    1
    25    41    43   ar
    26    15    19    2
    27    42    43   ar
    28    16    22    2
    29    17    12    1
    30    17    19   ar
    31    17    20   ar
    32    18    19   ar
    33    18    22   ar
    34    18    23    1
    35     9    10    1
    36     9    11    1
    37    10    12    1
    38    11     5    1
    39    33    34    1
    40    33    35    1
    41    34    36    1
    42    35    37    1
    43    37    43    1
    44    20    21   ar
    45    21    22   ar
@<TRIPOS>MOLECULE
UDP-glaA
 43 45 0 0 0
SMALL
GASTEIGER

@<TRIPOS>ATOM
      1 P          23.4117   71.9565   -3.3465 P.3     1  UNL1        0.2189
      2 O          24.1673   72.8931   -4.4278 O.3     1  UNL1       -0.4371
      3 O          24.2217   70.8021   -2.8333 O.2     1  UNL1       -0.5170
      4 O          22.0184   71.5705   -4.0713 O.3     1  UNL1       -0.3112
      5 C          21.5007   72.4493   -5.0557 C.3     1  UNL1        0.1811
      6 O          20.5165   70.4882   -6.0354 O.3     1  UNL1       -0.3308
      7 O          20.7652   71.9059   -8.6660 O.3     1  UNL1       -0.3794
      8 O          18.1324   72.2550   -8.0479 O.3     1  UNL1       -0.3779
      9 C          20.4620   72.4398   -7.3773 C.3     1  UNL1        0.1713
     10 C          19.0440   72.0850   -6.9823 C.3     1  UNL1        0.1895
     11 C          21.2811   71.6738   -6.3469 C.3     1  UNL1        0.1764
     12 C          19.1874   70.6320   -6.5626 C.3     1  UNL1        0.2383
     13 H          21.6930   72.1240   -8.8591 H       1  UNL1        0.2105
     14 H          18.1805   73.1851   -8.3287 H       1  UNL1        0.2106
     15 O          16.5531   69.7597   -7.0874 O.2     1  UNL1       -0.2464
     16 O          15.6419   69.2233   -2.6018 O.2     1  UNL1       -0.2670
     17 N          18.2407   70.2575   -5.5512 N.ar    1  UNL1       -0.2551
     18 N          16.1010   69.4936   -4.8533 N.ar    1  UNL1       -0.2743
     19 C          16.9425   69.8343   -5.9205 C.ar    1  UNL1        0.3323
     20 C          18.6018   70.3119   -4.2095 C.ar    1  UNL1        0.0869
     21 C          17.7881   69.9834   -3.2037 C.ar    1  UNL1        0.0795
     22 C          16.4148   69.5319   -3.5036 C.ar    1  UNL1        0.2626
     23 H          15.1626   69.1870   -5.0952 H       1  UNL1        0.1734
     24 O          22.9503   73.0126   -2.2120 O.3     1  UNL1       -0.2703
     25 P          22.9394   72.8993   -0.5997 P.3     1  UNL1        0.2208
     26 O          21.3856   72.6067   -0.2588 O.3     1  UNL1       -0.4371
     27 O          23.5144   74.0941    0.1057 O.2     1  UNL1       -0.5170
     28 O          23.6959   71.5098   -0.2822 O.3     1  UNL1       -0.2858
     29 O          24.6364   71.9053    1.8529 O.3     1  UNL1       -0.3226
     30 O          20.5642   72.2323    2.6208 O.3     1  UNL1       -0.3794
     31 O          21.5748   70.1498    0.8466 O.3     1  UNL1       -0.3775
     32 O          22.9094   72.7028    4.0023 O.3     1  UNL1       -0.3792
     33 C          21.7868   72.3317    1.8959 C.3     1  UNL1        0.1718
     34 C          22.4016   70.9429    1.6918 C.3     1  UNL1        0.1968
     35 C          22.7551   73.2234    2.6779 C.3     1  UNL1        0.1723
     36 C          23.7975   71.0533    1.0659 C.3     1  UNL1        0.2706
     37 C          24.1185   73.2277    1.9898 C.3     1  UNL1        0.1830
     38 H          20.2129   73.1326    2.7284 H       1  UNL1        0.2105
     39 H          22.0079   69.2862    0.7391 H       1  UNL1        0.2106
     40 H          23.4583   71.9017    3.9573 H       1  UNL1        0.2106
     41 O          25.9765   74.6599    1.9745 O.co2   1  UNL1       -0.5466
     42 O          25.1963   73.9933    4.0102 O.co2   1  UNL1       -0.5466
     43 C          25.1327   73.9820    2.7894 C.2     1  UNL1        0.0799
@<TRIPOS>UNITY_ATOM_ATTR
41 1
charge -1
@<TRIPOS>BOND
     1     1     4    1
     2     1    24    1
     3     1     2    1
     4     1     3    2
     5    25    28    1
     6    25    24    1
     7    25    26    1
     8    25    27    2
     9     6    11    1
    10     6    12    1
    11    29    36    1
    12    29    37    1
    13     7     9    1
    14     7    13    1
    15     8    10    1
    16     8    14    1
    17     4     5    1
    18    28    36    1
    19    30    33    1
    20    30    38    1
    21    31    34    1
    22    31    39    1
    23    32    35    1
    24    32    40    1
    25    41    43   ar
    26    15    19    2
    27    42    43   ar
    28    16    22    2
    29    17    12    1
    30    17    19   ar
    31    17    20   ar
    32    18    19   ar
    33    18    22   ar
    34    18    23    1
    35     9    10    1
    36     9    11    1
    37    10    12    1
    38    11     5    1
    39    33    34    1
    40    33    35    1
    41    34    36    1
    42    35    37    1
    43    37    43    1
    44    20    21   ar
    45    21    22   ar
@<TRIPOS>MOLECULE
UDP-glaA
 43 45 0 0 0
SMALL
GASTEIGER

@<TRIPOS>ATOM
      1 P          19.1517   73.3625   -2.3036 P.3     1  UNL1        0.2189
      2 O          18.3141   72.4395   -1.2720 O.3     1  UNL1       -0.4371
      3 O          18.4247   74.5785   -2.7986 O.2     1  UNL1       -0.5170
      4 O          19.6440   72.3255   -3.4428 O.3     1  UNL1       -0.3112
      5 C          19.0414   71.0437   -3.4981 C.3     1  UNL1        0.1811
      6 O          17.3230   71.7356   -5.0287 O.3     1  UNL1       -0.3308
      7 O          15.4229   70.1842   -3.3042 O.3     1  UNL1       -0.3794
      8 O          15.8473   68.4887   -5.3972 O.3     1  UNL1       -0.3779
      9 C          16.7782   69.8923   -3.6439 C.3     1  UNL1        0.1713
     10 C          16.8685   69.4106   -5.0765 C.3     1  UNL1        0.1895
     11 C          17.5421   71.2086   -3.7015 C.3     1  UNL1        0.1764
     12 C          16.7479   70.7098   -5.8546 C.3     1  UNL1        0.2383
     13 H          15.4193   70.5253   -2.3936 H       1  UNL1        0.2105
     14 H          15.9279   67.7377   -4.7843 H       1  UNL1        0.2106
     15 O          15.4992   70.5971   -8.3851 O.2     1  UNL1       -0.2464
     16 O          19.5487   70.5487  -10.5845 O.2     1  UNL1       -0.2670
     17 N          17.4513   70.6675   -7.1047 N.ar    1  UNL1       -0.2551
     18 N          17.5165   70.5726   -9.4786 N.ar    1  UNL1       -0.2743
     19 C          16.7297   70.6112   -8.3200 C.ar    1  UNL1        0.3323
     20 C          18.8417   70.6816   -7.1185 C.ar    1  UNL1        0.0869
     21 C          19.5774   70.6448   -8.2316 C.ar    1  UNL1        0.0795
     22 C          18.9013   70.5843   -9.5426 C.ar    1  UNL1        0.2626
     23 H          17.0190   70.5313  -10.3640 H       1  UNL1        0.1734
     24 O          20.5114   73.6768   -1.4866 O.3     1  UNL1       -0.2703
     25 P          21.4321   72.7290   -0.5557 P.3     1  UNL1        0.2208
     26 O          22.4342   72.0291   -1.6151 O.3     1  UNL1       -0.4371
     27 O          20.6586   71.7641    0.2966 O.2     1  UNL1       -0.5170
     28 O          22.3644   73.7520    0.2739 O.3     1  UNL1       -0.2858
     29 O          23.2063   72.2959    1.9384 O.3     1  UNL1       -0.3226
     30 O          25.6127   75.6512    2.4183 O.3     1  UNL1       -0.3794
     31 O          22.7543   75.9377    1.9150 O.3     1  UNL1       -0.3775
     32 O          25.5523   73.0700    3.3997 O.3     1  UNL1       -0.3792
     33 C          24.8231   74.6735    1.7469 C.3     1  UNL1        0.1718
     34 C          23.3800   74.7067    2.2614 C.3     1  UNL1        0.1968
     35 C          25.4343   73.2909    1.9904 C.3     1  UNL1        0.1723
     36 C          22.5662   73.5481    1.6717 C.3     1  UNL1        0.2706
     37 C          24.5247   72.2162    1.3990 C.3     1  UNL1        0.1830
     38 H          26.5162   75.5927    2.0636 H       1  UNL1        0.2105
     39 H          21.8430   75.9087    2.2521 H       1  UNL1        0.2106
     40 H          24.6659   72.8994    3.7609 H       1  UNL1        0.2106
     41 O          25.8115   70.3701    0.7356 O.co2   1  UNL1       -0.5466
     42 O          24.7464   70.2246    2.7460 O.co2   1  UNL1       -0.5466
     43 C          25.0167   70.8422    1.7262 C.2     1  UNL1        0.0799
@<TRIPOS>UNITY_ATOM_ATTR
41 1
charge -1
@<TRIPOS>BOND
     1     1     4    1
     2     1    24    1
     3     1     2    1
     4     1     3    2
     5    25    28    1
     6    25    24    1
     7    25    26    1
     8    25    27    2
     9     6    11    1
    10     6    12    1
    11    29    36    1
    12    29    37    1
    13     7     9    1
    14     7    13    1
    15     8    10    1
    16     8    14    1
    17     4     5    1
    18    28    36    1
    19    30    33    1
    20    30    38    1
    21    31    34    1
    22    31    39    1
    23    32    35    1
    24    32    40    1
    25    41    43   ar
    26    15    19    2
    27    42    43   ar
    28    16    22    2
    29    17    12    1
    30    17    19   ar
    31    17    20   ar
    32    18    19   ar
    33    18    22   ar
    34    18    23    1
    35     9    10    1
    36     9    11    1
    37    10    12    1
    38    11     5    1
    39    33    34    1
    40    33    35    1
    41    34    36    1
    42    35    37    1
    43    37    43    1
    44    20    21   ar
    45    21    22   ar
@<TRIPOS>MOLECULE
UDP-glaA
 43 45 0 0 0
SMALL
GASTEIGER

@<TRIPOS>ATOM
      1 P          22.6975   72.2942   -4.2662 P.3     1  UNL1        0.2189
      2 O          21.7993   71.0207   -3.8318 O.3     1  UNL1       -0.4371
      3 O          24.0862   72.3128   -3.6976 O.2     1  UNL1       -0.5170
      4 O          21.7708   73.5679   -3.8998 O.3     1  UNL1       -0.3112
      5 C          21.8773   74.1328   -2.6041 C.3     1  UNL1        0.1811
      6 O          21.0371   72.5130   -1.0405 O.3     1  UNL1       -0.3308
      7 O          18.8932   74.5118   -0.4081 O.3     1  UNL1       -0.3794
      8 O          20.6270   74.8192    1.6740 O.3     1  UNL1       -0.3779
      9 C          20.2668   74.7315   -0.7287 C.3     1  UNL1        0.1713
     10 C          21.1466   74.3559    0.4449 C.3     1  UNL1        0.1895
     11 C          20.6751   73.7031   -1.7752 C.3     1  UNL1        0.1764
     12 C          21.1649   72.8395    0.3532 C.3     1  UNL1        0.2383
     13 H          18.3725   74.7282   -1.2003 H       1  UNL1        0.2105
     14 H          20.5451   75.7865    1.6112 H       1  UNL1        0.2106
     15 O          21.5163   70.1106    0.9894 O.2     1  UNL1       -0.2464
     16 O          25.8902   70.7851    2.2750 O.2     1  UNL1       -0.2670
     17 N          22.3848   72.2747    0.8553 N.ar    1  UNL1       -0.2551
     18 N          23.6940   70.4484    1.6297 N.ar    1  UNL1       -0.2743
     19 C          22.4567   70.8919    1.1444 C.ar    1  UNL1        0.3323
     20 C          23.4941   73.0885    1.0569 C.ar    1  UNL1        0.0869
     21 C          24.6669   72.6504    1.5198 C.ar    1  UNL1        0.0795
     22 C          24.8253   71.2195    1.8470 C.ar    1  UNL1        0.2626
     23 H          23.7686   69.4578    1.8449 H       1  UNL1        0.1734
     24 O          22.6317   72.2499   -5.8814 O.3     1  UNL1       -0.2703
     25 P          21.4398   71.8138   -6.8824 P.3     1  UNL1        0.2208
     26 O          21.6835   70.2271   -7.0805 O.3     1  UNL1       -0.4371
     27 O          21.3923   72.5983   -8.1623 O.2     1  UNL1       -0.5170
     28 O          20.0992   71.9128   -5.9897 O.3     1  UNL1       -0.2858
     29 O          18.7639   71.9047   -7.9432 O.3     1  UNL1       -0.3226
     30 O          16.3167   69.9540   -5.2072 O.3     1  UNL1       -0.3794
     31 O          17.8700   72.2883   -4.4046 O.3     1  UNL1       -0.3775
     32 O          16.2880   70.4528   -7.9239 O.3     1  UNL1       -0.3792
     33 C          17.5209   70.3649   -5.8486 C.3     1  UNL1        0.1718
     34 C          17.6829   71.8860   -5.7574 C.3     1  UNL1        0.1968
     35 C          17.4737   69.9301   -7.3160 C.3     1  UNL1        0.1723
     36 C          18.8826   72.3554   -6.5897 C.3     1  UNL1        0.2706
     37 C          18.6900   70.4843   -8.0548 C.3     1  UNL1        0.1830
     38 H          16.2545   68.9873   -5.2915 H       1  UNL1        0.2105
     39 H          17.9771   73.2544   -4.3980 H       1  UNL1        0.2106
     40 H          16.4069   71.4078   -8.0621 H       1  UNL1        0.2106
     41 O          19.5485   70.9117  -10.1958 O.co2   1  UNL1       -0.5466
     42 O          17.8363   69.4143  -10.0438 O.co2   1  UNL1       -0.5466
     43 C          18.6193   70.1936   -9.5202 C.2     1  UNL1        0.0799
@<TRIPOS>UNITY_ATOM_ATTR
41 1
charge -1
@<TRIPOS>BOND
     1     1     4    1
     2     1    24    1
     3     1     2    1
     4     1     3    2
     5    25    28    1
     6    25    24    1
     7    25    26    1
     8    25    27    2
     9     6    11    1
    10     6    12    1
    11    29    36    1
    12    29    37    1
    13     7     9    1
    14     7    13    1
    15     8    10    1
    16     8    14    1
    17     4     5    1
    18    28    36    1
    19    30    33    1
    20    30    38    1
    21    31    34    1
    22    31    39    1
    23    32    35    1
    24    32    40    1
    25    41    43   ar
    26    15    19    2
    27    42    43   ar
    28    16    22    2
    29    17    12    1
    30    17    19   ar
    31    17    20   ar
    32    18    19   ar
    33    18    22   ar
    34    18    23    1
    35     9    10    1
    36     9    11    1
    37    10    12    1
    38    11     5    1
    39    33    34    1
    40    33    35    1
    41    34    36    1
    42    35    37    1
    43    37    43    1
    44    20    21   ar
    45    21    22   ar
@<TRIPOS>MOLECULE
UDP-glaA
 43 45 0 0 0
SMALL
GASTEIGER

@<TRIPOS>ATOM
      1 P          23.3587   72.1426   -3.5492 P.3     1  UNL1        0.2189
      2 O          24.1404   72.9185   -4.7342 O.3     1  UNL1       -0.4371
      3 O          24.0869   70.9612   -2.9782 O.2     1  UNL1       -0.5170
      4 O          21.9024   71.8326   -4.1807 O.3     1  UNL1       -0.3112
      5 C          21.2049   70.6796   -3.7413 C.3     1  UNL1        0.1811
      6 O          19.1752   71.6635   -4.5697 O.3     1  UNL1       -0.3308
      7 O          17.8096   70.3468   -2.2475 O.3     1  UNL1       -0.3794
      8 O          17.2050   68.6784   -4.3179 O.3     1  UNL1       -0.3779
      9 C          18.8958   69.8732   -3.0434 C.3     1  UNL1        0.1713
     10 C          18.3971   69.4316   -4.4031 C.3     1  UNL1        0.1895
     11 C          19.7734   71.0664   -3.3980 C.3     1  UNL1        0.1764
     12 C          18.1991   70.7598   -5.1136 C.3     1  UNL1        0.2383
     13 H          18.1815   70.6542   -1.4032 H       1  UNL1        0.2105
     14 H          17.3877   67.9036   -3.7588 H       1  UNL1        0.2106
     15 O          16.2244   69.9005   -6.9405 O.2     1  UNL1       -0.2464
     16 O          19.0672   70.4056  -10.5324 O.2     1  UNL1       -0.2670
     17 N          18.3957   70.6578   -6.5314 N.ar    1  UNL1       -0.2551
     18 N          17.6415   70.1521   -8.7278 N.ar    1  UNL1       -0.2743
     19 C          17.3393   70.2145   -7.3611 C.ar    1  UNL1        0.3323
     20 C          19.6251   70.9949   -7.0867 C.ar    1  UNL1        0.0869
     21 C          19.8973   70.9306   -8.3919 C.ar    1  UNL1        0.0795
     22 C          18.8488   70.4765   -9.3269 C.ar    1  UNL1        0.2626
     23 H          16.8971   69.8355   -9.3433 H       1  UNL1        0.1734
     24 O          23.0500   73.3216   -2.4862 O.3     1  UNL1       -0.2703
     25 P          22.5507   73.2602   -0.9501 P.3     1  UNL1        0.2208
     26 O          22.1648   71.7026   -0.7473 O.3     1  UNL1       -0.4371
     27 O          21.4435   74.2209   -0.6234 O.2     1  UNL1       -0.5170
     28 O          23.8914   73.4659   -0.0759 O.3     1  UNL1       -0.2858
     29 O          23.0414   73.8989    2.0896 O.3     1  UNL1       -0.3226
     30 O          21.6468   70.0516    1.3598 O.3     1  UNL1       -0.3794
     31 O          24.3481   70.8220    0.5754 O.3     1  UNL1       -0.3775
     32 O          21.2599   71.9930    3.2863 O.3     1  UNL1       -0.3792
     33 C          22.0403   71.3923    1.0806 C.3     1  UNL1        0.1718
     34 C          23.5176   71.5997    1.4311 C.3     1  UNL1        0.1968
     35 C          21.1681   72.3457    1.9021 C.3     1  UNL1        0.1723
     36 C          23.9053   73.0776    1.2971 C.3     1  UNL1        0.2706
     37 C          21.6671   73.7782    1.7259 C.3     1  UNL1        0.1830
     38 H          20.7067   69.9670    1.1258 H       1  UNL1        0.2105
     39 H          25.2711   70.9928    0.8279 H       1  UNL1        0.2106
     40 H          22.1293   72.2727    3.6194 H       1  UNL1        0.2106
     41 O          20.9949   75.9905    2.1231 O.co2   1  UNL1       -0.5466
     42 O          20.3342   74.4174    3.6350 O.co2   1  UNL1       -0.5466
     43 C          20.9260   74.7287    2.6116 C.2     1  UNL1        0.0799
@<TRIPOS>UNITY_ATOM_ATTR
41 1
charge -1
@<TRIPOS>BOND
     1     1     4    1
     2     1    24    1
     3     1     2    1
     4     1     3    2
     5    25    28    1
     6    25    24    1
     7    25    26    1
     8    25    27    2
     9     6    11    1
    10     6    12    1
    11    29    36    1
    12    29    37    1
    13     7     9    1
    14     7    13    1
    15     8    10    1
    16     8    14    1
    17     4     5    1
    18    28    36    1
    19    30    33    1
    20    30    38    1
    21    31    34    1
    22    31    39    1
    23    32    35    1
    24    32    40    1
    25    41    43   ar
    26    15    19    2
    27    42    43   ar
    28    16    22    2
    29    17    12    1
    30    17    19   ar
    31    17    20   ar
    32    18    19   ar
    33    18    22   ar
    34    18    23    1
    35     9    10    1
    36     9    11    1
    37    10    12    1
    38    11     5    1
    39    33    34    1
    40    33    35    1
    41    34    36    1
    42    35    37    1
    43    37    43    1
    44    20    21   ar
    45    21    22   ar
@<TRIPOS>MOLECULE
UDP-glaA
 43 45 0 0 0
SMALL
GASTEIGER

@<TRIPOS>ATOM
      1 P          21.9041   72.4680   -5.7258 P.3     1  UNL1        0.2189
      2 O          21.2846   73.9054   -5.3166 O.3     1  UNL1       -0.4371
      3 O          23.1066   72.5289   -6.6216 O.2     1  UNL1       -0.5170
      4 O          20.6364   71.6481   -6.3057 O.3     1  UNL1       -0.3112
      5 C          20.1254   72.0028   -7.5794 C.3     1  UNL1        0.1811
      6 O          18.9288   69.9618   -7.1589 O.3     1  UNL1       -0.3308
      7 O          18.1517   70.0402  -10.0539 O.3     1  UNL1       -0.3794
      8 O          15.9111   70.9726   -8.8105 O.3     1  UNL1       -0.3779
      9 C          18.3164   71.1188   -9.1334 C.3     1  UNL1        0.1713
     10 C          17.1530   71.1653   -8.1654 C.3     1  UNL1        0.1895
     11 C          19.4822   70.7782   -8.2145 C.3     1  UNL1        0.1764
     12 C          17.4945   70.0370   -7.2070 C.3     1  UNL1        0.2383
     13 H          18.9371   70.0259  -10.6271 H       1  UNL1        0.2105
     14 H          15.8184   71.6708   -9.4814 H       1  UNL1        0.2106
     15 O          16.3109   68.0603   -5.5738 O.2     1  UNL1       -0.2464
     16 O          15.6087   71.0556   -2.1425 O.2     1  UNL1       -0.2670
     17 N          16.9943   70.2723   -5.8827 N.ar    1  UNL1       -0.2551
     18 N          15.9616   69.5533   -3.8665 N.ar    1  UNL1       -0.2743
     19 C          16.4172   69.2113   -5.1465 C.ar    1  UNL1        0.3323
     20 C          17.0779   71.5437   -5.3260 C.ar    1  UNL1        0.0869
     21 C          16.6392   71.8537   -4.1040 C.ar    1  UNL1        0.0795
     22 C          16.0225   70.8031   -3.2699 C.ar    1  UNL1        0.2626
     23 H          15.5424   68.8063   -3.3192 H       1  UNL1        0.1734
     24 O          22.1664   71.7654   -4.2931 O.3     1  UNL1       -0.2703
     25 P          23.4113   71.8792   -3.2684 P.3     1  UNL1        0.2208
     26 O          24.1569   73.2350   -3.7396 O.3     1  UNL1       -0.4371
     27 O          24.2948   70.6651   -3.2354 O.2     1  UNL1       -0.5170
     28 O          22.7401   72.2541   -1.8497 O.3     1  UNL1       -0.2858
     29 O          23.3006   70.8366   -0.0397 O.3     1  UNL1       -0.3226
     30 O          20.1451   73.0431    1.5268 O.3     1  UNL1       -0.3794
     31 O          20.0567   72.0784   -1.2241 O.3     1  UNL1       -0.3775
     32 O          21.9985   71.2341    2.4872 O.3     1  UNL1       -0.3792
     33 C          21.3039   72.7593    0.7476 C.3     1  UNL1        0.1718
     34 C          21.0099   71.6431   -0.2603 C.3     1  UNL1        0.1968
     35 C          22.4383   72.3342    1.6839 C.3     1  UNL1        0.1723
     36 C          22.2921   71.2125   -0.9834 C.3     1  UNL1        0.2706
     37 C          23.6446   71.8895    0.8597 C.3     1  UNL1        0.1830
     38 H          20.3776   73.7516    2.1509 H       1  UNL1        0.2105
     39 H          19.9101   71.3443   -1.8441 H       1  UNL1        0.2106
     40 H          21.9677   70.4379    1.9303 H       1  UNL1        0.2106
     41 O          24.6682   69.9908    1.7822 O.co2   1  UNL1       -0.5466
     42 O          25.5664   72.0170    2.3158 O.co2   1  UNL1       -0.5466
     43 C          24.7310   71.3432    1.7305 C.2     1  UNL1        0.0799
@<TRIPOS>UNITY_ATOM_ATTR
41 1
charge -1
@<TRIPOS>BOND
     1     1     4    1
     2     1    24    1
     3     1     2    1
     4     1     3    2
     5    25    28    1
     6    25    24    1
     7    25    26    1
     8    25    27    2
     9     6    11    1
    10     6    12    1
    11    29    36    1
    12    29    37    1
    13     7     9    1
    14     7    13    1
    15     8    10    1
    16     8    14    1
    17     4     5    1
    18    28    36    1
    19    30    33    1
    20    30    38    1
    21    31    34    1
    22    31    39    1
    23    32    35    1
    24    32    40    1
    25    41    43   ar
    26    15    19    2
    27    42    43   ar
    28    16    22    2
    29    17    12    1
    30    17    19   ar
    31    17    20   ar
    32    18    19   ar
    33    18    22   ar
    34    18    23    1
    35     9    10    1
    36     9    11    1
    37    10    12    1
    38    11     5    1
    39    33    34    1
    40    33    35    1
    41    34    36    1
    42    35    37    1
    43    37    43    1
    44    20    21   ar
    45    21    22   ar
@<TRIPOS>MOLECULE
UDP-glaA
 43 45 0 0 0
SMALL
GASTEIGER

@<TRIPOS>ATOM
      1 P          20.5003   71.1448   -1.5122 P.3     1  UNL1        0.2189
      2 O          19.7832   72.5946   -1.4754 O.3     1  UNL1       -0.4371
      3 O          21.6825   71.0465   -2.4314 O.2     1  UNL1       -0.5170
      4 O          19.2879   70.1179   -1.8140 O.3     1  UNL1       -0.3112
      5 C          18.9274   69.8731   -3.1628 C.3     1  UNL1        0.1811
      6 O          17.4626   71.1557   -4.5713 O.3     1  UNL1       -0.3308
      7 O          15.2139   69.6283   -3.3058 O.3     1  UNL1       -0.3794
      8 O          15.5201   68.3618   -5.7012 O.3     1  UNL1       -0.3779
      9 C          16.5272   69.1850   -3.6472 C.3     1  UNL1        0.1713
     10 C          16.6480   69.0061   -5.1459 C.3     1  UNL1        0.1895
     11 C          17.4934   70.3326   -3.3843 C.3     1  UNL1        0.1764
     12 C          16.7956   70.4404   -5.6242 C.3     1  UNL1        0.2383
     13 H          15.1957   69.7663   -2.3434 H       1  UNL1        0.2105
     14 H          15.4331   67.4967   -5.2652 H       1  UNL1        0.2106
     15 O          19.6143   70.6041   -5.6852 O.2     1  UNL1       -0.2464
     16 O          19.6845   70.8234  -10.2880 O.2     1  UNL1       -0.2670
     17 N          17.5762   70.5405   -6.8243 N.ar    1  UNL1       -0.2551
     18 N          19.6473   70.7137   -7.9771 N.ar    1  UNL1       -0.2743
     19 C          18.9863   70.6182   -6.7454 C.ar    1  UNL1        0.3323
     20 C          16.9441   70.5611   -8.0626 C.ar    1  UNL1        0.0869
     21 C          17.5885   70.6520   -9.2281 C.ar    1  UNL1        0.0795
     22 C          19.0623   70.7382   -9.2336 C.ar    1  UNL1        0.2626
     23 H          20.6616   70.7713   -7.9447 H       1  UNL1        0.1734
     24 O          20.8333   70.8657    0.0455 O.3     1  UNL1       -0.2703
     25 P          21.9206   71.5384    1.0344 P.3     1  UNL1        0.2208
     26 O          23.1895   70.5416    0.9237 O.3     1  UNL1       -0.4371
     27 O          21.4258   71.7590    2.4352 O.2     1  UNL1       -0.5170
     28 O          22.3891   72.8821    0.2735 O.3     1  UNL1       -0.2858
     29 O          24.1180   72.9419   -1.3410 O.3     1  UNL1       -0.3226
     30 O          24.0279   76.8805   -0.0151 O.3     1  UNL1       -0.3794
     31 O          23.7495   74.6750    1.8727 O.3     1  UNL1       -0.3775
     32 O          25.2783   75.4734   -2.0366 O.3     1  UNL1       -0.3792
     33 C          23.5354   75.5909   -0.3682 C.3     1  UNL1        0.1718
     34 C          24.1680   74.5153    0.5213 C.3     1  UNL1        0.1968
     35 C          23.8693   75.3186   -1.8375 C.3     1  UNL1        0.1723
     36 C          23.7776   73.1128    0.0388 C.3     1  UNL1        0.2706
     37 C          23.4767   73.8870   -2.1961 C.3     1  UNL1        0.1830
     38 H          23.6036   77.5279   -0.6038 H       1  UNL1        0.2105
     39 H          24.1663   73.9685    2.3943 H       1  UNL1        0.2106
     40 H          25.7317   74.7086   -1.6434 H       1  UNL1        0.2106
     41 O          23.7381   74.5900   -4.4190 O.co2   1  UNL1       -0.5466
     42 O          24.3434   72.4473   -3.9298 O.co2   1  UNL1       -0.5466
     43 C          23.9029   73.5345   -3.5857 C.2     1  UNL1        0.0799
@<TRIPOS>UNITY_ATOM_ATTR
41 1
charge -1
@<TRIPOS>BOND
     1     1     4    1
     2     1    24    1
     3     1     2    1
     4     1     3    2
     5    25    28    1
     6    25    24    1
     7    25    26    1
     8    25    27    2
     9     6    11    1
    10     6    12    1
    11    29    36    1
    12    29    37    1
    13     7     9    1
    14     7    13    1
    15     8    10    1
    16     8    14    1
    17     4     5    1
    18    28    36    1
    19    30    33    1
    20    30    38    1
    21    31    34    1
    22    31    39    1
    23    32    35    1
    24    32    40    1
    25    41    43   ar
    26    15    19    2
    27    42    43   ar
    28    16    22    2
    29    17    12    1
    30    17    19   ar
    31    17    20   ar
    32    18    19   ar
    33    18    22   ar
    34    18    23    1
    35     9    10    1
    36     9    11    1
    37    10    12    1
    38    11     5    1
    39    33    34    1
    40    33    35    1
    41    34    36    1
    42    35    37    1
    43    37    43    1
    44    20    21   ar
    45    21    22   ar
@<TRIPOS>MOLECULE
UDP-glaA
 43 45 0 0 0
SMALL
GASTEIGER

@<TRIPOS>ATOM
      1 P          22.4125   72.9214   -4.3813 P.3     1  UNL1        0.2189
      2 O          23.9316   72.4957   -4.7399 O.3     1  UNL1       -0.4371
      3 O          22.1831   74.3988   -4.2515 O.2     1  UNL1       -0.5170
      4 O          22.0584   72.0376   -3.0740 O.3     1  UNL1       -0.3112
      5 C          21.1636   70.9474   -3.2154 C.3     1  UNL1        0.1811
      6 O          20.4102   70.5592   -0.9669 O.3     1  UNL1       -0.3308
      7 O          18.3188   72.6389   -1.5076 O.3     1  UNL1       -0.3794
      8 O          20.1760   74.0223   -0.0680 O.3     1  UNL1       -0.3779
      9 C          19.6718   72.5799   -1.9590 C.3     1  UNL1        0.1713
     10 C          20.6185   72.9154   -0.8260 C.3     1  UNL1        0.1895
     11 C          20.0111   71.1213   -2.2365 C.3     1  UNL1        0.1764
     12 C          20.6233   71.6241   -0.0256 C.3     1  UNL1        0.2383
     13 H          17.7526   72.3792   -2.2543 H       1  UNL1        0.2105
     14 H          20.0957   74.7788   -0.6743 H       1  UNL1        0.2106
     15 O          20.9967   71.9258    2.7574 O.2     1  UNL1       -0.2464
     16 O          25.4457   70.7580    2.4718 O.2     1  UNL1       -0.2670
     17 N          21.8681   71.4049    0.6539 N.ar    1  UNL1       -0.2551
     18 N          23.2120   71.3446    2.6132 N.ar    1  UNL1       -0.2743
     19 C          21.9497   71.5846    2.0545 C.ar    1  UNL1        0.3323
     20 C          22.9920   71.0162   -0.0667 C.ar    1  UNL1        0.0869
     21 C          24.1884   70.7907    0.4807 C.ar    1  UNL1        0.0795
     22 C          24.3588   70.9570    1.9378 C.ar    1  UNL1        0.2626
     23 H          23.2943   71.4683    3.6188 H       1  UNL1        0.1734
     24 O          21.5508   72.2059   -5.5477 O.3     1  UNL1       -0.2703
     25 P          20.8070   72.8199   -6.8448 P.3     1  UNL1        0.2208
     26 O          21.4238   71.9601   -8.0680 O.3     1  UNL1       -0.4371
     27 O          20.9570   74.3068   -6.9945 O.2     1  UNL1       -0.5170
     28 O          19.2801   72.3133   -6.7186 O.3     1  UNL1       -0.2858
     29 O          18.3931   70.4215   -5.6077 O.3     1  UNL1       -0.3226
     30 O          15.7980   70.8365   -8.8284 O.3     1  UNL1       -0.3794
     31 O          18.6678   71.2205   -9.1790 O.3     1  UNL1       -0.3775
     32 O          15.9136   69.3083   -6.5303 O.3     1  UNL1       -0.3792
     33 C          16.6804   71.2279   -7.7802 C.3     1  UNL1        0.1718
     34 C          18.0796   70.6488   -8.0153 C.3     1  UNL1        0.1968
     35 C          16.1213   70.7221   -6.4475 C.3     1  UNL1        0.1723
     36 C          18.9889   70.9194   -6.8103 C.3     1  UNL1        0.2706
     37 C          17.1221   71.0071   -5.3298 C.3     1  UNL1        0.1830
     38 H          14.9262   71.2224   -8.6373 H       1  UNL1        0.2105
     39 H          19.5529   70.8319   -9.2813 H       1  UNL1        0.2106
     40 H          16.7791   68.8666   -6.4984 H       1  UNL1        0.2106
     41 O          16.7443   69.0624   -4.0733 O.co2   1  UNL1       -0.5466
     42 O          16.3015   71.0557   -3.0596 O.co2   1  UNL1       -0.5466
     43 C          16.6754   70.4148   -4.0311 C.2     1  UNL1        0.0799
@<TRIPOS>UNITY_ATOM_ATTR
41 1
charge -1
@<TRIPOS>BOND
     1     1     4    1
     2     1    24    1
     3     1     2    1
     4     1     3    2
     5    25    28    1
     6    25    24    1
     7    25    26    1
     8    25    27    2
     9     6    11    1
    10     6    12    1
    11    29    36    1
    12    29    37    1
    13     7     9    1
    14     7    13    1
    15     8    10    1
    16     8    14    1
    17     4     5    1
    18    28    36    1
    19    30    33    1
    20    30    38    1
    21    31    34    1
    22    31    39    1
    23    32    35    1
    24    32    40    1
    25    41    43   ar
    26    15    19    2
    27    42    43   ar
    28    16    22    2
    29    17    12    1
    30    17    19   ar
    31    17    20   ar
    32    18    19   ar
    33    18    22   ar
    34    18    23    1
    35     9    10    1
    36     9    11    1
    37    10    12    1
    38    11     5    1
    39    33    34    1
    40    33    35    1
    41    34    36    1
    42    35    37    1
    43    37    43    1
    44    20    21   ar
    45    21    22   ar
@<TRIPOS>MOLECULE
UDP-glaA
 43 45 0 0 0
SMALL
GASTEIGER

@<TRIPOS>ATOM
      1 P          19.1826   73.4513   -2.1123 P.3     1  UNL1        0.2189
      2 O          18.2561   72.5084   -1.1797 O.3     1  UNL1       -0.4371
      3 O          18.5894   74.7884   -2.4477 O.2     1  UNL1       -0.5170
      4 O          19.5513   72.5095   -3.3743 O.3     1  UNL1       -0.3112
      5 C          18.9733   71.2173   -3.4470 C.3     1  UNL1        0.1811
      6 O          17.2553   71.8529   -5.0022 O.3     1  UNL1       -0.3308
      7 O          15.3662   70.3096   -3.2583 O.3     1  UNL1       -0.3794
      8 O          15.8288   68.5781   -5.3134 O.3     1  UNL1       -0.3779
      9 C          16.7278   70.0304   -3.5834 C.3     1  UNL1        0.1713
     10 C          16.8345   69.5210   -5.0052 C.3     1  UNL1        0.1895
     11 C          17.4731   71.3563   -3.6631 C.3     1  UNL1        0.1764
     12 C          16.7004   70.8022   -5.8106 C.3     1  UNL1        0.2383
     13 H          15.3517   70.6691   -2.3549 H       1  UNL1        0.2105
     14 H          15.9161   67.8410   -4.6847 H       1  UNL1        0.2106
     15 O          15.4712   70.5890   -8.3442 O.2     1  UNL1       -0.2464
     16 O          19.5346   70.5868  -10.5184 O.2     1  UNL1       -0.2670
     17 N          17.4127   70.7445   -7.0550 N.ar    1  UNL1       -0.2551
     18 N          17.4955   70.5875   -9.4251 N.ar    1  UNL1       -0.2743
     19 C          16.7005   70.6368   -8.2724 C.ar    1  UNL1        0.3323
     20 C          18.8023   70.7945   -7.0613 C.ar    1  UNL1        0.0869
     21 C          19.5458   70.7468   -8.1689 C.ar    1  UNL1        0.0795
     22 C          18.8798   70.6335   -9.4816 C.ar    1  UNL1        0.2626
     23 H          17.0049   70.5095  -10.3119 H       1  UNL1        0.1734
     24 O          20.5739   73.5187   -1.2907 O.3     1  UNL1       -0.2703
     25 P          21.6273   72.3592   -0.8927 P.3     1  UNL1        0.2208
     26 O          22.6557   72.3478   -2.1411 O.3     1  UNL1       -0.4371
     27 O          20.9964   71.0287   -0.5971 O.2     1  UNL1       -0.5170
     28 O          22.4767   72.9807    0.3304 O.3     1  UNL1       -0.2858
     29 O          24.4744   74.0428    1.0238 O.3     1  UNL1       -0.3226
     30 O          24.8127   70.3025    2.8057 O.3     1  UNL1       -0.3794
     31 O          23.7853   70.5617    0.0885 O.3     1  UNL1       -0.3775
     32 O          26.1732   72.7041    2.9108 O.3     1  UNL1       -0.3792
     33 C          24.1824   71.4779    2.3042 C.3     1  UNL1        0.1718
     34 C          24.4286   71.6151    0.7980 C.3     1  UNL1        0.1968
     35 C          24.7478   72.6955    3.0405 C.3     1  UNL1        0.1723
     36 C          23.9027   72.9603    0.2819 C.3     1  UNL1        0.2706
     37 C          24.1902   73.9748    2.4203 C.3     1  UNL1        0.1830
     38 H          24.6330   70.2578    3.7603 H       1  UNL1        0.2105
     39 H          23.9607   70.6956   -0.8582 H       1  UNL1        0.2106
     40 H          26.3992   72.9691    2.0031 H       1  UNL1        0.2106
     41 O          24.1556   75.5615    4.1481 O.co2   1  UNL1       -0.5466
     42 O          25.7881   75.7785    2.5717 O.co2   1  UNL1       -0.5466
     43 C          24.8148   75.1927    3.0233 C.2     1  UNL1        0.0799
@<TRIPOS>UNITY_ATOM_ATTR
41 1
charge -1
@<TRIPOS>BOND
     1     1     4    1
     2     1    24    1
     3     1     2    1
     4     1     3    2
     5    25    28    1
     6    25    24    1
     7    25    26    1
     8    25    27    2
     9     6    11    1
    10     6    12    1
    11    29    36    1
    12    29    37    1
    13     7     9    1
    14     7    13    1
    15     8    10    1
    16     8    14    1
    17     4     5    1
    18    28    36    1
    19    30    33    1
    20    30    38    1
    21    31    34    1
    22    31    39    1
    23    32    35    1
    24    32    40    1
    25    41    43   ar
    26    15    19    2
    27    42    43   ar
    28    16    22    2
    29    17    12    1
    30    17    19   ar
    31    17    20   ar
    32    18    19   ar
    33    18    22   ar
    34    18    23    1
    35     9    10    1
    36     9    11    1
    37    10    12    1
    38    11     5    1
    39    33    34    1
    40    33    35    1
    41    34    36    1
    42    35    37    1
    43    37    43    1
    44    20    21   ar
    45    21    22   ar
@<TRIPOS>MOLECULE
UDP-glaA
 43 45 0 0 0
SMALL
GASTEIGER

@<TRIPOS>ATOM
      1 P          23.6305   72.4980   -3.6661 P.3     1  UNL1        0.2189
      2 O          24.1988   71.0322   -3.2845 O.3     1  UNL1       -0.4371
      3 O          24.6755   73.5663   -3.8024 O.2     1  UNL1       -0.5170
      4 O          22.4850   72.7725   -2.5579 O.3     1  UNL1       -0.3112
      5 C          22.8770   72.9435   -1.2065 C.3     1  UNL1        0.1811
      6 O          23.9487   71.3792    0.2696 O.3     1  UNL1       -0.3308
      7 O          21.2130   70.2538    0.7599 O.3     1  UNL1       -0.3794
      8 O          21.6286   71.7938    2.9716 O.3     1  UNL1       -0.3779
      9 C          21.6073   71.6092    0.5475 C.3     1  UNL1        0.1713
     10 C          22.2963   72.1550    1.7803 C.3     1  UNL1        0.1895
     11 C          22.7345   71.6154   -0.4767 C.3     1  UNL1        0.1764
     12 C          23.6772   71.5309    1.6726 C.3     1  UNL1        0.2383
     13 H          20.8127   69.9354   -0.0671 H       1  UNL1        0.2105
     14 H          20.7205   72.1376    2.9139 H       1  UNL1        0.2106
     15 O          26.2776   70.6329    2.3109 O.2     1  UNL1       -0.2464
     16 O          27.5081   74.7706    3.9246 O.2     1  UNL1       -0.2670
     17 N          24.6972   72.3521    2.2597 N.ar    1  UNL1       -0.2551
     18 N          26.8884   72.6938    3.1145 N.ar    1  UNL1       -0.2743
     19 C          25.9702   71.8038    2.5419 C.ar    1  UNL1        0.3323
     20 C          24.4317   73.6857    2.5501 C.ar    1  UNL1        0.0869
     21 C          25.3180   74.5216    3.0955 C.ar    1  UNL1        0.0795
     22 C          26.6705   74.0279    3.4219 C.ar    1  UNL1        0.2626
     23 H          27.8101   72.3212    3.3265 H       1  UNL1        0.1734
     24 O          22.7757   72.2166   -5.0098 O.3     1  UNL1       -0.2703
     25 P          22.1110   73.2335   -6.0759 P.3     1  UNL1        0.2208
     26 O          22.9123   72.9128   -7.4439 O.3     1  UNL1       -0.4371
     27 O          22.1496   74.6757   -5.6583 O.2     1  UNL1       -0.5170
     28 O          20.6269   72.6513   -6.3259 O.3     1  UNL1       -0.2858
     29 O          19.6256   70.6330   -5.6026 O.3     1  UNL1       -0.3226
     30 O          17.8161   71.2279   -9.2973 O.3     1  UNL1       -0.3794
     31 O          20.6612   71.7590   -8.9384 O.3     1  UNL1       -0.3775
     32 O          17.4952   69.5061   -7.1614 O.3     1  UNL1       -0.3792
     33 C          18.4098   71.5597   -8.0452 C.3     1  UNL1        0.1718
     34 C          19.8581   71.0619   -7.9919 C.3     1  UNL1        0.1968
     35 C          17.5923   70.9141   -6.9230 C.3     1  UNL1        0.1723
     36 C          20.4495   71.2605   -6.5908 C.3     1  UNL1        0.2706
     37 C          18.2917   71.1387   -5.5842 C.3     1  UNL1        0.1830
     38 H          16.9019   71.5591   -9.2855 H       1  UNL1        0.2105
     39 H          21.5681   71.4178   -8.8614 H       1  UNL1        0.2106
     40 H          18.3555   69.0991   -6.9630 H       1  UNL1        0.2106
     41 O          18.4409   70.2063   -3.4365 O.co2   1  UNL1       -0.5466
     42 O          16.4269   70.0592   -4.4945 O.co2   1  UNL1       -0.5466
     43 C          17.5964   70.4147   -4.4754 C.2     1  UNL1        0.0799
@<TRIPOS>UNITY_ATOM_ATTR
41 1
charge -1
@<TRIPOS>BOND
     1     1     4    1
     2     1    24    1
     3     1     2    1
     4     1     3    2
     5    25    28    1
     6    25    24    1
     7    25    26    1
     8    25    27    2
     9     6    11    1
    10     6    12    1
    11    29    36    1
    12    29    37    1
    13     7     9    1
    14     7    13    1
    15     8    10    1
    16     8    14    1
    17     4     5    1
    18    28    36    1
    19    30    33    1
    20    30    38    1
    21    31    34    1
    22    31    39    1
    23    32    35    1
    24    32    40    1
    25    41    43   ar
    26    15    19    2
    27    42    43   ar
    28    16    22    2
    29    17    12    1
    30    17    19   ar
    31    17    20   ar
    32    18    19   ar
    33    18    22   ar
    34    18    23    1
    35     9    10    1
    36     9    11    1
    37    10    12    1
    38    11     5    1
    39    33    34    1
    40    33    35    1
    41    34    36    1
    42    35    37    1
    43    37    43    1
    44    20    21   ar
    45    21    22   ar
@<TRIPOS>MOLECULE
UDP-glaA
 43 45 0 0 0
SMALL
GASTEIGER

@<TRIPOS>ATOM
      1 P          20.8273   71.2086   -1.3592 P.3     1  UNL1        0.2189
      2 O          20.2230   72.6869   -1.6181 O.3     1  UNL1       -0.4371
      3 O          22.1489   70.9408   -2.0179 O.2     1  UNL1       -0.5170
      4 O          19.6204   70.2158   -1.7755 O.3     1  UNL1       -0.3112
      5 C          19.2458   70.1400   -3.1404 C.3     1  UNL1        0.1811
      6 O          17.6369   71.3017   -4.4954 O.3     1  UNL1       -0.3308
      7 O          15.5432   69.7654   -2.9963 O.3     1  UNL1       -0.3794
      8 O          15.7216   68.3922   -5.3454 O.3     1  UNL1       -0.3779
      9 C          16.8437   69.3495   -3.4127 C.3     1  UNL1        0.1713
     10 C          16.8623   69.1004   -4.9061 C.3     1  UNL1        0.1895
     11 C          17.7836   70.5402   -3.2766 C.3     1  UNL1        0.1764
     12 C          16.9221   70.5133   -5.4612 C.3     1  UNL1        0.2383
     13 H          15.5896   69.9504   -2.0428 H       1  UNL1        0.2105
     14 H          15.6981   67.5474   -4.8638 H       1  UNL1        0.2106
     15 O          19.7310   70.5933   -5.7421 O.2     1  UNL1       -0.2464
     16 O          19.4496   70.7685  -10.3386 O.2     1  UNL1       -0.2670
     17 N          17.6096   70.5794   -6.7191 N.ar    1  UNL1       -0.2551
     18 N          19.5890   70.6810   -8.0308 N.ar    1  UNL1       -0.2743
     19 C          19.0232   70.6163   -6.7506 C.ar    1  UNL1        0.3323
     20 C          16.8840   70.6073   -7.9050 C.ar    1  UNL1        0.0869
     21 C          17.4382   70.6686   -9.1178 C.ar    1  UNL1        0.0795
     22 C          18.9090   70.7113   -9.2384 C.ar    1  UNL1        0.2626
     23 H          20.6040   70.7091   -8.0776 H       1  UNL1        0.1734
     24 O          20.8451   71.1019    0.2543 O.3     1  UNL1       -0.2703
     25 P          22.0072   71.4380    1.3264 P.3     1  UNL1        0.2208
     26 O          22.9995   70.1661    1.2089 O.3     1  UNL1       -0.4371
     27 O          21.5045   71.7058    2.7161 O.2     1  UNL1       -0.5170
     28 O          22.8300   72.6600    0.6680 O.3     1  UNL1       -0.2858
     29 O          23.3431   74.2708    2.3238 O.3     1  UNL1       -0.3226
     30 O          24.8135   76.0674   -1.1244 O.3     1  UNL1       -0.3794
     31 O          22.2666   74.6469   -1.1644 O.3     1  UNL1       -0.3775
     32 O          24.9127   76.5597    1.5918 O.3     1  UNL1       -0.3792
     33 C          24.4736   75.0216   -0.2182 C.3     1  UNL1        0.1718
     34 C          22.9612   74.9980    0.0277 C.3     1  UNL1        0.1968
     35 C          25.2155   75.2494    1.1017 C.3     1  UNL1        0.1723
     36 C          22.6056   73.9916    1.1291 C.3     1  UNL1        0.2706
     37 C          24.7561   74.2208    2.1328 C.3     1  UNL1        0.1830
     38 H          25.7777   76.0463   -1.2483 H       1  UNL1        0.2105
     39 H          21.3168   74.6357   -0.9580 H       1  UNL1        0.2106
     40 H          24.0041   76.5578    1.9377 H       1  UNL1        0.2106
     41 O          26.5727   75.0733    3.3481 O.co2   1  UNL1       -0.5466
     42 O          24.8334   74.2150    4.5460 O.co2   1  UNL1       -0.5466
     43 C          25.3587   74.4855    3.4758 C.2     1  UNL1        0.0799
@<TRIPOS>UNITY_ATOM_ATTR
41 1
charge -1
@<TRIPOS>BOND
     1     1     4    1
     2     1    24    1
     3     1     2    1
     4     1     3    2
     5    25    28    1
     6    25    24    1
     7    25    26    1
     8    25    27    2
     9     6    11    1
    10     6    12    1
    11    29    36    1
    12    29    37    1
    13     7     9    1
    14     7    13    1
    15     8    10    1
    16     8    14    1
    17     4     5    1
    18    28    36    1
    19    30    33    1
    20    30    38    1
    21    31    34    1
    22    31    39    1
    23    32    35    1
    24    32    40    1
    25    41    43   ar
    26    15    19    2
    27    42    43   ar
    28    16    22    2
    29    17    12    1
    30    17    19   ar
    31    17    20   ar
    32    18    19   ar
    33    18    22   ar
    34    18    23    1
    35     9    10    1
    36     9    11    1
    37    10    12    1
    38    11     5    1
    39    33    34    1
    40    33    35    1
    41    34    36    1
    42    35    37    1
    43    37    43    1
    44    20    21   ar
    45    21    22   ar
@<TRIPOS>MOLECULE
UDP-glaA
 43 45 0 0 0
SMALL
GASTEIGER

@<TRIPOS>ATOM
      1 P          22.7699   71.6198   -3.3132 P.3     1  UNL1        0.2189
      2 O          24.0865   71.0311   -2.5801 O.3     1  UNL1       -0.4371
      3 O          23.0165   72.2336   -4.6602 O.2     1  UNL1       -0.5170
      4 O          22.1111   72.5968   -2.2054 O.3     1  UNL1       -0.3112
      5 C          22.2167   73.9983   -2.3897 C.3     1  UNL1        0.1811
      6 O          21.2874   73.7876   -0.1838 O.3     1  UNL1       -0.3308
      7 O          21.1682   76.7836   -0.1507 O.3     1  UNL1       -0.3794
      8 O          23.3983   76.2600    1.3285 O.3     1  UNL1       -0.3779
      9 C          22.1501   75.9251   -0.7308 C.3     1  UNL1        0.1713
     10 C          23.0185   75.3153    0.3494 C.3     1  UNL1        0.1895
     11 C          21.4338   74.7035   -1.2914 C.3     1  UNL1        0.1764
     12 C          22.1139   74.2290    0.9059 C.3     1  UNL1        0.2383
     13 H          20.6126   77.1192   -0.8748 H       1  UNL1        0.2105
     14 H          23.8778   76.9747    0.8752 H       1  UNL1        0.2106
     15 O          21.3287   72.6819    3.1342 O.2     1  UNL1       -0.2464
     16 O          25.0264   69.9549    2.7747 O.2     1  UNL1       -0.2670
     17 N          22.8520   73.1089    1.4159 N.ar    1  UNL1       -0.2551
     18 N          23.1708   71.3253    2.9540 N.ar    1  UNL1       -0.2743
     19 C          22.3713   72.3993    2.5412 C.ar    1  UNL1        0.3323
     20 C          24.0388   72.7236    0.8024 C.ar    1  UNL1        0.0869
     21 C          24.7894   71.6970    1.2078 C.ar    1  UNL1        0.0795
     22 C          24.3586   70.9044    2.3765 C.ar    1  UNL1        0.2626
     23 H          22.8450   70.8011    3.7616 H       1  UNL1        0.1734
     24 O          21.7644   70.3533   -3.3241 O.3     1  UNL1       -0.2703
     25 P          20.1598   70.2749   -3.5019 P.3     1  UNL1        0.2208
     26 O          19.6035   70.7066   -2.0458 O.3     1  UNL1       -0.4371
     27 O          19.6581   68.9453   -3.9881 O.2     1  UNL1       -0.5170
     28 O          19.7938   71.5177   -4.4639 O.3     1  UNL1       -0.2858
     29 O          18.8809   70.5450   -6.4183 O.3     1  UNL1       -0.3226
     30 O          18.4757   74.6081   -7.1968 O.3     1  UNL1       -0.3794
     31 O          20.8959   73.5746   -5.9395 O.3     1  UNL1       -0.3775
     32 O          17.6363   72.2494   -8.3637 O.3     1  UNL1       -0.3792
     33 C          18.5229   73.4042   -6.4362 C.3     1  UNL1        0.1718
     34 C          19.9058   72.7538   -6.5502 C.3     1  UNL1        0.1968
     35 C          17.4487   72.4461   -6.9584 C.3     1  UNL1        0.1723
     36 C          19.9147   71.3750   -5.8785 C.3     1  UNL1        0.2706
     37 C          17.5763   71.0981   -6.2522 C.3     1  UNL1        0.1830
     38 H          17.5840   74.9830   -7.0976 H       1  UNL1        0.2105
     39 H          21.7499   73.1190   -6.0279 H       1  UNL1        0.2106
     40 H          18.4122   71.6785   -8.4949 H       1  UNL1        0.2106
     41 O          16.6544   68.9464   -6.0963 O.co2   1  UNL1       -0.5466
     42 O          15.9264   70.2663   -7.8065 O.co2   1  UNL1       -0.5466
     43 C          16.6303   70.0898   -6.8227 C.2     1  UNL1        0.0799
@<TRIPOS>UNITY_ATOM_ATTR
41 1
charge -1
@<TRIPOS>BOND
     1     1     4    1
     2     1    24    1
     3     1     2    1
     4     1     3    2
     5    25    28    1
     6    25    24    1
     7    25    26    1
     8    25    27    2
     9     6    11    1
    10     6    12    1
    11    29    36    1
    12    29    37    1
    13     7     9    1
    14     7    13    1
    15     8    10    1
    16     8    14    1
    17     4     5    1
    18    28    36    1
    19    30    33    1
    20    30    38    1
    21    31    34    1
    22    31    39    1
    23    32    35    1
    24    32    40    1
    25    41    43   ar
    26    15    19    2
    27    42    43   ar
    28    16    22    2
    29    17    12    1
    30    17    19   ar
    31    17    20   ar
    32    18    19   ar
    33    18    22   ar
    34    18    23    1
    35     9    10    1
    36     9    11    1
    37    10    12    1
    38    11     5    1
    39    33    34    1
    40    33    35    1
    41    34    36    1
    42    35    37    1
    43    37    43    1
    44    20    21   ar
    45    21    22   ar
