@<TRIPOS>MOLECULE
UDP-glaA
 43 45 0 0 0
SMALL
GASTEIGER

@<TRIPOS>ATOM
      1 P          22.9991   71.6213   -2.4226 P.3     1  UNL1        0.2189
      2 O          23.3165   73.1134   -1.8838 O.3     1  UNL1       -0.4371
      3 O          24.1338   70.9537   -3.1428 O.2     1  UNL1       -0.5170
      4 O          21.6334   71.7957   -3.2712 O.3     1  UNL1       -0.3112
      5 C          20.8591   70.6424   -3.5532 C.3     1  UNL1        0.1811
      6 O          18.8425   71.5631   -4.4804 O.3     1  UNL1       -0.3308
      7 O          17.3951   70.1087   -2.2939 O.3     1  UNL1       -0.3794
      8 O          17.0010   68.4867   -4.4502 O.3     1  UNL1       -0.3779
      9 C          18.5503   69.7111   -3.0321 C.3     1  UNL1        0.1713
     10 C          18.1598   69.2945   -4.4344 C.3     1  UNL1        0.1895
     11 C          19.3923   70.9535   -3.2916 C.3     1  UNL1        0.1764
     12 C          17.9458   70.6361   -5.1144 C.3     1  UNL1        0.2383
     13 H          17.6980   70.4033   -1.4181 H       1  UNL1        0.2105
     14 H          17.1836   67.7022   -3.9049 H       1  UNL1        0.2106
     15 O          16.1018   69.8426   -7.1007 O.2     1  UNL1       -0.2464
     16 O          19.1726   70.5012  -10.4734 O.2     1  UNL1       -0.2670
     17 N          18.2364   70.5913   -6.5190 N.ar    1  UNL1       -0.2551
     18 N          17.6323   70.1706   -8.7788 N.ar    1  UNL1       -0.2743
     19 C          17.2401   70.1773   -7.4337 C.ar    1  UNL1        0.3323
     20 C          19.4975   70.9551   -6.9778 C.ar    1  UNL1        0.0869
     21 C          19.8559   70.9438   -8.2636 C.ar    1  UNL1        0.0795
     22 C          18.8745   70.5232   -9.2832 C.ar    1  UNL1        0.2626
     23 H          16.9324   69.8758   -9.4543 H       1  UNL1        0.1734
     24 O          22.5024   70.8526   -1.0893 O.3     1  UNL1       -0.2703
     25 P          21.5977   71.3581    0.1511 P.3     1  UNL1        0.2208
     26 O          21.4498   70.0331    1.0668 O.3     1  UNL1       -0.4371
     27 O          20.2923   71.9817   -0.2525 O.2     1  UNL1       -0.5170
     28 O          22.5687   72.3318    0.9954 O.3     1  UNL1       -0.2858
     29 O          24.3237   72.3685    2.5823 O.3     1  UNL1       -0.3226
     30 O          21.3606   74.5557    4.5099 O.3     1  UNL1       -0.3794
     31 O          20.6849   72.1502    3.0057 O.3     1  UNL1       -0.3775
     32 O          24.0275   73.9787    4.9398 O.3     1  UNL1       -0.3792
     33 C          22.1418   74.0482    3.4317 C.3     1  UNL1        0.1718
     34 C          22.0147   72.5232    3.3512 C.3     1  UNL1        0.1968
     35 C          23.6052   74.4410    3.6526 C.3     1  UNL1        0.1723
     36 C          22.9822   71.9518    2.3072 C.3     1  UNL1        0.2706
     37 C          24.4790   73.7868    2.5846 C.3     1  UNL1        0.1830
     38 H          21.4730   75.5215    4.5243 H       1  UNL1        0.2105
     39 H          20.6556   71.1798    2.9574 H       1  UNL1        0.2106
     40 H          24.1436   73.0144    4.8989 H       1  UNL1        0.2106
     41 O          26.5523   72.8993    3.2309 O.co2   1  UNL1       -0.5466
     42 O          26.4905   75.1168    2.7055 O.co2   1  UNL1       -0.5466
     43 C          25.9317   74.0375    2.8371 C.2     1  UNL1        0.0799
@<TRIPOS>UNITY_ATOM_ATTR
41 1
charge -1
@<TRIPOS>BOND
     1     1     4    1
     2     1    24    1
     3     1     2    1
     4     1     3    2
     5    25    28    1
     6    25    24    1
     7    25    26    1
     8    25    27    2
     9     6    11    1
    10     6    12    1
    11    29    36    1
    12    29    37    1
    13     7     9    1
    14     7    13    1
    15     8    10    1
    16     8    14    1
    17     4     5    1
    18    28    36    1
    19    30    33    1
    20    30    38    1
    21    31    34    1
    22    31    39    1
    23    32    35    1
    24    32    40    1
    25    41    43   ar
    26    15    19    2
    27    42    43   ar
    28    16    22    2
    29    17    12    1
    30    17    19   ar
    31    17    20   ar
    32    18    19   ar
    33    18    22   ar
    34    18    23    1
    35     9    10    1
    36     9    11    1
    37    10    12    1
    38    11     5    1
    39    33    34    1
    40    33    35    1
    41    34    36    1
    42    35    37    1
    43    37    43    1
    44    20    21   ar
    45    21    22   ar
@<TRIPOS>MOLECULE
UDP-glaA
 43 45 0 0 0
SMALL
GASTEIGER

@<TRIPOS>ATOM
      1 P          21.2648   72.5333   -4.5774 P.3     1  UNL1        0.2189
      2 O          21.4255   74.1227   -4.3217 O.3     1  UNL1       -0.4371
      3 O          21.9160   72.0247   -5.8302 O.2     1  UNL1       -0.5170
      4 O          19.6721   72.2787   -4.4599 O.3     1  UNL1       -0.3112
      5 C          19.2094   71.2848   -3.5613 C.3     1  UNL1        0.1811
      6 O          17.3184   71.5951   -5.0111 O.3     1  UNL1       -0.3308
      7 O          15.8190   69.8053   -3.1297 O.3     1  UNL1       -0.3794
      8 O          16.4332   68.1250   -5.1877 O.3     1  UNL1       -0.3779
      9 C          17.1855   69.7446   -3.5379 C.3     1  UNL1        0.1713
     10 C          17.2872   69.2264   -4.9569 C.3     1  UNL1        0.1895
     11 C          17.6964   71.1721   -3.6825 C.3     1  UNL1        0.1764
     12 C          16.8953   70.4494   -5.7685 C.3     1  UNL1        0.2383
     13 H          15.8010   70.1785   -2.2320 H       1  UNL1        0.2105
     14 H          16.6788   67.4269   -4.5564 H       1  UNL1        0.2106
     15 O          15.5211   70.7385   -8.2187 O.2     1  UNL1       -0.2464
     16 O          19.4343   70.5503  -10.6456 O.2     1  UNL1       -0.2670
     17 N          17.5298   70.4798   -7.0553 N.ar    1  UNL1       -0.2551
     18 N          17.4706   70.6441   -9.4256 N.ar    1  UNL1       -0.2743
     19 C          16.7485   70.6281   -8.2250 C.ar    1  UNL1        0.3323
     20 C          18.9122   70.3631   -7.1494 C.ar    1  UNL1        0.0869
     21 C          19.5860   70.3806   -8.3016 C.ar    1  UNL1        0.0795
     22 C          18.8447   70.5310   -9.5695 C.ar    1  UNL1        0.2626
     23 H          16.9294   70.7491  -10.2795 H       1  UNL1        0.1734
     24 O          21.8378   71.8866   -3.2104 O.3     1  UNL1       -0.2703
     25 P          23.3256   71.8887   -2.5787 P.3     1  UNL1        0.2208
     26 O          23.9549   73.2785   -3.1159 O.3     1  UNL1       -0.4371
     27 O          24.1381   70.6703   -2.9124 O.2     1  UNL1       -0.5170
     28 O          23.0988   72.1266   -0.9989 O.3     1  UNL1       -0.2858
     29 O          24.4037   71.1417    0.7118 O.3     1  UNL1       -0.3226
     30 O          20.8283   71.9219    2.6835 O.3     1  UNL1       -0.3794
     31 O          20.8215   70.8912   -0.0448 O.3     1  UNL1       -0.3775
     32 O          23.3622   71.0755    3.3857 O.3     1  UNL1       -0.3792
     33 C          21.9000   72.1063    1.7627 C.3     1  UNL1        0.1718
     34 C          21.9759   70.9265    0.7877 C.3     1  UNL1        0.1968
     35 C          23.2107   72.2243    2.5453 C.3     1  UNL1        0.1723
     36 C          23.2262   71.0303   -0.0944 C.3     1  UNL1        0.2706
     37 C          24.3863   72.2798    1.5722 C.3     1  UNL1        0.1830
     38 H          20.8197   72.6890    3.2810 H       1  UNL1        0.2105
     39 H          20.9187   70.1362   -0.6493 H       1  UNL1        0.2106
     40 H          23.5970   70.3141    2.8286 H       1  UNL1        0.2106
     41 O          26.2013   71.0087    2.3429 O.co2   1  UNL1       -0.5466
     42 O          26.2430   73.2467    2.7753 O.co2   1  UNL1       -0.5466
     43 C          25.6958   72.2648    2.2946 C.2     1  UNL1        0.0799
@<TRIPOS>UNITY_ATOM_ATTR
41 1
charge -1
@<TRIPOS>BOND
     1     1     4    1
     2     1    24    1
     3     1     2    1
     4     1     3    2
     5    25    28    1
     6    25    24    1
     7    25    26    1
     8    25    27    2
     9     6    11    1
    10     6    12    1
    11    29    36    1
    12    29    37    1
    13     7     9    1
    14     7    13    1
    15     8    10    1
    16     8    14    1
    17     4     5    1
    18    28    36    1
    19    30    33    1
    20    30    38    1
    21    31    34    1
    22    31    39    1
    23    32    35    1
    24    32    40    1
    25    41    43   ar
    26    15    19    2
    27    42    43   ar
    28    16    22    2
    29    17    12    1
    30    17    19   ar
    31    17    20   ar
    32    18    19   ar
    33    18    22   ar
    34    18    23    1
    35     9    10    1
    36     9    11    1
    37    10    12    1
    38    11     5    1
    39    33    34    1
    40    33    35    1
    41    34    36    1
    42    35    37    1
    43    37    43    1
    44    20    21   ar
    45    21    22   ar
@<TRIPOS>MOLECULE
UDP-glaA
 43 45 0 0 0
SMALL
GASTEIGER

@<TRIPOS>ATOM
      1 P          22.8711   71.5823   -2.4520 P.3     1  UNL1        0.2189
      2 O          22.7373   73.1748   -2.2003 O.3     1  UNL1       -0.4371
      3 O          24.0704   71.1666   -3.2526 O.2     1  UNL1       -0.5170
      4 O          21.4355   71.1629   -3.0673 O.3     1  UNL1       -0.3112
      5 C          20.8620   71.9847   -4.0698 C.3     1  UNL1        0.1811
      6 O          18.7188   72.3952   -5.0760 O.3     1  UNL1       -0.3308
      7 O          17.5353   71.1509   -2.6179 O.3     1  UNL1       -0.3794
      8 O          17.3945   69.1249   -4.4376 O.3     1  UNL1       -0.3779
      9 C          18.7353   70.8127   -3.3131 C.3     1  UNL1        0.1713
     10 C          18.4089   70.0937   -4.6050 C.3     1  UNL1        0.1895
     11 C          19.3657   72.1041   -3.8175 C.3     1  UNL1        0.1764
     12 C          17.9788   71.2401   -5.5044 C.3     1  UNL1        0.2383
     13 H          17.7918   71.6426   -1.8191 H       1  UNL1        0.2105
     14 H          17.7035   68.4902   -3.7684 H       1  UNL1        0.2106
     15 O          16.1351   70.1447   -7.3418 O.2     1  UNL1       -0.2464
     16 O          19.1891   70.3169  -10.7889 O.2     1  UNL1       -0.2670
     17 N          18.2652   70.9886   -6.8879 N.ar    1  UNL1       -0.2551
     18 N          17.6573   70.2307   -9.0570 N.ar    1  UNL1       -0.2743
     19 C          17.2694   70.4349   -7.7262 C.ar    1  UNL1        0.3323
     20 C          19.5217   71.2897   -7.4016 C.ar    1  UNL1        0.0869
     21 C          19.8759   71.0896   -8.6729 C.ar    1  UNL1        0.0795
     22 C          18.8948   70.5139   -9.6139 C.ar    1  UNL1        0.2626
     23 H          16.9576   69.8329   -9.6778 H       1  UNL1        0.1734
     24 O          22.8166   70.9730   -0.9550 O.3     1  UNL1       -0.2703
     25 P          21.8992   71.3655    0.3166 P.3     1  UNL1        0.2208
     26 O          21.6494   69.9440    1.0468 O.3     1  UNL1       -0.4371
     27 O          20.6437   72.1104   -0.0361 O.2     1  UNL1       -0.5170
     28 O          22.8924   72.1641    1.3065 O.3     1  UNL1       -0.2858
     29 O          22.1272   73.7128    2.9237 O.3     1  UNL1       -0.3226
     30 O          26.0787   74.8889    2.3925 O.3     1  UNL1       -0.3794
     31 O          24.4459   74.1055    0.1064 O.3     1  UNL1       -0.3775
     32 O          24.0136   75.5180    4.1158 O.3     1  UNL1       -0.3792
     33 C          24.9587   74.0125    2.4803 C.3     1  UNL1        0.1718
     34 C          23.9227   74.3599    1.4058 C.3     1  UNL1        0.1968
     35 C          24.3343   74.1445    3.8721 C.3     1  UNL1        0.1723
     36 C          22.6424   73.5380    1.5997 C.3     1  UNL1        0.2706
     37 C          23.0501   73.3207    3.9387 C.3     1  UNL1        0.1830
     38 H          26.7057   74.6345    3.0909 H       1  UNL1        0.2105
     39 H          23.7537   74.3305   -0.5378 H       1  UNL1        0.2106
     40 H          23.2322   75.7514    3.5866 H       1  UNL1        0.2106
     41 O          21.2840   74.3602    5.0807 O.co2   1  UNL1       -0.5466
     42 O          22.6530   73.0046    6.2993 O.co2   1  UNL1       -0.5466
     43 C          22.3373   73.5227    5.2380 C.2     1  UNL1        0.0799
@<TRIPOS>UNITY_ATOM_ATTR
41 1
charge -1
@<TRIPOS>BOND
     1     1     4    1
     2     1    24    1
     3     1     2    1
     4     1     3    2
     5    25    28    1
     6    25    24    1
     7    25    26    1
     8    25    27    2
     9     6    11    1
    10     6    12    1
    11    29    36    1
    12    29    37    1
    13     7     9    1
    14     7    13    1
    15     8    10    1
    16     8    14    1
    17     4     5    1
    18    28    36    1
    19    30    33    1
    20    30    38    1
    21    31    34    1
    22    31    39    1
    23    32    35    1
    24    32    40    1
    25    41    43   ar
    26    15    19    2
    27    42    43   ar
    28    16    22    2
    29    17    12    1
    30    17    19   ar
    31    17    20   ar
    32    18    19   ar
    33    18    22   ar
    34    18    23    1
    35     9    10    1
    36     9    11    1
    37    10    12    1
    38    11     5    1
    39    33    34    1
    40    33    35    1
    41    34    36    1
    42    35    37    1
    43    37    43    1
    44    20    21   ar
    45    21    22   ar
@<TRIPOS>MOLECULE
UDP-glaA
 43 45 0 0 0
SMALL
GASTEIGER

@<TRIPOS>ATOM
      1 P          22.0532   71.8034   -3.3924 P.3     1  UNL1        0.2189
      2 O          22.8094   72.3046   -4.7318 O.3     1  UNL1       -0.4371
      3 O          22.5373   70.4926   -2.8451 O.2     1  UNL1       -0.5170
      4 O          20.4852   71.8656   -3.7836 O.3     1  UNL1       -0.3112
      5 C          19.6862   70.7154   -3.5649 C.3     1  UNL1        0.1811
      6 O          17.9492   71.7327   -4.8773 O.3     1  UNL1       -0.3308
      7 O          16.0171   70.4118   -3.0028 O.3     1  UNL1       -0.3794
      8 O          15.9516   68.7706   -5.1795 O.3     1  UNL1       -0.3779
      9 C          17.2674   69.9320   -3.4970 C.3     1  UNL1        0.1713
     10 C          17.1325   69.5094   -4.9447 C.3     1  UNL1        0.1895
     11 C          18.2185   71.1172   -3.5983 C.3     1  UNL1        0.1764
     12 C          17.1379   70.8465   -5.6658 C.3     1  UNL1        0.2383
     13 H          16.1612   70.7066   -2.0874 H       1  UNL1        0.2105
     14 H          15.9759   67.9884   -4.6017 H       1  UNL1        0.2106
     15 O          15.6312   70.3329   -7.9985 O.2     1  UNL1       -0.2464
     16 O          19.3761   70.5160  -10.6782 O.2     1  UNL1       -0.2670
     17 N          17.6931   70.7552   -6.9859 N.ar    1  UNL1       -0.2551
     18 N          17.4971   70.4239   -9.3313 N.ar    1  UNL1       -0.2743
     19 C          16.8496   70.4927   -8.0906 C.ar    1  UNL1        0.3323
     20 C          19.0600   70.9250   -7.1762 C.ar    1  UNL1        0.0869
     21 C          19.6622   70.8569   -8.3656 C.ar    1  UNL1        0.0795
     22 C          18.8530   70.5854   -9.5702 C.ar    1  UNL1        0.2626
     23 H          16.9104   70.2355  -10.1396 H       1  UNL1        0.1734
     24 O          22.2267   73.0582   -2.3871 O.3     1  UNL1       -0.2703
     25 P          21.4070   74.4466   -2.2732 P.3     1  UNL1        0.2208
     26 O          19.9585   74.0740   -2.8888 O.3     1  UNL1       -0.4371
     27 O          22.0798   75.6152   -2.9346 O.2     1  UNL1       -0.5170
     28 O          21.1425   74.6368   -0.6927 O.3     1  UNL1       -0.2858
     29 O          20.6240   72.5383    0.2701 O.3     1  UNL1       -0.3226
     30 O          20.2347   75.1059    3.5159 O.3     1  UNL1       -0.3794
     31 O          19.2509   75.8858    0.8835 O.3     1  UNL1       -0.3775
     32 O          20.2353   72.3738    3.1092 O.3     1  UNL1       -0.3792
     33 C          20.7476   74.5882    2.2915 C.3     1  UNL1        0.1718
     34 C          19.6511   74.5620    1.2213 C.3     1  UNL1        0.1968
     35 C          21.2757   73.1719    2.5353 C.3     1  UNL1        0.1723
     36 C          20.1443   73.8498   -0.0443 C.3     1  UNL1        0.2706
     37 C          21.6992   72.5465    1.2080 C.3     1  UNL1        0.1830
     38 H          20.9604   75.1018    4.1631 H       1  UNL1        0.2105
     39 H          18.5647   75.8190    0.1983 H       1  UNL1        0.2106
     40 H          19.5866   72.1665    2.4154 H       1  UNL1        0.2106
     41 O          23.0653   71.0005    2.3249 O.co2   1  UNL1       -0.5466
     42 O          21.6267   70.1749    0.7609 O.co2   1  UNL1       -0.5466
     43 C          22.1008   71.1162    1.3804 C.2     1  UNL1        0.0799
@<TRIPOS>UNITY_ATOM_ATTR
41 1
charge -1
@<TRIPOS>BOND
     1     1     4    1
     2     1    24    1
     3     1     2    1
     4     1     3    2
     5    25    28    1
     6    25    24    1
     7    25    26    1
     8    25    27    2
     9     6    11    1
    10     6    12    1
    11    29    36    1
    12    29    37    1
    13     7     9    1
    14     7    13    1
    15     8    10    1
    16     8    14    1
    17     4     5    1
    18    28    36    1
    19    30    33    1
    20    30    38    1
    21    31    34    1
    22    31    39    1
    23    32    35    1
    24    32    40    1
    25    41    43   ar
    26    15    19    2
    27    42    43   ar
    28    16    22    2
    29    17    12    1
    30    17    19   ar
    31    17    20   ar
    32    18    19   ar
    33    18    22   ar
    34    18    23    1
    35     9    10    1
    36     9    11    1
    37    10    12    1
    38    11     5    1
    39    33    34    1
    40    33    35    1
    41    34    36    1
    42    35    37    1
    43    37    43    1
    44    20    21   ar
    45    21    22   ar
@<TRIPOS>MOLECULE
UDP-glaA
 43 45 0 0 0
SMALL
GASTEIGER

@<TRIPOS>ATOM
      1 P          20.9503   71.5216   -1.7584 P.3     1  UNL1        0.2189
      2 O          22.0940   70.9133   -0.7892 O.3     1  UNL1       -0.4371
      3 O          20.1161   72.6095   -1.1479 O.2     1  UNL1       -0.5170
      4 O          20.1407   70.2189   -2.2712 O.3     1  UNL1       -0.3112
      5 C          19.6501   70.2063   -3.6010 C.3     1  UNL1        0.1811
      6 O          17.9821   71.4156   -4.8377 O.3     1  UNL1       -0.3308
      7 O          15.9684   70.0960   -3.0502 O.3     1  UNL1       -0.3794
      8 O          15.8033   68.6111   -5.3314 O.3     1  UNL1       -0.3779
      9 C          17.1869   69.5729   -3.5789 C.3     1  UNL1        0.1713
     10 C          17.0279   69.2572   -5.0511 C.3     1  UNL1        0.1895
     11 C          18.2105   70.7004   -3.6034 C.3     1  UNL1        0.1764
     12 C          17.1179   70.6366   -5.6814 C.3     1  UNL1        0.2383
     13 H          16.1294   70.3194   -2.1176 H       1  UNL1        0.2105
     14 H          15.7778   67.7921   -4.8072 H       1  UNL1        0.2106
     15 O          15.5859   70.3681   -8.0385 O.2     1  UNL1       -0.2464
     16 O          19.3380   70.5027  -10.7109 O.2     1  UNL1       -0.2670
     17 N          17.6682   70.5992   -7.0062 N.ar    1  UNL1       -0.2551
     18 N          17.4554   70.4348   -9.3676 N.ar    1  UNL1       -0.2743
     19 C          16.8118   70.4605   -8.1233 C.ar    1  UNL1        0.3323
     20 C          19.0431   70.6991   -7.1888 C.ar    1  UNL1        0.0869
     21 C          19.6414   70.6734   -8.3817 C.ar    1  UNL1        0.0795
     22 C          18.8188   70.5303   -9.5993 C.ar    1  UNL1        0.2626
     23 H          16.8594   70.3352  -10.1850 H       1  UNL1        0.1734
     24 O          21.7861   71.9688   -3.0687 O.3     1  UNL1       -0.2703
     25 P          23.3190   72.4540   -3.2339 P.3     1  UNL1        0.2208
     26 O          24.1480   71.0653   -3.2512 O.3     1  UNL1       -0.4371
     27 O          23.7712   73.4331   -2.1886 O.2     1  UNL1       -0.5170
     28 O          23.4127   73.0045   -4.7479 O.3     1  UNL1       -0.2858
     29 O          22.0280   74.8253   -5.3534 O.3     1  UNL1       -0.3226
     30 O          23.2610   73.3990   -9.0581 O.3     1  UNL1       -0.3794
     31 O          22.5374   71.5478   -6.9238 O.3     1  UNL1       -0.3775
     32 O          21.8838   75.5993   -8.1137 O.3     1  UNL1       -0.3792
     33 C          23.3340   73.7187   -7.6715 C.3     1  UNL1        0.1718
     34 C          22.2681   72.9453   -6.8879 C.3     1  UNL1        0.1968
     35 C          23.1211   75.2251   -7.4988 C.3     1  UNL1        0.1723
     36 C          22.2247   73.4094   -5.4267 C.3     1  UNL1        0.2706
     37 C          23.0539   75.5668   -6.0119 C.3     1  UNL1        0.1830
     38 H          23.9501   73.9117   -9.5141 H       1  UNL1        0.2105
     39 H          21.8442   71.1021   -6.4083 H       1  UNL1        0.2106
     40 H          21.1534   75.2870   -7.5531 H       1  UNL1        0.2106
     41 O          22.0661   77.1767   -4.6203 O.co2   1  UNL1       -0.5466
     42 O          22.9921   77.9155   -6.5680 O.co2   1  UNL1       -0.5466
     43 C          22.7176   77.0081   -5.7962 C.2     1  UNL1        0.0799
@<TRIPOS>UNITY_ATOM_ATTR
41 1
charge -1
@<TRIPOS>BOND
     1     1     4    1
     2     1    24    1
     3     1     2    1
     4     1     3    2
     5    25    28    1
     6    25    24    1
     7    25    26    1
     8    25    27    2
     9     6    11    1
    10     6    12    1
    11    29    36    1
    12    29    37    1
    13     7     9    1
    14     7    13    1
    15     8    10    1
    16     8    14    1
    17     4     5    1
    18    28    36    1
    19    30    33    1
    20    30    38    1
    21    31    34    1
    22    31    39    1
    23    32    35    1
    24    32    40    1
    25    41    43   ar
    26    15    19    2
    27    42    43   ar
    28    16    22    2
    29    17    12    1
    30    17    19   ar
    31    17    20   ar
    32    18    19   ar
    33    18    22   ar
    34    18    23    1
    35     9    10    1
    36     9    11    1
    37    10    12    1
    38    11     5    1
    39    33    34    1
    40    33    35    1
    41    34    36    1
    42    35    37    1
    43    37    43    1
    44    20    21   ar
    45    21    22   ar
@<TRIPOS>MOLECULE
UDP-glaA
 43 45 0 0 0
SMALL
GASTEIGER

@<TRIPOS>ATOM
      1 P          21.7844   72.4282   -2.7275 P.3     1  UNL1        0.2189
      2 O          21.7014   74.0337   -2.9087 O.3     1  UNL1       -0.4371
      3 O          22.8826   71.7598   -3.5017 O.2     1  UNL1       -0.5170
      4 O          20.2841   71.9210   -3.0552 O.3     1  UNL1       -0.3112
      5 C          19.5289   72.6232   -4.0277 C.3     1  UNL1        0.1811
      6 O          17.5063   72.2125   -5.2585 O.3     1  UNL1       -0.3308
      7 O          16.5869   70.6578   -2.8649 O.3     1  UNL1       -0.3794
      8 O          17.3859   68.6939   -4.5797 O.3     1  UNL1       -0.3779
      9 C          17.8969   70.7692   -3.4209 C.3     1  UNL1        0.1713
     10 C          17.9955   69.9627   -4.6986 C.3     1  UNL1        0.1895
     11 C          18.0719   72.1942   -3.9292 C.3     1  UNL1        0.1764
     12 C          17.2836   70.8616   -5.6951 C.3     1  UNL1        0.2383
     13 H          16.5597   71.2203   -2.0722 H       1  UNL1        0.2105
     14 H          17.8269   68.2244   -3.8508 H       1  UNL1        0.2106
     15 O          15.6711   70.5101   -7.9868 O.2     1  UNL1       -0.2464
     16 O          19.3437   70.2957  -10.7625 O.2     1  UNL1       -0.2670
     17 N          17.7917   70.7120   -7.0288 N.ar    1  UNL1       -0.2551
     18 N          17.5010   70.4031   -9.3674 N.ar    1  UNL1       -0.2743
     19 C          16.8968   70.5400   -8.1107 C.ar    1  UNL1        0.3323
     20 C          19.1635   70.7361   -7.2547 C.ar    1  UNL1        0.0869
     21 C          19.7240   70.6047   -8.4590 C.ar    1  UNL1        0.0795
     22 C          18.8598   70.4202   -9.6416 C.ar    1  UNL1        0.2626
     23 H          16.8770   70.2777  -10.1598 H       1  UNL1        0.1734
     24 O          21.8859   72.2493   -1.1235 O.3     1  UNL1       -0.2703
     25 P          20.7387   72.0274   -0.0067 P.3     1  UNL1        0.2208
     26 O          21.0819   70.5647    0.5923 O.3     1  UNL1       -0.4371
     27 O          19.3369   72.1711   -0.5266 O.2     1  UNL1       -0.5170
     28 O          21.1184   73.0537    1.1792 O.3     1  UNL1       -0.2858
     29 O          21.2343   72.8176    3.5308 O.3     1  UNL1       -0.3226
     30 O          19.7564   76.6805    3.1151 O.3     1  UNL1       -0.3794
     31 O          18.7971   74.5336    1.3900 O.3     1  UNL1       -0.3775
     32 O          20.6831   75.0997    5.1821 O.3     1  UNL1       -0.3792
     33 C          20.5113   75.5118    2.8081 C.3     1  UNL1        0.1718
     34 C          19.5777   74.3219    2.5617 C.3     1  UNL1        0.1968
     35 C          21.4504   75.2072    3.9785 C.3     1  UNL1        0.1723
     36 C          20.3810   73.0253    2.4005 C.3     1  UNL1        0.2706
     37 C          22.1650   73.8803    3.7312 C.3     1  UNL1        0.1830
     38 H          20.3865   77.4057    3.2655 H       1  UNL1        0.2105
     39 H          18.2306   73.7529    1.2699 H       1  UNL1        0.2106
     40 H          20.1985   74.2571    5.1653 H       1  UNL1        0.2106
     41 O          24.2312   74.0286    4.8322 O.co2   1  UNL1       -0.5466
     42 O          22.6179   72.7561    5.8195 O.co2   1  UNL1       -0.5466
     43 C          22.9955   73.4784    4.9084 C.2     1  UNL1        0.0799
@<TRIPOS>UNITY_ATOM_ATTR
41 1
charge -1
@<TRIPOS>BOND
     1     1     4    1
     2     1    24    1
     3     1     2    1
     4     1     3    2
     5    25    28    1
     6    25    24    1
     7    25    26    1
     8    25    27    2
     9     6    11    1
    10     6    12    1
    11    29    36    1
    12    29    37    1
    13     7     9    1
    14     7    13    1
    15     8    10    1
    16     8    14    1
    17     4     5    1
    18    28    36    1
    19    30    33    1
    20    30    38    1
    21    31    34    1
    22    31    39    1
    23    32    35    1
    24    32    40    1
    25    41    43   ar
    26    15    19    2
    27    42    43   ar
    28    16    22    2
    29    17    12    1
    30    17    19   ar
    31    17    20   ar
    32    18    19   ar
    33    18    22   ar
    34    18    23    1
    35     9    10    1
    36     9    11    1
    37    10    12    1
    38    11     5    1
    39    33    34    1
    40    33    35    1
    41    34    36    1
    42    35    37    1
    43    37    43    1
    44    20    21   ar
    45    21    22   ar
@<TRIPOS>MOLECULE
UDP-glaA
 43 45 0 0 0
SMALL
GASTEIGER

@<TRIPOS>ATOM
      1 P          23.6892   73.5736   -3.9657 P.3     1  UNL1        0.2189
      2 O          22.6972   74.8216   -4.2412 O.3     1  UNL1       -0.4371
      3 O          25.1513   73.9116   -3.9824 O.2     1  UNL1       -0.5170
      4 O          23.2141   72.4551   -5.0328 O.3     1  UNL1       -0.3112
      5 C          21.8616   72.0314   -5.0131 C.3     1  UNL1        0.1811
      6 O          20.6169   70.3399   -6.1809 O.3     1  UNL1       -0.3308
      7 O          20.9130   72.0666   -8.6144 O.3     1  UNL1       -0.3794
      8 O          18.3670   72.6113   -7.8039 O.3     1  UNL1       -0.3779
      9 C          20.7292   72.4501   -7.2518 C.3     1  UNL1        0.1713
     10 C          19.2983   72.2004   -6.8244 C.3     1  UNL1        0.1895
     11 C          21.4986   71.4670   -6.3793 C.3     1  UNL1        0.1764
     12 C          19.2916   70.6969   -6.6066 C.3     1  UNL1        0.2383
     13 H          21.8505   72.2073   -8.8312 H       1  UNL1        0.2105
     14 H          18.5096   73.5602   -7.9635 H       1  UNL1        0.2106
     15 O          16.6097   69.9773   -7.1215 O.2     1  UNL1       -0.2464
     16 O          15.7792   69.1661   -2.6616 O.2     1  UNL1       -0.2670
     17 N          18.3527   70.2931   -5.5992 N.ar    1  UNL1       -0.2551
     18 N          16.1978   69.5744   -4.9003 N.ar    1  UNL1       -0.2743
     19 C          17.0288   69.9529   -5.9629 C.ar    1  UNL1        0.3323
     20 C          18.7468   70.2375   -4.2669 C.ar    1  UNL1        0.0869
     21 C          17.9427   69.8741   -3.2653 C.ar    1  UNL1        0.0795
     22 C          16.5441   69.5041   -3.5598 C.ar    1  UNL1        0.2626
     23 H          15.2413   69.3260   -5.1382 H       1  UNL1        0.1734
     24 O          23.1499   72.9858   -2.5590 O.3     1  UNL1       -0.2703
     25 P          21.7580   73.2262   -1.7733 P.3     1  UNL1        0.2208
     26 O          21.0399   71.7784   -1.8390 O.3     1  UNL1       -0.4371
     27 O          20.9298   74.3543   -2.3186 O.2     1  UNL1       -0.5170
     28 O          22.1859   73.4001   -0.2272 O.3     1  UNL1       -0.2858
     29 O          22.7455   71.4162    0.9350 O.3     1  UNL1       -0.3226
     30 O          22.3984   74.1699    4.0295 O.3     1  UNL1       -0.3794
     31 O          20.5006   74.1828    1.8149 O.3     1  UNL1       -0.3775
     32 O          23.2597   71.5598    3.7552 O.3     1  UNL1       -0.3792
     33 C          22.6942   73.6716    2.7278 C.3     1  UNL1        0.1718
     34 C          21.4251   73.1288    2.0621 C.3     1  UNL1        0.1968
     35 C          23.7390   72.5589    2.8491 C.3     1  UNL1        0.1723
     36 C          21.7612   72.4363    0.7355 C.3     1  UNL1        0.2706
     37 C          23.9646   71.9155    1.4827 C.3     1  UNL1        0.1830
     38 H          23.2288   74.5000    4.4130 H       1  UNL1        0.2105
     39 H          19.7201   73.7938    1.3857 H       1  UNL1        0.2106
     40 H          22.5603   71.0506    3.3116 H       1  UNL1        0.2106
     41 O          24.8263   70.1861    2.8133 O.co2   1  UNL1       -0.5466
     42 O          25.5850   70.3217    0.6679 O.co2   1  UNL1       -0.5466
     43 C          24.8817   70.7377    1.5771 C.2     1  UNL1        0.0799
@<TRIPOS>UNITY_ATOM_ATTR
41 1
charge -1
@<TRIPOS>BOND
     1     1     4    1
     2     1    24    1
     3     1     2    1
     4     1     3    2
     5    25    28    1
     6    25    24    1
     7    25    26    1
     8    25    27    2
     9     6    11    1
    10     6    12    1
    11    29    36    1
    12    29    37    1
    13     7     9    1
    14     7    13    1
    15     8    10    1
    16     8    14    1
    17     4     5    1
    18    28    36    1
    19    30    33    1
    20    30    38    1
    21    31    34    1
    22    31    39    1
    23    32    35    1
    24    32    40    1
    25    41    43   ar
    26    15    19    2
    27    42    43   ar
    28    16    22    2
    29    17    12    1
    30    17    19   ar
    31    17    20   ar
    32    18    19   ar
    33    18    22   ar
    34    18    23    1
    35     9    10    1
    36     9    11    1
    37    10    12    1
    38    11     5    1
    39    33    34    1
    40    33    35    1
    41    34    36    1
    42    35    37    1
    43    37    43    1
    44    20    21   ar
    45    21    22   ar
@<TRIPOS>MOLECULE
UDP-glaA
 43 45 0 0 0
SMALL
GASTEIGER

@<TRIPOS>ATOM
      1 P          23.3584   73.8965   -4.2456 P.3     1  UNL1        0.2189
      2 O          23.8130   75.1018   -5.2244 O.3     1  UNL1       -0.4371
      3 O          24.4198   72.8727   -3.9672 O.2     1  UNL1       -0.5170
      4 O          22.0010   73.3355   -4.9227 O.3     1  UNL1       -0.3112
      5 C          21.7336   71.9453   -4.8528 C.3     1  UNL1        0.1811
      6 O          20.4193   70.3435   -6.0699 O.3     1  UNL1       -0.3308
      7 O          20.7535   72.1497   -8.4400 O.3     1  UNL1       -0.3794
      8 O          18.2359   72.7518   -7.5827 O.3     1  UNL1       -0.3779
      9 C          20.5959   72.4876   -7.0621 C.3     1  UNL1        0.1713
     10 C          19.1611   72.2719   -6.6292 C.3     1  UNL1        0.1895
     11 C          21.3383   71.4460   -6.2352 C.3     1  UNL1        0.1764
     12 C          19.1035   70.7624   -6.4678 C.3     1  UNL1        0.2383
     13 H          21.6932   72.2658   -8.6612 H       1  UNL1        0.2105
     14 H          18.4103   73.7005   -7.7081 H       1  UNL1        0.2106
     15 O          16.5409   69.7134   -7.0228 O.2     1  UNL1       -0.2464
     16 O          15.5682   69.2297   -2.5441 O.2     1  UNL1       -0.2670
     17 N          18.1604   70.3537   -5.4664 N.ar    1  UNL1       -0.2551
     18 N          16.0580   69.4737   -4.7922 N.ar    1  UNL1       -0.2743
     19 C          16.8995   69.8406   -5.8507 C.ar    1  UNL1        0.3323
     20 C          18.4883   70.4633   -4.1196 C.ar    1  UNL1        0.0869
     21 C          17.6752   70.1087   -3.1222 C.ar    1  UNL1        0.0795
     22 C          16.3396   69.5645   -3.4379 C.ar    1  UNL1        0.2626
     23 H          15.1460   69.1028   -5.0449 H       1  UNL1        0.1734
     24 O          22.8159   74.6771   -2.9374 O.3     1  UNL1       -0.2703
     25 P          23.6078   75.4539   -1.7618 P.3     1  UNL1        0.2208
     26 O          22.8447   76.8775   -1.6782 O.3     1  UNL1       -0.4371
     27 O          25.0900   75.5569   -1.9815 O.2     1  UNL1       -0.5170
     28 O          23.1866   74.6845   -0.4074 O.3     1  UNL1       -0.2858
     29 O          21.9128   72.7105   -0.1237 O.3     1  UNL1       -0.3226
     30 O          20.9578   74.8631    3.3017 O.3     1  UNL1       -0.3794
     31 O          21.1778   76.2052    0.7217 O.3     1  UNL1       -0.3775
     32 O          20.5073   72.3106    2.3467 O.3     1  UNL1       -0.3792
     33 C          21.7489   74.3788    2.2200 C.3     1  UNL1        0.1718
     34 C          21.1310   74.7910    0.8797 C.3     1  UNL1        0.1968
     35 C          21.8316   72.8527    2.3115 C.3     1  UNL1        0.1723
     36 C          21.8764   74.1321   -0.2876 C.3     1  UNL1        0.2706
     37 C          22.5548   72.3035    1.0836 C.3     1  UNL1        0.1830
     38 H          21.3840   74.5773    4.1278 H       1  UNL1        0.2105
     39 H          20.7856   76.4170   -0.1421 H       1  UNL1        0.2106
     40 H          20.1217   72.3793    1.4569 H       1  UNL1        0.2106
     41 O          23.7966   70.3194    1.2427 O.co2   1  UNL1       -0.5466
     42 O          21.5495   70.1145    0.9174 O.co2   1  UNL1       -0.5466
     43 C          22.5452   70.8079    1.0663 C.2     1  UNL1        0.0799
@<TRIPOS>UNITY_ATOM_ATTR
41 1
charge -1
@<TRIPOS>BOND
     1     1     4    1
     2     1    24    1
     3     1     2    1
     4     1     3    2
     5    25    28    1
     6    25    24    1
     7    25    26    1
     8    25    27    2
     9     6    11    1
    10     6    12    1
    11    29    36    1
    12    29    37    1
    13     7     9    1
    14     7    13    1
    15     8    10    1
    16     8    14    1
    17     4     5    1
    18    28    36    1
    19    30    33    1
    20    30    38    1
    21    31    34    1
    22    31    39    1
    23    32    35    1
    24    32    40    1
    25    41    43   ar
    26    15    19    2
    27    42    43   ar
    28    16    22    2
    29    17    12    1
    30    17    19   ar
    31    17    20   ar
    32    18    19   ar
    33    18    22   ar
    34    18    23    1
    35     9    10    1
    36     9    11    1
    37    10    12    1
    38    11     5    1
    39    33    34    1
    40    33    35    1
    41    34    36    1
    42    35    37    1
    43    37    43    1
    44    20    21   ar
    45    21    22   ar
@<TRIPOS>MOLECULE
UDP-glaA
 43 45 0 0 0
SMALL
GASTEIGER

@<TRIPOS>ATOM
      1 P          22.9850   73.3110   -4.6619 P.3     1  UNL1        0.2189
      2 O          24.2022   72.3371   -4.2291 O.3     1  UNL1       -0.4371
      3 O          23.4048   74.6404   -5.2174 O.2     1  UNL1       -0.5170
      4 O          22.0424   73.3639   -3.3487 O.3     1  UNL1       -0.3112
      5 C          22.6411   73.1791   -2.0772 C.3     1  UNL1        0.1811
      6 O          23.3637   71.2945   -0.7733 O.3     1  UNL1       -0.3308
      7 O          20.4639   70.5577   -0.5745 O.3     1  UNL1       -0.3794
      8 O          20.9487   71.7250    1.8417 O.3     1  UNL1       -0.3779
      9 C          21.0687   71.8507   -0.5833 C.3     1  UNL1        0.1713
     10 C          21.7438   72.1237    0.7442 C.3     1  UNL1        0.1895
     11 C          22.2528   71.8089   -1.5403 C.3     1  UNL1        0.1764
     12 C          23.0209   71.3100    0.6222 C.3     1  UNL1        0.2383
     13 H          20.0792   70.4117   -1.4556 H       1  UNL1        0.2105
     14 H          20.1079   72.2109    1.7858 H       1  UNL1        0.2106
     15 O          24.8758   69.8173    2.1409 O.2     1  UNL1       -0.2464
     16 O          27.1516   73.6118    3.4297 O.2     1  UNL1       -0.2670
     17 N          24.1082   71.8818    1.3640 N.ar    1  UNL1       -0.2551
     18 N          26.0075   71.7078    2.7821 N.ar    1  UNL1       -0.2743
     19 C          24.9827   71.0441    2.0948 C.ar    1  UNL1        0.3323
     20 C          24.2996   73.2591    1.3627 C.ar    1  UNL1        0.0869
     21 C          25.2819   73.8767    2.0227 C.ar    1  UNL1        0.0795
     22 C          26.2380   73.0745    2.8112 C.ar    1  UNL1        0.2626
     23 H          26.6480   71.1255    3.3149 H       1  UNL1        0.1734
     24 O          22.1323   72.3928   -5.6842 O.3     1  UNL1       -0.2703
     25 P          20.8636   72.7468   -6.6210 P.3     1  UNL1        0.2208
     26 O          21.1360   71.8784   -7.9582 O.3     1  UNL1       -0.4371
     27 O          20.6687   74.2159   -6.8649 O.2     1  UNL1       -0.5170
     28 O          19.6128   72.0177   -5.9083 O.3     1  UNL1       -0.2858
     29 O          19.1670   69.8465   -5.0798 O.3     1  UNL1       -0.3226
     30 O          15.5950   70.8050   -6.9774 O.3     1  UNL1       -0.3794
     31 O          18.1525   71.5019   -8.1939 O.3     1  UNL1       -0.3775
     32 O          16.5129   68.7837   -5.3337 O.3     1  UNL1       -0.3792
     33 C          16.7969   71.0052   -6.2388 C.3     1  UNL1        0.1718
     34 C          18.0149   70.6196   -7.0851 C.3     1  UNL1        0.1968
     35 C          16.7475   70.1483   -4.9708 C.3     1  UNL1        0.1723
     36 C          19.2972   70.6675   -6.2451 C.3     1  UNL1        0.2706
     37 C          18.0841   70.2389   -4.2378 C.3     1  UNL1        0.1830
     38 H          14.8522   71.0588   -6.4035 H       1  UNL1        0.2105
     39 H          18.9393   71.2253   -8.6931 H       1  UNL1        0.2106
     40 H          17.3290   68.4217   -5.7185 H       1  UNL1        0.2106
     41 O          18.2699   68.0310   -3.4668 O.co2   1  UNL1       -0.5466
     42 O          18.0477   69.6650   -1.8928 O.co2   1  UNL1       -0.5466
     43 C          18.1269   69.3159   -3.0617 C.2     1  UNL1        0.0799
@<TRIPOS>UNITY_ATOM_ATTR
41 1
charge -1
@<TRIPOS>BOND
     1     1     4    1
     2     1    24    1
     3     1     2    1
     4     1     3    2
     5    25    28    1
     6    25    24    1
     7    25    26    1
     8    25    27    2
     9     6    11    1
    10     6    12    1
    11    29    36    1
    12    29    37    1
    13     7     9    1
    14     7    13    1
    15     8    10    1
    16     8    14    1
    17     4     5    1
    18    28    36    1
    19    30    33    1
    20    30    38    1
    21    31    34    1
    22    31    39    1
    23    32    35    1
    24    32    40    1
    25    41    43   ar
    26    15    19    2
    27    42    43   ar
    28    16    22    2
    29    17    12    1
    30    17    19   ar
    31    17    20   ar
    32    18    19   ar
    33    18    22   ar
    34    18    23    1
    35     9    10    1
    36     9    11    1
    37    10    12    1
    38    11     5    1
    39    33    34    1
    40    33    35    1
    41    34    36    1
    42    35    37    1
    43    37    43    1
    44    20    21   ar
    45    21    22   ar
@<TRIPOS>MOLECULE
UDP-glaA
 43 45 0 0 0
SMALL
GASTEIGER

@<TRIPOS>ATOM
      1 P          21.9259   72.4650   -5.9219 P.3     1  UNL1        0.2189
      2 O          21.2340   73.8792   -5.5498 O.3     1  UNL1       -0.4371
      3 O          23.0988   72.5597   -6.8533 O.2     1  UNL1       -0.5170
      4 O          20.6937   71.5511   -6.4340 O.3     1  UNL1       -0.3112
      5 C          20.0300   71.9182   -7.6315 C.3     1  UNL1        0.1811
      6 O          18.8105   69.9027   -7.1575 O.3     1  UNL1       -0.3308
      7 O          18.0394   69.9098  -10.0552 O.3     1  UNL1       -0.3794
      8 O          15.8070   70.9003   -8.8424 O.3     1  UNL1       -0.3779
      9 C          18.2142   71.0114   -9.1644 C.3     1  UNL1        0.1713
     10 C          17.0497   71.0971   -8.2003 C.3     1  UNL1        0.1895
     11 C          19.3747   70.6837   -8.2340 C.3     1  UNL1        0.1764
     12 C          17.3772   69.9920   -7.2106 C.3     1  UNL1        0.2383
     13 H          18.8256   69.8712  -10.6261 H       1  UNL1        0.2105
     14 H          15.7230   71.5807   -9.5325 H       1  UNL1        0.2106
     15 O          16.3581   68.0363   -5.4465 O.2     1  UNL1       -0.2464
     16 O          15.4839   71.1718   -2.1841 O.2     1  UNL1       -0.2670
     17 N          16.8773   70.2691   -5.8943 N.ar    1  UNL1       -0.2551
     18 N          15.9230   69.5990   -3.8233 N.ar    1  UNL1       -0.2743
     19 C          16.3867   69.2152   -5.0885 C.ar    1  UNL1        0.3323
     20 C          16.8760   71.5739   -5.4138 C.ar    1  UNL1        0.0869
     21 C          16.4310   71.9236   -4.2049 C.ar    1  UNL1        0.0795
     22 C          15.9012   70.8831   -3.3015 C.ar    1  UNL1        0.2626
     23 H          15.5651   68.8578   -3.2269 H       1  UNL1        0.1734
     24 O          22.2665   71.8355   -4.4717 O.3     1  UNL1       -0.2703
     25 P          23.3135   72.3030   -3.3324 P.3     1  UNL1        0.2208
     26 O          24.5700   72.8561   -4.1876 O.3     1  UNL1       -0.4371
     27 O          23.6627   71.2313   -2.3398 O.2     1  UNL1       -0.5170
     28 O          22.6490   73.6223   -2.6830 O.3     1  UNL1       -0.2858
     29 O          20.6308   72.5210   -2.1231 O.3     1  UNL1       -0.3226
     30 O          23.1694   71.2934    0.9311 O.3     1  UNL1       -0.3794
     31 O          23.2156   74.0517   -0.0152 O.3     1  UNL1       -0.3775
     32 O          20.6302   70.6505    0.0540 O.3     1  UNL1       -0.3792
     33 C          22.7673   71.6906   -0.3769 C.3     1  UNL1        0.1718
     34 C          22.1992   73.1136   -0.3523 C.3     1  UNL1        0.1968
     35 C          21.7065   70.7117   -0.8876 C.3     1  UNL1        0.1723
     36 C          21.6073   73.4858   -1.7174 C.3     1  UNL1        0.2706
     37 C          21.1601   71.2001   -2.2274 C.3     1  UNL1        0.1830
     38 H          23.5192   70.3883    0.8683 H       1  UNL1        0.2105
     39 H          22.8124   74.9361   -0.0214 H       1  UNL1        0.2106
     40 H          20.1124   71.4704   -0.0150 H       1  UNL1        0.2106
     41 O          18.9799   70.4211   -1.8484 O.co2   1  UNL1       -0.5466
     42 O          20.0409   69.6676   -3.7202 O.co2   1  UNL1       -0.5466
     43 C          20.0292   70.3440   -2.7020 C.2     1  UNL1        0.0799
@<TRIPOS>UNITY_ATOM_ATTR
41 1
charge -1
@<TRIPOS>BOND
     1     1     4    1
     2     1    24    1
     3     1     2    1
     4     1     3    2
     5    25    28    1
     6    25    24    1
     7    25    26    1
     8    25    27    2
     9     6    11    1
    10     6    12    1
    11    29    36    1
    12    29    37    1
    13     7     9    1
    14     7    13    1
    15     8    10    1
    16     8    14    1
    17     4     5    1
    18    28    36    1
    19    30    33    1
    20    30    38    1
    21    31    34    1
    22    31    39    1
    23    32    35    1
    24    32    40    1
    25    41    43   ar
    26    15    19    2
    27    42    43   ar
    28    16    22    2
    29    17    12    1
    30    17    19   ar
    31    17    20   ar
    32    18    19   ar
    33    18    22   ar
    34    18    23    1
    35     9    10    1
    36     9    11    1
    37    10    12    1
    38    11     5    1
    39    33    34    1
    40    33    35    1
    41    34    36    1
    42    35    37    1
    43    37    43    1
    44    20    21   ar
    45    21    22   ar
@<TRIPOS>MOLECULE
UDP-glaA
 43 45 0 0 0
SMALL
GASTEIGER

@<TRIPOS>ATOM
      1 P          22.8773   71.5276   -2.7363 P.3     1  UNL1        0.2189
      2 O          23.0609   73.1332   -2.6614 O.3     1  UNL1       -0.4371
      3 O          24.1517   70.7516   -2.8969 O.2     1  UNL1       -0.5170
      4 O          21.7737   71.3153   -3.8993 O.3     1  UNL1       -0.3112
      5 C          21.6513   72.3057   -4.9060 C.3     1  UNL1        0.1811
      6 O          20.5802   70.4615   -6.0131 O.3     1  UNL1       -0.3308
      7 O          20.9221   72.0271   -8.5475 O.3     1  UNL1       -0.3794
      8 O          18.3044   72.4677   -7.9240 O.3     1  UNL1       -0.3779
      9 C          20.6341   72.4937   -7.2296 C.3     1  UNL1        0.1713
     10 C          19.1969   72.1859   -6.8659 C.3     1  UNL1        0.1895
     11 C          21.4052   71.6246   -6.2447 C.3     1  UNL1        0.1764
     12 C          19.2645   70.7041   -6.5379 C.3     1  UNL1        0.2383
     13 H          21.8612   72.2104   -8.7211 H       1  UNL1        0.2105
     14 H          18.4009   73.4100   -8.1452 H       1  UNL1        0.2106
     15 O          16.6259   69.8986   -7.1413 O.2     1  UNL1       -0.2464
     16 O          15.6170   69.2336   -2.6940 O.2     1  UNL1       -0.2670
     17 N          18.2915   70.3147   -5.5576 N.ar    1  UNL1       -0.2551
     18 N          16.1251   69.5685   -4.9263 N.ar    1  UNL1       -0.2743
     19 C          16.9935   69.9279   -5.9654 C.ar    1  UNL1        0.3323
     20 C          18.6271   70.3186   -4.2082 C.ar    1  UNL1        0.0869
     21 C          17.7879   69.9727   -3.2295 C.ar    1  UNL1        0.0795
     22 C          16.4129   69.5570   -3.5703 C.ar    1  UNL1        0.2626
     23 H          15.1862   69.2874   -5.1960 H       1  UNL1        0.1734
     24 O          22.0512   71.1940   -1.3866 O.3     1  UNL1       -0.2703
     25 P          22.5382   71.0603    0.1488 P.3     1  UNL1        0.2208
     26 O          24.1464   70.9455    0.0193 O.3     1  UNL1       -0.4371
     27 O          21.8948   69.9321    0.9030 O.2     1  UNL1       -0.5170
     28 O          22.2831   72.5202    0.7873 O.3     1  UNL1       -0.2858
     29 O          23.1843   74.5824    1.5184 O.3     1  UNL1       -0.3226
     30 O          22.2060   72.7364    5.1121 O.3     1  UNL1       -0.3794
     31 O          23.4076   71.2062    2.9394 O.3     1  UNL1       -0.3775
     32 O          23.0588   75.2383    4.3099 O.3     1  UNL1       -0.3792
     33 C          22.1029   73.0952    3.7370 C.3     1  UNL1        0.1718
     34 C          23.3436   72.6282    2.9683 C.3     1  UNL1        0.1968
     35 C          21.9628   74.6162    3.6312 C.3     1  UNL1        0.1723
     36 C          23.3221   73.1576    1.5290 C.3     1  UNL1        0.2706
     37 C          21.9938   75.0335    2.1625 C.3     1  UNL1        0.1830
     38 H          21.4025   73.0531    5.5590 H       1  UNL1        0.2105
     39 H          24.2013   70.9584    2.4360 H       1  UNL1        0.2106
     40 H          23.8587   75.1309    3.7680 H       1  UNL1        0.2106
     41 O          22.8535   76.9096    1.0468 O.co2   1  UNL1       -0.5466
     42 O          21.3034   77.2898    2.6746 O.co2   1  UNL1       -0.5466
     43 C          21.9901   76.5220    2.0163 C.2     1  UNL1        0.0799
@<TRIPOS>UNITY_ATOM_ATTR
41 1
charge -1
@<TRIPOS>BOND
     1     1     4    1
     2     1    24    1
     3     1     2    1
     4     1     3    2
     5    25    28    1
     6    25    24    1
     7    25    26    1
     8    25    27    2
     9     6    11    1
    10     6    12    1
    11    29    36    1
    12    29    37    1
    13     7     9    1
    14     7    13    1
    15     8    10    1
    16     8    14    1
    17     4     5    1
    18    28    36    1
    19    30    33    1
    20    30    38    1
    21    31    34    1
    22    31    39    1
    23    32    35    1
    24    32    40    1
    25    41    43   ar
    26    15    19    2
    27    42    43   ar
    28    16    22    2
    29    17    12    1
    30    17    19   ar
    31    17    20   ar
    32    18    19   ar
    33    18    22   ar
    34    18    23    1
    35     9    10    1
    36     9    11    1
    37    10    12    1
    38    11     5    1
    39    33    34    1
    40    33    35    1
    41    34    36    1
    42    35    37    1
    43    37    43    1
    44    20    21   ar
    45    21    22   ar
@<TRIPOS>MOLECULE
UDP-glaA
 43 45 0 0 0
SMALL
GASTEIGER

@<TRIPOS>ATOM
      1 P          22.8316   71.6303   -2.5976 P.3     1  UNL1        0.2189
      2 O          23.0827   73.2268   -2.6708 O.3     1  UNL1       -0.4371
      3 O          24.0764   70.7923   -2.6164 O.2     1  UNL1       -0.5170
      4 O          21.7755   71.3469   -3.7892 O.3     1  UNL1       -0.3112
      5 C          21.5947   72.3398   -4.7846 C.3     1  UNL1        0.1811
      6 O          20.5559   70.4897   -5.9127 O.3     1  UNL1       -0.3308
      7 O          20.9227   72.0652   -8.4375 O.3     1  UNL1       -0.3794
      8 O          18.2923   72.4822   -7.8522 O.3     1  UNL1       -0.3779
      9 C          20.6110   72.5257   -7.1227 C.3     1  UNL1        0.1713
     10 C          19.1711   72.2050   -6.7816 C.3     1  UNL1        0.1895
     11 C          21.3745   71.6604   -6.1287 C.3     1  UNL1        0.1764
     12 C          19.2463   70.7228   -6.4565 C.3     1  UNL1        0.2383
     13 H          21.8627   72.2569   -8.5964 H       1  UNL1        0.2105
     14 H          18.3842   73.4259   -8.0695 H       1  UNL1        0.2106
     15 O          16.6342   69.8664   -7.1039 O.2     1  UNL1       -0.2464
     16 O          15.5533   69.2127   -2.6719 O.2     1  UNL1       -0.2670
     17 N          18.2619   70.3225   -5.4921 N.ar    1  UNL1       -0.2551
     18 N          16.0975   69.5419   -4.8964 N.ar    1  UNL1       -0.2743
     19 C          16.9789   69.9100   -5.9215 C.ar    1  UNL1        0.3323
     20 C          18.5718   70.3413   -4.1367 C.ar    1  UNL1        0.0869
     21 C          17.7205   69.9869   -3.1715 C.ar    1  UNL1        0.0795
     22 C          16.3598   69.5444   -3.5352 C.ar    1  UNL1        0.2626
     23 H          15.1691   69.2424   -5.1818 H       1  UNL1        0.1734
     24 O          21.9291   71.4661   -1.2658 O.3     1  UNL1       -0.2703
     25 P          22.3466   71.1800    0.2692 P.3     1  UNL1        0.2208
     26 O          23.9617   71.1171    0.2090 O.3     1  UNL1       -0.4371
     27 O          21.7006   69.9628    0.8666 O.2     1  UNL1       -0.5170
     28 O          22.0201   72.5567    1.0452 O.3     1  UNL1       -0.2858
     29 O          21.2211   73.0251    3.2227 O.3     1  UNL1       -0.3226
     30 O          19.3430   75.9598    0.9556 O.3     1  UNL1       -0.3794
     31 O          19.5789   73.2333   -0.0526 O.3     1  UNL1       -0.3775
     32 O          19.6362   75.3814    3.6406 O.3     1  UNL1       -0.3792
     33 C          20.3613   75.0492    1.3605 C.3     1  UNL1        0.1718
     34 C          19.8461   73.6075    1.2948 C.3     1  UNL1        0.1968
     35 C          20.7884   75.3881    2.7913 C.3     1  UNL1        0.1723
     36 C          20.8729   72.6360    1.8899 C.3     1  UNL1        0.2706
     37 C          21.7759   74.3376    3.2946 C.3     1  UNL1        0.1830
     38 H          19.7117   76.8576    1.0151 H       1  UNL1        0.2105
     39 H          19.2653   72.3133   -0.0450 H       1  UNL1        0.2106
     40 H          19.3660   74.4591    3.7873 H       1  UNL1        0.2106
     41 O          22.9211   73.5623    5.1897 O.co2   1  UNL1       -0.5466
     42 O          21.7408   75.5000    5.4106 O.co2   1  UNL1       -0.5466
     43 C          22.1211   74.5560    4.7334 C.2     1  UNL1        0.0799
@<TRIPOS>UNITY_ATOM_ATTR
41 1
charge -1
@<TRIPOS>BOND
     1     1     4    1
     2     1    24    1
     3     1     2    1
     4     1     3    2
     5    25    28    1
     6    25    24    1
     7    25    26    1
     8    25    27    2
     9     6    11    1
    10     6    12    1
    11    29    36    1
    12    29    37    1
    13     7     9    1
    14     7    13    1
    15     8    10    1
    16     8    14    1
    17     4     5    1
    18    28    36    1
    19    30    33    1
    20    30    38    1
    21    31    34    1
    22    31    39    1
    23    32    35    1
    24    32    40    1
    25    41    43   ar
    26    15    19    2
    27    42    43   ar
    28    16    22    2
    29    17    12    1
    30    17    19   ar
    31    17    20   ar
    32    18    19   ar
    33    18    22   ar
    34    18    23    1
    35     9    10    1
    36     9    11    1
    37    10    12    1
    38    11     5    1
    39    33    34    1
    40    33    35    1
    41    34    36    1
    42    35    37    1
    43    37    43    1
    44    20    21   ar
    45    21    22   ar
@<TRIPOS>MOLECULE
UDP-glaA
 43 45 0 0 0
SMALL
GASTEIGER

@<TRIPOS>ATOM
      1 P          21.7856   72.4419   -5.5424 P.3     1  UNL1        0.2189
      2 O          21.1051   73.8667   -5.1896 O.3     1  UNL1       -0.4371
      3 O          23.0557   72.5266   -6.3372 O.2     1  UNL1       -0.5170
      4 O          20.5868   71.5948   -6.2212 O.3     1  UNL1       -0.3112
      5 C          20.1423   71.9670   -7.5147 C.3     1  UNL1        0.1811
      6 O          18.9162   69.9350   -7.1384 O.3     1  UNL1       -0.3308
      7 O          18.1365   70.0903  -10.0296 O.3     1  UNL1       -0.3794
      8 O          15.9116   71.0273   -8.7616 O.3     1  UNL1       -0.3779
      9 C          18.3183   71.1452   -9.0852 C.3     1  UNL1        0.1713
     10 C          17.1571   71.1869   -8.1144 C.3     1  UNL1        0.1895
     11 C          19.4803   70.7667   -8.1762 C.3     1  UNL1        0.1764
     12 C          17.4831   70.0323   -7.1824 C.3     1  UNL1        0.2383
     13 H          18.9208   70.0774  -10.6043 H       1  UNL1        0.2105
     14 H          15.8284   71.7418   -9.4164 H       1  UNL1        0.2106
     15 O          16.2122   68.0546   -5.6176 O.2     1  UNL1       -0.2464
     16 O          15.6227   70.9630   -2.0917 O.2     1  UNL1       -0.2670
     17 N          16.9882   70.2450   -5.8523 N.ar    1  UNL1       -0.2551
     18 N          15.9190   69.5043   -3.8631 N.ar    1  UNL1       -0.2743
     19 C          16.3648   69.1855   -5.1526 C.ar    1  UNL1        0.3323
     20 C          17.1226   71.4930   -5.2540 C.ar    1  UNL1        0.0869
     21 C          16.6928   71.7810   -4.0235 C.ar    1  UNL1        0.0795
     22 C          16.0297   70.7304   -3.2258 C.ar    1  UNL1        0.2626
     23 H          15.4671   68.7580   -3.3416 H       1  UNL1        0.1734
     24 O          21.9446   71.7470   -4.0908 O.3     1  UNL1       -0.2703
     25 P          23.1164   71.8609   -2.9834 P.3     1  UNL1        0.2208
     26 O          23.6601   73.3725   -3.1726 O.3     1  UNL1       -0.4371
     27 O          24.1758   70.8023   -3.0964 O.2     1  UNL1       -0.5170
     28 O          22.3412   71.8799   -1.5682 O.3     1  UNL1       -0.2858
     29 O          23.9270   72.6846   -0.0070 O.3     1  UNL1       -0.3226
     30 O          20.5150   72.3008    2.3362 O.3     1  UNL1       -0.3794
     31 O          21.1879   70.2692    0.3548 O.3     1  UNL1       -0.3775
     32 O          23.0454   73.3666    2.6381 O.3     1  UNL1       -0.3792
     33 C          21.3027   72.5537    1.1761 C.3     1  UNL1        0.1718
     34 C          22.0805   71.2961    0.7737 C.3     1  UNL1        0.1968
     35 C          22.2753   73.6972    1.4776 C.3     1  UNL1        0.1723
     36 C          23.0592   71.6043   -0.3663 C.3     1  UNL1        0.2706
     37 C          23.2242   73.8886    0.2964 C.3     1  UNL1        0.1830
     38 H          20.0434   73.1224    2.5554 H       1  UNL1        0.2105
     39 H          21.7245   69.4993    0.1017 H       1  UNL1        0.2106
     40 H          23.6961   72.6869    2.3937 H       1  UNL1        0.2106
     41 O          24.9721   75.2238   -0.5198 O.co2   1  UNL1       -0.5466
     42 O          24.4813   75.3989    1.6995 O.co2   1  UNL1       -0.5466
     43 C          24.2752   74.9090    0.5986 C.2     1  UNL1        0.0799
@<TRIPOS>UNITY_ATOM_ATTR
41 1
charge -1
@<TRIPOS>BOND
     1     1     4    1
     2     1    24    1
     3     1     2    1
     4     1     3    2
     5    25    28    1
     6    25    24    1
     7    25    26    1
     8    25    27    2
     9     6    11    1
    10     6    12    1
    11    29    36    1
    12    29    37    1
    13     7     9    1
    14     7    13    1
    15     8    10    1
    16     8    14    1
    17     4     5    1
    18    28    36    1
    19    30    33    1
    20    30    38    1
    21    31    34    1
    22    31    39    1
    23    32    35    1
    24    32    40    1
    25    41    43   ar
    26    15    19    2
    27    42    43   ar
    28    16    22    2
    29    17    12    1
    30    17    19   ar
    31    17    20   ar
    32    18    19   ar
    33    18    22   ar
    34    18    23    1
    35     9    10    1
    36     9    11    1
    37    10    12    1
    38    11     5    1
    39    33    34    1
    40    33    35    1
    41    34    36    1
    42    35    37    1
    43    37    43    1
    44    20    21   ar
    45    21    22   ar
@<TRIPOS>MOLECULE
UDP-glaA
 43 45 0 0 0
SMALL
GASTEIGER

@<TRIPOS>ATOM
      1 P          22.5237   72.3263   -4.4191 P.3     1  UNL1        0.2189
      2 O          22.2677   71.0565   -3.4497 O.3     1  UNL1       -0.4371
      3 O          23.9600   72.7398   -4.5545 O.2     1  UNL1       -0.5170
      4 O          21.5168   73.4581   -3.8529 O.3     1  UNL1       -0.3112
      5 C          21.7837   74.0282   -2.5828 C.3     1  UNL1        0.1811
      6 O          20.9676   72.5590   -0.8654 O.3     1  UNL1       -0.3308
      7 O          18.9921   74.7195   -0.2165 O.3     1  UNL1       -0.3794
      8 O          20.8861   75.0437    1.7183 O.3     1  UNL1       -0.3779
      9 C          20.3492   74.8352   -0.6437 C.3     1  UNL1        0.1713
     10 C          21.2886   74.4769    0.4885 C.3     1  UNL1        0.1895
     11 C          20.6219   73.7231   -1.6480 C.3     1  UNL1        0.1764
     12 C          21.2139   72.9595    0.4926 C.3     1  UNL1        0.2383
     13 H          18.4288   74.9198   -0.9834 H       1  UNL1        0.2105
     14 H          20.8551   76.0086    1.5997 H       1  UNL1        0.2106
     15 O          21.5149   70.2065    1.0453 O.2     1  UNL1       -0.2464
     16 O          25.9376   70.7401    2.2258 O.2     1  UNL1       -0.2670
     17 N          22.4327   72.3519    0.9451 N.ar    1  UNL1       -0.2551
     18 N          23.7169   70.4741    1.6333 N.ar    1  UNL1       -0.2743
     19 C          22.4781   70.9604    1.1948 C.ar    1  UNL1        0.3323
     20 C          23.5668   73.1330    1.1374 C.ar    1  UNL1        0.0869
     21 C          24.7407   72.6544    1.5554 C.ar    1  UNL1        0.0795
     22 C          24.8724   71.2116    1.8395 C.ar    1  UNL1        0.2626
     23 H          23.7727   69.4765    1.8196 H       1  UNL1        0.1734
     24 O          21.8199   71.8735   -5.8028 O.3     1  UNL1       -0.2703
     25 P          21.0204   72.7307   -6.9157 P.3     1  UNL1        0.2208
     26 O          21.4996   72.0665   -8.3105 O.3     1  UNL1       -0.4371
     27 O          21.2415   74.2136   -6.8270 O.2     1  UNL1       -0.5170
     28 O          19.4807   72.2754   -6.7543 O.3     1  UNL1       -0.2858
     29 O          18.5879   70.3609   -5.6881 O.3     1  UNL1       -0.3226
     30 O          15.8318   71.0303   -8.7271 O.3     1  UNL1       -0.3794
     31 O          18.6895   71.3323   -9.2255 O.3     1  UNL1       -0.3775
     32 O          16.0201   69.3828   -6.5179 O.3     1  UNL1       -0.3792
     33 C          16.7862   71.3365   -7.7143 C.3     1  UNL1        0.1718
     34 C          18.1471   70.7223   -8.0591 C.3     1  UNL1        0.1968
     35 C          16.2849   70.7825   -6.3777 C.3     1  UNL1        0.1723
     36 C          19.1328   70.8990   -6.8974 C.3     1  UNL1        0.2706
     37 C          17.3575   70.9750   -5.3078 C.3     1  UNL1        0.1830
     38 H          14.9873   71.4357   -8.4666 H       1  UNL1        0.2105
     39 H          19.5522   70.9192   -9.3985 H       1  UNL1        0.2106
     40 H          16.8688   68.9104   -6.5585 H       1  UNL1        0.2106
     41 O          18.0440   69.7978   -3.3982 O.co2   1  UNL1       -0.5466
     42 O          15.8256   70.2936   -3.5704 O.co2   1  UNL1       -0.5466
     43 C          16.9632   70.3325   -4.0160 C.2     1  UNL1        0.0799
@<TRIPOS>UNITY_ATOM_ATTR
41 1
charge -1
@<TRIPOS>BOND
     1     1     4    1
     2     1    24    1
     3     1     2    1
     4     1     3    2
     5    25    28    1
     6    25    24    1
     7    25    26    1
     8    25    27    2
     9     6    11    1
    10     6    12    1
    11    29    36    1
    12    29    37    1
    13     7     9    1
    14     7    13    1
    15     8    10    1
    16     8    14    1
    17     4     5    1
    18    28    36    1
    19    30    33    1
    20    30    38    1
    21    31    34    1
    22    31    39    1
    23    32    35    1
    24    32    40    1
    25    41    43   ar
    26    15    19    2
    27    42    43   ar
    28    16    22    2
    29    17    12    1
    30    17    19   ar
    31    17    20   ar
    32    18    19   ar
    33    18    22   ar
    34    18    23    1
    35     9    10    1
    36     9    11    1
    37    10    12    1
    38    11     5    1
    39    33    34    1
    40    33    35    1
    41    34    36    1
    42    35    37    1
    43    37    43    1
    44    20    21   ar
    45    21    22   ar
@<TRIPOS>MOLECULE
UDP-glaA
 43 45 0 0 0
SMALL
GASTEIGER

@<TRIPOS>ATOM
      1 P          21.8966   72.4761   -5.7696 P.3     1  UNL1        0.2189
      2 O          21.2041   73.8877   -5.3887 O.3     1  UNL1       -0.4371
      3 O          23.1214   72.5836   -6.6301 O.2     1  UNL1       -0.5170
      4 O          20.6830   71.5991   -6.3808 O.3     1  UNL1       -0.3112
      5 C          20.1686   71.9492   -7.6544 C.3     1  UNL1        0.1811
      6 O          18.9657   69.9197   -7.1980 O.3     1  UNL1       -0.3308
      7 O          18.1052   70.0046  -10.0692 O.3     1  UNL1       -0.3794
      8 O          15.9108   70.9584   -8.7615 O.3     1  UNL1       -0.3779
      9 C          18.3068   71.0818   -9.1545 C.3     1  UNL1        0.1713
     10 C          17.1727   71.1395   -8.1530 C.3     1  UNL1        0.1895
     11 C          19.4957   70.7305   -8.2698 C.3     1  UNL1        0.1764
     12 C          17.5313   70.0083   -7.2044 C.3     1  UNL1        0.2383
     13 H          18.8734   69.9827  -10.6651 H       1  UNL1        0.2105
     14 H          15.8051   71.6573   -9.4298 H       1  UNL1        0.2106
     15 O          16.1980   68.0983   -5.6077 O.2     1  UNL1       -0.2464
     16 O          15.8131   71.0434   -2.0840 O.2     1  UNL1       -0.2670
     17 N          17.0722   70.2487   -5.8662 N.ar    1  UNL1       -0.2551
     18 N          16.0067   69.5663   -3.8543 N.ar    1  UNL1       -0.2743
     19 C          16.4126   69.2223   -5.1505 C.ar    1  UNL1        0.3323
     20 C          17.2767   71.4909   -5.2759 C.ar    1  UNL1        0.0869
     21 C          16.8842   71.8032   -4.0389 C.ar    1  UNL1        0.0795
     22 C          16.1873   70.7879   -3.2244 C.ar    1  UNL1        0.2626
     23 H          15.5299   68.8440   -3.3212 H       1  UNL1        0.1734
     24 O          22.1462   71.7935   -4.3250 O.3     1  UNL1       -0.2703
     25 P          23.3598   71.9578   -3.2702 P.3     1  UNL1        0.2208
     26 O          24.0575   73.3458   -3.7205 O.3     1  UNL1       -0.4371
     27 O          24.2939   70.7828   -3.2179 O.2     1  UNL1       -0.5170
     28 O          22.6390   72.2993   -1.8674 O.3     1  UNL1       -0.2858
     29 O          23.2411   70.8408   -0.1040 O.3     1  UNL1       -0.3226
     30 O          20.1177   73.0038    1.5827 O.3     1  UNL1       -0.3794
     31 O          19.9703   72.1038   -1.1875 O.3     1  UNL1       -0.3775
     32 O          21.9943   71.1763    2.4595 O.3     1  UNL1       -0.3792
     33 C          21.2594   72.7406    0.7719 C.3     1  UNL1        0.1718
     34 C          20.9449   71.6478   -0.2553 C.3     1  UNL1        0.1968
     35 C          22.4148   72.2958    1.6728 C.3     1  UNL1        0.1723
     36 C          22.2116   71.2368   -1.0163 C.3     1  UNL1        0.2706
     37 C          23.6033   71.8729    0.8121 C.3     1  UNL1        0.1830
     38 H          20.3628   73.6979    2.2181 H       1  UNL1        0.2105
     39 H          19.8111   71.3842   -1.8212 H       1  UNL1        0.2106
     40 H          21.9523   70.3933    1.8848 H       1  UNL1        0.2106
     41 O          24.6321   69.9565    1.6912 O.co2   1  UNL1       -0.5466
     42 O          25.5702   71.9687    2.2093 O.co2   1  UNL1       -0.5466
     43 C          24.7093   71.3084    1.6458 C.2     1  UNL1        0.0799
@<TRIPOS>UNITY_ATOM_ATTR
41 1
charge -1
@<TRIPOS>BOND
     1     1     4    1
     2     1    24    1
     3     1     2    1
     4     1     3    2
     5    25    28    1
     6    25    24    1
     7    25    26    1
     8    25    27    2
     9     6    11    1
    10     6    12    1
    11    29    36    1
    12    29    37    1
    13     7     9    1
    14     7    13    1
    15     8    10    1
    16     8    14    1
    17     4     5    1
    18    28    36    1
    19    30    33    1
    20    30    38    1
    21    31    34    1
    22    31    39    1
    23    32    35    1
    24    32    40    1
    25    41    43   ar
    26    15    19    2
    27    42    43   ar
    28    16    22    2
    29    17    12    1
    30    17    19   ar
    31    17    20   ar
    32    18    19   ar
    33    18    22   ar
    34    18    23    1
    35     9    10    1
    36     9    11    1
    37    10    12    1
    38    11     5    1
    39    33    34    1
    40    33    35    1
    41    34    36    1
    42    35    37    1
    43    37    43    1
    44    20    21   ar
    45    21    22   ar
@<TRIPOS>MOLECULE
UDP-glaA
 43 45 0 0 0
SMALL
GASTEIGER

@<TRIPOS>ATOM
      1 P          20.6351   73.2107   -1.9296 P.3     1  UNL1        0.2189
      2 O          20.0000   74.6985   -1.9074 O.3     1  UNL1       -0.4371
      3 O          19.6390   72.0995   -2.0890 O.2     1  UNL1       -0.5170
      4 O          21.5428   73.1545   -0.5923 O.3     1  UNL1       -0.3112
      5 C          22.1058   71.9118   -0.2074 C.3     1  UNL1        0.1811
      6 O          22.6965   70.9632    1.9199 O.3     1  UNL1       -0.3308
      7 O          20.2316   72.2953    2.9880 O.3     1  UNL1       -0.3794
      8 O          22.2173   73.9791    3.7989 O.3     1  UNL1       -0.3779
      9 C          21.1466   72.7535    1.9927 C.3     1  UNL1        0.1713
     10 C          22.4396   73.2069    2.6371 C.3     1  UNL1        0.1895
     11 C          21.6008   71.5472    1.1814 C.3     1  UNL1        0.1764
     12 C          23.1238   71.8841    2.9371 C.3     1  UNL1        0.2383
     13 H          19.4359   71.9796    2.5267 H       1  UNL1        0.2105
     14 H          21.6822   74.7492    3.5406 H       1  UNL1        0.2106
     15 O          24.8650   69.7326    2.3763 O.2     1  UNL1       -0.2464
     16 O          28.5984   72.3952    2.8358 O.2     1  UNL1       -0.2670
     17 N          24.5547   71.9868    2.9030 N.ar    1  UNL1       -0.2551
     18 N          26.7230   71.0598    2.6060 N.ar    1  UNL1       -0.2743
     19 C          25.3383   70.8457    2.6121 C.ar    1  UNL1        0.3323
     20 C          25.1682   73.2087    3.1563 C.ar    1  UNL1        0.0869
     21 C          26.4897   73.3967    3.1462 C.ar    1  UNL1        0.0795
     22 C          27.3792   72.2558    2.8521 C.ar    1  UNL1        0.2626
     23 H          27.3061   70.2532    2.3999 H       1  UNL1        0.1734
     24 O          21.7350   73.3038   -3.1114 O.3     1  UNL1       -0.2703
     25 P          22.0873   72.2838   -4.3148 P.3     1  UNL1        0.2208
     26 O          22.2283   70.8583   -3.5636 O.3     1  UNL1       -0.4371
     27 O          23.2882   72.6790   -5.1255 O.2     1  UNL1       -0.5170
     28 O          20.7199   72.1648   -5.1634 O.3     1  UNL1       -0.2858
     29 O          19.6831   70.0440   -5.3273 O.3     1  UNL1       -0.3226
     30 O          17.7910   72.1748   -8.3537 O.3     1  UNL1       -0.3794
     31 O          20.6585   72.4647   -7.9073 O.3     1  UNL1       -0.3775
     32 O          17.4806   69.7139   -7.1380 O.3     1  UNL1       -0.3792
     33 C          18.4275   71.9359   -7.1014 C.3     1  UNL1        0.1718
     34 C          19.8624   71.4429   -7.3167 C.3     1  UNL1        0.1968
     35 C          17.6232   70.8864   -6.3294 C.3     1  UNL1        0.1723
     36 C          20.4969   71.0202   -5.9858 C.3     1  UNL1        0.2706
     37 C          18.3646   70.5122   -5.0478 C.3     1  UNL1        0.1830
     38 H          16.8870   72.4820   -8.1694 H       1  UNL1        0.2105
     39 H          21.5574   72.1108   -8.0151 H       1  UNL1        0.2106
     40 H          18.3345   69.2496   -7.1621 H       1  UNL1        0.2106
     41 O          18.4356   68.9628   -3.2877 O.co2   1  UNL1       -0.5466
     42 O          16.5878   68.9337   -4.6225 O.co2   1  UNL1       -0.5466
     43 C          17.6800   69.3956   -4.3256 C.2     1  UNL1        0.0799
@<TRIPOS>UNITY_ATOM_ATTR
41 1
charge -1
@<TRIPOS>BOND
     1     1     4    1
     2     1    24    1
     3     1     2    1
     4     1     3    2
     5    25    28    1
     6    25    24    1
     7    25    26    1
     8    25    27    2
     9     6    11    1
    10     6    12    1
    11    29    36    1
    12    29    37    1
    13     7     9    1
    14     7    13    1
    15     8    10    1
    16     8    14    1
    17     4     5    1
    18    28    36    1
    19    30    33    1
    20    30    38    1
    21    31    34    1
    22    31    39    1
    23    32    35    1
    24    32    40    1
    25    41    43   ar
    26    15    19    2
    27    42    43   ar
    28    16    22    2
    29    17    12    1
    30    17    19   ar
    31    17    20   ar
    32    18    19   ar
    33    18    22   ar
    34    18    23    1
    35     9    10    1
    36     9    11    1
    37    10    12    1
    38    11     5    1
    39    33    34    1
    40    33    35    1
    41    34    36    1
    42    35    37    1
    43    37    43    1
    44    20    21   ar
    45    21    22   ar
@<TRIPOS>MOLECULE
UDP-glaA
 43 45 0 0 0
SMALL
GASTEIGER

@<TRIPOS>ATOM
      1 P          19.3484   71.9904   -1.5870 P.3     1  UNL1        0.2189
      2 O          19.2442   70.3775   -1.5160 O.3     1  UNL1       -0.4371
      3 O          18.2771   72.7275   -0.8380 O.2     1  UNL1       -0.5170
      4 O          19.4427   72.3055   -3.1705 O.3     1  UNL1       -0.3112
      5 C          20.4474   73.1958   -3.6254 C.3     1  UNL1        0.1811
      6 O          20.8422   71.2898   -5.0345 O.3     1  UNL1       -0.3308
      7 O          23.4197   72.6204   -5.7945 O.3     1  UNL1       -0.3794
      8 O          21.8107   73.1790   -7.9240 O.3     1  UNL1       -0.3779
      9 C          22.1483   73.2067   -5.5165 C.3     1  UNL1        0.1713
     10 C          21.1964   72.9679   -6.6695 C.3     1  UNL1        0.1895
     11 C          21.4975   72.4075   -4.3952 C.3     1  UNL1        0.1764
     12 C          20.7947   71.5189   -6.4524 C.3     1  UNL1        0.2383
     13 H          23.9820   72.7643   -5.0143 H       1  UNL1        0.2105
     14 H          22.1354   74.0957   -7.9403 H       1  UNL1        0.2106
     15 O          20.1861   69.6591   -8.4887 O.2     1  UNL1       -0.2464
     16 O          15.6713   70.5349   -8.1915 O.2     1  UNL1       -0.2670
     17 N          19.4692   71.2406   -6.9265 N.ar    1  UNL1       -0.2551
     18 N          17.9383   70.0968   -8.3397 N.ar    1  UNL1       -0.2743
     19 C          19.2716   70.2889   -7.9541 C.ar    1  UNL1        0.3323
     20 C          18.3812   71.9076   -6.3743 C.ar    1  UNL1        0.0869
     21 C          17.1160   71.7130   -6.7524 C.ar    1  UNL1        0.0795
     22 C          16.8235   70.7366   -7.8205 C.ar    1  UNL1        0.2626
     23 H          17.7725   69.4176   -9.0775 H       1  UNL1        0.1734
     24 O          20.8528   72.2794   -1.0691 O.3     1  UNL1       -0.2703
     25 P          21.8022   71.4529   -0.0552 P.3     1  UNL1        0.2208
     26 O          23.0826   71.0767   -0.9692 O.3     1  UNL1       -0.4371
     27 O          21.1338   70.2734    0.5911 O.2     1  UNL1       -0.5170
     28 O          22.3525   72.5588    0.9831 O.3     1  UNL1       -0.2858
     29 O          24.1101   72.6526    2.5647 O.3     1  UNL1       -0.3226
     30 O          21.0093   74.5338    4.5959 O.3     1  UNL1       -0.3794
     31 O          20.4992   72.1539    2.9891 O.3     1  UNL1       -0.3775
     32 O          23.7134   74.1325    4.9919 O.3     1  UNL1       -0.3792
     33 C          21.8183   74.1317    3.4941 C.3     1  UNL1        0.1718
     34 C          21.8008   72.6064    3.3467 C.3     1  UNL1        0.1968
     35 C          23.2509   74.6190    3.7276 C.3     1  UNL1        0.1723
     36 C          22.8004   72.1526    2.2756 C.3     1  UNL1        0.2706
     37 C          24.1629   74.0769    2.6291 C.3     1  UNL1        0.1830
     38 H          21.0520   75.5036    4.6526 H       1  UNL1        0.2105
     39 H          20.5394   71.1870    2.8982 H       1  UNL1        0.2106
     40 H          23.8983   73.1817    4.9081 H       1  UNL1        0.2106
     41 O          25.7051   75.6815    3.3713 O.co2   1  UNL1       -0.5466
     42 O          26.5422   73.6715    2.6958 O.co2   1  UNL1       -0.5466
     43 C          25.5953   74.4205    2.8880 C.2     1  UNL1        0.0799
@<TRIPOS>UNITY_ATOM_ATTR
41 1
charge -1
@<TRIPOS>BOND
     1     1     4    1
     2     1    24    1
     3     1     2    1
     4     1     3    2
     5    25    28    1
     6    25    24    1
     7    25    26    1
     8    25    27    2
     9     6    11    1
    10     6    12    1
    11    29    36    1
    12    29    37    1
    13     7     9    1
    14     7    13    1
    15     8    10    1
    16     8    14    1
    17     4     5    1
    18    28    36    1
    19    30    33    1
    20    30    38    1
    21    31    34    1
    22    31    39    1
    23    32    35    1
    24    32    40    1
    25    41    43   ar
    26    15    19    2
    27    42    43   ar
    28    16    22    2
    29    17    12    1
    30    17    19   ar
    31    17    20   ar
    32    18    19   ar
    33    18    22   ar
    34    18    23    1
    35     9    10    1
    36     9    11    1
    37    10    12    1
    38    11     5    1
    39    33    34    1
    40    33    35    1
    41    34    36    1
    42    35    37    1
    43    37    43    1
    44    20    21   ar
    45    21    22   ar
@<TRIPOS>MOLECULE
UDP-glaA
 43 45 0 0 0
SMALL
GASTEIGER

@<TRIPOS>ATOM
      1 P          23.4311   72.2997   -3.5508 P.3     1  UNL1        0.2189
      2 O          24.1844   70.9071   -3.2182 O.3     1  UNL1       -0.4371
      3 O          24.3043   73.3652   -4.1461 O.2     1  UNL1       -0.5170
      4 O          22.6970   72.6868   -2.1627 O.3     1  UNL1       -0.3112
      5 C          23.4593   72.6777   -0.9677 C.3     1  UNL1        0.1811
      6 O          24.4278   70.9855    0.4368 O.3     1  UNL1       -0.3308
      7 O          21.6139   70.2011    1.1134 O.3     1  UNL1       -0.3794
      8 O          22.3631   71.6659    3.2880 O.3     1  UNL1       -0.3779
      9 C          22.1563   71.4991    0.8714 C.3     1  UNL1        0.1713
     10 C          22.9885   71.9494    2.0535 C.3     1  UNL1        0.1895
     11 C          23.2043   71.3730   -0.2266 C.3     1  UNL1        0.1764
     12 C          24.2720   71.1613    1.8545 C.3     1  UNL1        0.2383
     13 H          21.1229   69.9389    0.3161 H       1  UNL1        0.2105
     14 H          21.5022   72.1188    3.2908 H       1  UNL1        0.2106
     15 O          24.3232   73.9025    2.5318 O.2     1  UNL1       -0.2464
     16 O          28.7432   73.6894    3.8192 O.2     1  UNL1       -0.2670
     17 N          25.4222   71.8479    2.3693 N.ar    1  UNL1       -0.2551
     18 N          26.5243   73.7947    3.1720 N.ar    1  UNL1       -0.2743
     19 C          25.3432   73.2263    2.6771 C.ar    1  UNL1        0.3323
     20 C          26.6126   71.1563    2.5643 C.ar    1  UNL1        0.0869
     21 C          27.7300   71.7124    3.0374 C.ar    1  UNL1        0.0795
     22 C          27.7322   73.1479    3.3826 C.ar    1  UNL1        0.2626
     23 H          26.4910   74.7848    3.3995 H       1  UNL1        0.1734
     24 O          22.2030   71.8313   -4.4928 O.3     1  UNL1       -0.2703
     25 P          20.6279   71.6588   -4.1736 P.3     1  UNL1        0.2208
     26 O          20.1034   73.1845   -4.0579 O.3     1  UNL1       -0.4371
     27 O          20.3326   70.8089   -2.9710 O.2     1  UNL1       -0.5170
     28 O          19.9892   71.1107   -5.5504 O.3     1  UNL1       -0.2858
     29 O          18.9557   71.7029   -7.5950 O.3     1  UNL1       -0.3226
     30 O          15.9534   69.5460   -5.6941 O.3     1  UNL1       -0.3794
     31 O          17.6049   71.4245   -4.1942 O.3     1  UNL1       -0.3775
     32 O          16.3677   70.6214   -8.2044 O.3     1  UNL1       -0.3792
     33 C          17.2731   69.9234   -6.0766 C.3     1  UNL1        0.1718
     34 C          17.5747   71.3535   -5.6158 C.3     1  UNL1        0.1968
     35 C          17.3938   69.8274   -7.5999 C.3     1  UNL1        0.1723
     36 C          18.9234   71.8295   -6.1696 C.3     1  UNL1        0.2706
     37 C          18.7540   70.3630   -8.0417 C.3     1  UNL1        0.1830
     38 H          15.8057   68.6374   -6.0076 H       1  UNL1        0.2105
     39 H          17.8080   72.3434   -3.9507 H       1  UNL1        0.2106
     40 H          16.6022   71.5593   -8.1019 H       1  UNL1        0.2106
     41 O          17.9684   69.5716  -10.1058 O.co2   1  UNL1       -0.5466
     42 O          19.6540   71.1056  -10.1556 O.co2   1  UNL1       -0.5466
     43 C          18.8661   70.4089   -9.5325 C.2     1  UNL1        0.0799
@<TRIPOS>UNITY_ATOM_ATTR
41 1
charge -1
@<TRIPOS>BOND
     1     1     4    1
     2     1    24    1
     3     1     2    1
     4     1     3    2
     5    25    28    1
     6    25    24    1
     7    25    26    1
     8    25    27    2
     9     6    11    1
    10     6    12    1
    11    29    36    1
    12    29    37    1
    13     7     9    1
    14     7    13    1
    15     8    10    1
    16     8    14    1
    17     4     5    1
    18    28    36    1
    19    30    33    1
    20    30    38    1
    21    31    34    1
    22    31    39    1
    23    32    35    1
    24    32    40    1
    25    41    43   ar
    26    15    19    2
    27    42    43   ar
    28    16    22    2
    29    17    12    1
    30    17    19   ar
    31    17    20   ar
    32    18    19   ar
    33    18    22   ar
    34    18    23    1
    35     9    10    1
    36     9    11    1
    37    10    12    1
    38    11     5    1
    39    33    34    1
    40    33    35    1
    41    34    36    1
    42    35    37    1
    43    37    43    1
    44    20    21   ar
    45    21    22   ar
@<TRIPOS>MOLECULE
UDP-glaA
 43 45 0 0 0
SMALL
GASTEIGER

@<TRIPOS>ATOM
      1 P          15.4097   71.5543   -1.5976 P.3     1  UNL1        0.2189
      2 O          15.1207   72.7414   -0.5372 O.3     1  UNL1       -0.4371
      3 O          14.7217   71.7077   -2.9225 O.2     1  UNL1       -0.5170
      4 O          15.0614   70.2051   -0.7768 O.3     1  UNL1       -0.3112
      5 C          13.7881   70.0948   -0.1637 C.3     1  UNL1        0.1811
      6 O          13.3640   67.7560    0.1891 O.3     1  UNL1       -0.3308
      7 O          11.0625   68.0789   -1.7057 O.3     1  UNL1       -0.3794
      8 O           9.8375   68.1123    0.7303 O.3     1  UNL1       -0.3779
      9 C          11.5670   68.9940   -0.7332 C.3     1  UNL1        0.1713
     10 C          11.1802   68.5457    0.6603 C.3     1  UNL1        0.1895
     11 C          13.0837   68.8577   -0.7024 C.3     1  UNL1        0.1764
     12 C          12.1705   67.4226    0.9170 C.3     1  UNL1        0.2383
     13 H          11.3674   68.3846   -2.5770 H       1  UNL1        0.2105
     14 H           9.2754   68.8540    0.4476 H       1  UNL1        0.2106
     15 O          12.1278   69.5422    2.7826 O.2     1  UNL1       -0.2464
     16 O          13.4364   66.7774    6.2296 O.2     1  UNL1       -0.2670
     17 N          12.4949   67.2849    2.3081 N.ar    1  UNL1       -0.2551
     18 N          12.7800   68.1642    4.4977 N.ar    1  UNL1       -0.2743
     19 C          12.4433   68.4125    3.1605 C.ar    1  UNL1        0.3323
     20 C          12.8596   66.0426    2.8151 C.ar    1  UNL1        0.0869
     21 C          13.1773   65.8220    4.0927 C.ar    1  UNL1        0.0795
     22 C          13.1492   66.9468    5.0486 C.ar    1  UNL1        0.2626
     23 H          12.7504   68.9604    5.1287 H       1  UNL1        0.1734
     24 O          17.0246   71.5245   -1.6768 O.3     1  UNL1       -0.2703
     25 P          18.0264   70.6071   -2.5529 P.3     1  UNL1        0.2208
     26 O          17.1072   69.3409   -2.9627 O.3     1  UNL1       -0.4371
     27 O          19.3032   70.2447   -1.8498 O.2     1  UNL1       -0.5170
     28 O          18.2319   71.4249   -3.9287 O.3     1  UNL1       -0.2858
     29 O          18.4660   70.3065   -6.0009 O.3     1  UNL1       -0.3226
     30 O          20.0754   74.0456   -6.8426 O.3     1  UNL1       -0.3794
     31 O          20.6368   72.7288   -4.3016 O.3     1  UNL1       -0.3775
     32 O          19.3908   71.7876   -8.2789 O.3     1  UNL1       -0.3792
     33 C          19.2182   73.0775   -6.2439 C.3     1  UNL1        0.1718
     34 C          20.0351   72.0793   -5.4165 C.3     1  UNL1        0.1968
     35 C          18.4548   72.3415   -7.3484 C.3     1  UNL1        0.1723
     36 C          19.1456   70.9370   -4.9102 C.3     1  UNL1        0.2706
     37 C          17.6379   71.2048   -6.7377 C.3     1  UNL1        0.1830
     38 H          19.5172   74.6534   -7.3570 H       1  UNL1        0.2105
     39 H          21.1338   72.0576   -3.8042 H       1  UNL1        0.2106
     40 H          19.8194   71.0191   -7.8656 H       1  UNL1        0.2106
     41 O          17.8746   69.5540   -8.3877 O.co2   1  UNL1       -0.5466
     42 O          15.7909   70.4278   -8.0848 O.co2   1  UNL1       -0.5466
     43 C          16.9772   70.3771   -7.7938 C.2     1  UNL1        0.0799
@<TRIPOS>UNITY_ATOM_ATTR
41 1
charge -1
@<TRIPOS>BOND
     1     1     4    1
     2     1    24    1
     3     1     2    1
     4     1     3    2
     5    25    28    1
     6    25    24    1
     7    25    26    1
     8    25    27    2
     9     6    11    1
    10     6    12    1
    11    29    36    1
    12    29    37    1
    13     7     9    1
    14     7    13    1
    15     8    10    1
    16     8    14    1
    17     4     5    1
    18    28    36    1
    19    30    33    1
    20    30    38    1
    21    31    34    1
    22    31    39    1
    23    32    35    1
    24    32    40    1
    25    41    43   ar
    26    15    19    2
    27    42    43   ar
    28    16    22    2
    29    17    12    1
    30    17    19   ar
    31    17    20   ar
    32    18    19   ar
    33    18    22   ar
    34    18    23    1
    35     9    10    1
    36     9    11    1
    37    10    12    1
    38    11     5    1
    39    33    34    1
    40    33    35    1
    41    34    36    1
    42    35    37    1
    43    37    43    1
    44    20    21   ar
    45    21    22   ar
@<TRIPOS>MOLECULE
UDP-glaA
 43 45 0 0 0
SMALL
GASTEIGER

@<TRIPOS>ATOM
      1 P          23.5449   72.3676   -3.3536 P.3     1  UNL1        0.2189
      2 O          24.1254   70.8785   -3.1029 O.3     1  UNL1       -0.4371
      3 O          24.5708   73.3885   -3.7504 O.2     1  UNL1       -0.5170
      4 O          22.7134   72.6939   -2.0053 O.3     1  UNL1       -0.3112
      5 C          23.4204   72.7927   -0.7807 C.3     1  UNL1        0.1811
      6 O          24.4699   71.2654    0.7490 O.3     1  UNL1       -0.3308
      7 O          21.7207   70.1845    1.2636 O.3     1  UNL1       -0.3794
      8 O          22.1438   71.7901    3.4267 O.3     1  UNL1       -0.3779
      9 C          22.1300   71.5283    1.0097 C.3     1  UNL1        0.1713
     10 C          22.8199   72.1062    2.2273 C.3     1  UNL1        0.1895
     11 C          23.2611   71.4901   -0.0095 C.3     1  UNL1        0.1764
     12 C          24.1946   71.4647    2.1454 C.3     1  UNL1        0.2383
     13 H          21.3203   69.8440    0.4455 H       1  UNL1        0.2105
     14 H          21.2396   72.1413    3.3542 H       1  UNL1        0.2106
     15 O          26.9086   70.7159    2.3669 O.2     1  UNL1       -0.2464
     16 O          28.0443   74.7266    4.3325 O.2     1  UNL1       -0.2670
     17 N          25.2209   72.2936    2.7102 N.ar    1  UNL1       -0.2551
     18 N          27.4722   72.7134    3.3460 N.ar    1  UNL1       -0.2743
     19 C          26.5532   71.8230    2.7753 C.ar    1  UNL1        0.3323
     20 C          24.9031   73.5584    3.1927 C.ar    1  UNL1        0.0869
     21 C          25.7908   74.3957    3.7335 C.ar    1  UNL1        0.0795
     22 C          27.2036   73.9805    3.8398 C.ar    1  UNL1        0.2626
     23 H          28.4361   72.3959    3.4037 H       1  UNL1        0.1734
     24 O          22.3800   72.1228   -4.4482 O.3     1  UNL1       -0.2703
     25 P          21.9429   72.9865   -5.7427 P.3     1  UNL1        0.2208
     26 O          22.8877   72.3993   -6.9168 O.3     1  UNL1       -0.4371
     27 O          22.0411   74.4732   -5.5530 O.2     1  UNL1       -0.5170
     28 O          20.4626   72.4572   -6.1066 O.3     1  UNL1       -0.2858
     29 O          19.3945   70.4103   -5.5883 O.3     1  UNL1       -0.3226
     30 O          17.7671   71.3260   -9.3022 O.3     1  UNL1       -0.3794
     31 O          20.6015   71.7686   -8.7767 O.3     1  UNL1       -0.3775
     32 O          17.3188   69.4515   -7.3235 O.3     1  UNL1       -0.3792
     33 C          18.3083   71.5478   -8.0029 C.3     1  UNL1        0.1718
     34 C          19.7438   71.0174   -7.9241 C.3     1  UNL1        0.1968
     35 C          17.4291   70.8346   -6.9719 C.3     1  UNL1        0.1723
     36 C          20.2736   71.0950   -6.4869 C.3     1  UNL1        0.2706
     37 C          18.0700   70.9407   -5.5898 C.3     1  UNL1        0.1830
     38 H          16.8592   71.6742   -9.3052 H       1  UNL1        0.2105
     39 H          21.4979   71.4038   -8.6863 H       1  UNL1        0.2106
     40 H          18.1619   69.0127   -7.1194 H       1  UNL1        0.2106
     41 O          16.5505   70.9615   -3.8025 O.co2   1  UNL1       -0.5466
     42 O          17.3646   68.9328   -4.4495 O.co2   1  UNL1       -0.5466
     43 C          17.3121   70.1479   -4.5729 C.2     1  UNL1        0.0799
@<TRIPOS>UNITY_ATOM_ATTR
41 1
charge -1
@<TRIPOS>BOND
     1     1     4    1
     2     1    24    1
     3     1     2    1
     4     1     3    2
     5    25    28    1
     6    25    24    1
     7    25    26    1
     8    25    27    2
     9     6    11    1
    10     6    12    1
    11    29    36    1
    12    29    37    1
    13     7     9    1
    14     7    13    1
    15     8    10    1
    16     8    14    1
    17     4     5    1
    18    28    36    1
    19    30    33    1
    20    30    38    1
    21    31    34    1
    22    31    39    1
    23    32    35    1
    24    32    40    1
    25    41    43   ar
    26    15    19    2
    27    42    43   ar
    28    16    22    2
    29    17    12    1
    30    17    19   ar
    31    17    20   ar
    32    18    19   ar
    33    18    22   ar
    34    18    23    1
    35     9    10    1
    36     9    11    1
    37    10    12    1
    38    11     5    1
    39    33    34    1
    40    33    35    1
    41    34    36    1
    42    35    37    1
    43    37    43    1
    44    20    21   ar
    45    21    22   ar
