@<TRIPOS>MOLECULE
*****
 43 45 0 0 0
SMALL
GASTEIGER

@<TRIPOS>ATOM
      1 P          21.7804   74.0226   -5.9541 P.3     1  UNL1        0.2189
      2 O          20.7363   74.7093   -4.9258 O.co2   1  UNL1       -0.4371
      3 O          22.8916   74.9169   -6.4200 O.2     1  UNL1       -0.5170
      4 O          20.8356   73.4118   -7.1169 O.3     1  UNL1       -0.3112
      5 C          21.3550   72.3831   -7.9393 C.3     1  UNL1        0.1811
      6 O          19.7343   70.6255   -8.1882 O.3     1  UNL1       -0.3308
      7 O          18.3352   72.4427  -10.1200 O.3     1  UNL1       -0.3794
      8 O          16.8595   72.7403   -7.8463 O.3     1  UNL1       -0.3779
      9 C          19.0400   72.7681   -8.9217 C.3     1  UNL1        0.1713
     10 C          18.2189   72.3827   -7.7095 C.3     1  UNL1        0.1895
     11 C          20.2338   71.8297   -8.8093 C.3     1  UNL1        0.1764
     12 C          18.4251   70.8786   -7.6541 C.3     1  UNL1        0.2383
     13 H          17.5679   73.0293  -10.2136 H       1  UNL1        0.2105
     14 H          16.7810   73.7072   -7.8766 H       1  UNL1        0.2106
     15 O          16.1824   69.5555   -6.5604 O.2     1  UNL1       -0.2464
     16 O          18.2871   68.9524   -2.5045 O.2     1  UNL1       -0.2670
     17 N          18.3600   70.3656   -6.3149 N.ar    1  UNL1       -0.2551
     18 N          17.2324   69.2573   -4.5411 N.ar    1  UNL1       -0.2743
     19 C          17.1861   69.7173   -5.8637 C.ar    1  UNL1        0.3323
     20 C          19.4504   70.5051   -5.4649 C.ar    1  UNL1        0.0869
     21 C          19.4798   70.0614   -4.2067 C.ar    1  UNL1        0.0795
     22 C          18.2932   69.3732   -3.6574 C.ar    1  UNL1        0.2626
     23 H          16.4259   68.8043   -4.2038 H       1  UNL1        0.1734
     24 O          22.2668   72.7061   -5.1521 O.3     1  UNL1       -0.2703
     25 P          23.1290   72.5490   -3.7936 P.3     1  UNL1        0.2208
     26 O          24.3216   73.6266   -3.9858 O.co2   1  UNL1       -0.4371
     27 O          23.5984   71.1493   -3.5206 O.2     1  UNL1       -0.5170
     28 O          22.1935   73.1784   -2.6400 O.3     1  UNL1       -0.2858
     29 O          21.4449   71.2424   -1.4995 O.3     1  UNL1       -0.3226
     30 O          20.1115   74.2549    0.9935 O.3     1  UNL1       -0.3794
     31 O          19.8676   74.5156   -1.9060 O.3     1  UNL1       -0.3775
     32 O          22.4442   72.6815    1.7242 O.3     1  UNL1       -0.3792
     33 C          20.9896   73.6326    0.0555 C.3     1  UNL1        0.1718
     34 C          20.2243   73.3156   -1.2295 C.3     1  UNL1        0.1968
     35 C          21.5226   72.3454    0.6888 C.3     1  UNL1        0.1723
     36 C          21.0644   72.4465   -2.1664 C.3     1  UNL1        0.2706
     37 C          22.2398   71.4745   -0.3387 C.3     1  UNL1        0.1830
     38 H          19.7603   75.0752    0.6128 H       1  UNL1        0.2105
     39 H          19.3346   75.0720   -1.3172 H       1  UNL1        0.2106
     40 H          22.0003   73.2360    2.3848 H       1  UNL1        0.2106
     41 O          23.7540   69.7207    0.0253 O.co2   1  UNL1       -0.5466
     42 O          21.6057   69.4008    0.7191 O.co2   1  UNL1       -0.5466
     43 C          22.4626   70.0974    0.1962 C.2     1  UNL1        0.0799
@<TRIPOS>UNITY_ATOM_ATTR
2 1
charge -1
26 1
charge -1
41 1
charge -1
@<TRIPOS>BOND
     1     1     4    1
     2     1    24    1
     3     1     2    1
     4     1     3    2
     5    25    28    1
     6    25    24    1
     7    25    26    1
     8    25    27    2
     9     6    11    1
    10     6    12    1
    11    29    36    1
    12    29    37    1
    13     7     9    1
    14     7    13    1
    15     8    10    1
    16     8    14    1
    17     4     5    1
    18    28    36    1
    19    30    33    1
    20    30    38    1
    21    31    34    1
    22    31    39    1
    23    32    35    1
    24    32    40    1
    25    41    43   ar
    26    15    19    2
    27    42    43   ar
    28    16    22    2
    29    17    12    1
    30    17    19   ar
    31    17    20   ar
    32    18    19   ar
    33    18    22   ar
    34    18    23    1
    35     9    10    1
    36     9    11    1
    37    10    12    1
    38    11     5    1
    39    33    34    1
    40    33    35    1
    41    34    36    1
    42    35    37    1
    43    37    43    1
    44    20    21   ar
    45    21    22   ar
@<TRIPOS>MOLECULE
*****
 43 45 0 0 0
SMALL
GASTEIGER

@<TRIPOS>ATOM
      1 P          22.3296   71.0804   -2.7609 P.3     1  UNL1        0.2189
      2 O          23.4508   71.8455   -3.6421 O.co2   1  UNL1       -0.4371
      3 O          21.9236   69.7336   -3.2834 O.2     1  UNL1       -0.5170
      4 O          21.1392   72.1669   -2.6186 O.3     1  UNL1       -0.3112
      5 C          20.4240   72.5425   -3.7813 C.3     1  UNL1        0.1811
      6 O          18.2555   72.4240   -4.8114 O.3     1  UNL1       -0.3308
      7 O          17.3592   71.0017   -2.3284 O.3     1  UNL1       -0.3794
      8 O          17.7093   68.9538   -4.0946 O.3     1  UNL1       -0.3779
      9 C          18.6134   70.9317   -3.0070 C.3     1  UNL1        0.1713
     10 C          18.4757   70.1254   -4.2810 C.3     1  UNL1        0.1895
     11 C          18.9362   72.3202   -3.5421 C.3     1  UNL1        0.1764
     12 C          17.8056   71.1203   -5.2131 C.3     1  UNL1        0.2383
     13 H          17.1316   70.1260   -1.9776 H       1  UNL1        0.2105
     14 H          18.1785   68.3527   -3.4941 H       1  UNL1        0.2106
     15 O          15.9609   70.4824   -7.2544 O.2     1  UNL1       -0.2464
     16 O          19.2761   70.3253  -10.4527 O.2     1  UNL1       -0.2670
     17 N          18.1595   70.9074   -6.5880 N.ar    1  UNL1       -0.2551
     18 N          17.6140   70.4037   -8.8452 N.ar    1  UNL1       -0.2743
     19 C          17.1562   70.5913   -7.5343 C.ar    1  UNL1        0.3323
     20 C          19.4863   71.0137   -6.9871 C.ar    1  UNL1        0.0869
     21 C          19.9073   70.8322   -8.2403 C.ar    1  UNL1        0.0795
     22 C          18.9227   70.4981   -9.2902 C.ar    1  UNL1        0.2626
     23 H          16.9340   70.1808   -9.5214 H       1  UNL1        0.1734
     24 O          22.9820   71.0602   -1.2821 O.3     1  UNL1       -0.2703
     25 P          22.3734   70.5905    0.1402 P.3     1  UNL1        0.2208
     26 O          23.4972   69.5713    0.7048 O.co2   1  UNL1       -0.4371
     27 O          20.9936   70.0048    0.0563 O.2     1  UNL1       -0.5170
     28 O          22.4920   71.8919    1.0860 O.3     1  UNL1       -0.2858
     29 O          21.7009   72.4815    3.2391 O.3     1  UNL1       -0.3226
     30 O          21.1291   75.9949    1.1422 O.3     1  UNL1       -0.3794
     31 O          20.4802   73.4205   -0.0767 O.3     1  UNL1       -0.3775
     32 O          23.3422   75.7551    3.0118 O.3     1  UNL1       -0.3792
     33 C          21.7743   74.7653    1.4735 C.3     1  UNL1        0.1718
     34 C          20.7904   73.6080    1.2992 C.3     1  UNL1        0.1968
     35 C          22.2406   74.8529    2.9283 C.3     1  UNL1        0.1723
     36 C          21.3692   72.3086    1.8608 C.3     1  UNL1        0.2706
     37 C          22.6848   73.4909    3.4540 C.3     1  UNL1        0.1830
     38 H          20.8241   75.9625    0.2217 H       1  UNL1        0.2105
     39 H          20.1127   74.2413   -0.4397 H       1  UNL1        0.2106
     40 H          23.0728   76.6259    2.6801 H       1  UNL1        0.2106
     41 O          23.9790   74.1196    5.3064 O.co2   1  UNL1       -0.5466
     42 O          22.0056   73.0581    5.7283 O.co2   1  UNL1       -0.5466
     43 C          22.8211   73.5152    4.9416 C.2     1  UNL1        0.0799
@<TRIPOS>UNITY_ATOM_ATTR
2 1
charge -1
26 1
charge -1
41 1
charge -1
@<TRIPOS>BOND
     1     1     4    1
     2     1    24    1
     3     1     2    1
     4     1     3    2
     5    25    28    1
     6    25    24    1
     7    25    26    1
     8    25    27    2
     9     6    11    1
    10     6    12    1
    11    29    36    1
    12    29    37    1
    13     7     9    1
    14     7    13    1
    15     8    10    1
    16     8    14    1
    17     4     5    1
    18    28    36    1
    19    30    33    1
    20    30    38    1
    21    31    34    1
    22    31    39    1
    23    32    35    1
    24    32    40    1
    25    41    43   ar
    26    15    19    2
    27    42    43   ar
    28    16    22    2
    29    17    12    1
    30    17    19   ar
    31    17    20   ar
    32    18    19   ar
    33    18    22   ar
    34    18    23    1
    35     9    10    1
    36     9    11    1
    37    10    12    1
    38    11     5    1
    39    33    34    1
    40    33    35    1
    41    34    36    1
    42    35    37    1
    43    37    43    1
    44    20    21   ar
    45    21    22   ar
@<TRIPOS>MOLECULE
*****
 43 45 0 0 0
SMALL
GASTEIGER

@<TRIPOS>ATOM
      1 P          22.9996   71.8570   -3.3991 P.3     1  UNL1        0.2189
      2 O          23.7129   72.9477   -4.3585 O.co2   1  UNL1       -0.4371
      3 O          23.7495   70.5670   -3.2395 O.2     1  UNL1       -0.5170
      4 O          21.5031   71.7299   -4.0008 O.3     1  UNL1       -0.3112
      5 C          20.6611   70.7039   -3.5081 C.3     1  UNL1        0.1811
      6 O          18.8731   71.8773   -4.6054 O.3     1  UNL1       -0.3308
      7 O          17.0859   70.7772   -2.4637 O.3     1  UNL1       -0.3794
      8 O          16.5709   69.1291   -4.5742 O.3     1  UNL1       -0.3779
      9 C          18.2065   70.1690   -3.1061 C.3     1  UNL1        0.1713
     10 C          17.8391   69.7476   -4.5131 C.3     1  UNL1        0.1895
     11 C          19.2473   71.2511   -3.3591 C.3     1  UNL1        0.1764
     12 C          17.8812   71.0701   -5.2595 C.3     1  UNL1        0.2383
     13 H          16.4073   70.1051   -2.2917 H       1  UNL1        0.2105
     14 H          16.5958   68.2914   -4.0847 H       1  UNL1        0.2106
     15 O          16.0589   70.4621   -7.3297 O.2     1  UNL1       -0.2464
     16 O          19.3904   70.4768  -10.5148 O.2     1  UNL1       -0.2670
     17 N          18.2454   70.9095   -6.6388 N.ar    1  UNL1       -0.2551
     18 N          17.7200   70.4690   -8.9139 N.ar    1  UNL1       -0.2743
     19 C          17.2529   70.6043   -7.5999 C.ar    1  UNL1        0.3323
     20 C          19.5715   71.0556   -7.0276 C.ar    1  UNL1        0.0869
     21 C          20.0015   70.9238   -8.2839 C.ar    1  UNL1        0.0795
     22 C          19.0284   70.6044   -9.3490 C.ar    1  UNL1        0.2626
     23 H          17.0477   70.2546   -9.6005 H       1  UNL1        0.1734
     24 O          22.7704   72.6770   -2.0251 O.3     1  UNL1       -0.2703
     25 P          22.5178   74.2514   -1.7582 P.3     1  UNL1        0.2208
     26 O          21.2792   74.5990   -2.7408 O.co2   1  UNL1       -0.4371
     27 O          23.7301   75.1130   -1.9628 O.2     1  UNL1       -0.5170
     28 O          21.8910   74.3193   -0.2733 O.3     1  UNL1       -0.2858
     29 O          21.1330   72.1140    0.1403 O.3     1  UNL1       -0.3226
     30 O          20.4558   73.9335    3.7871 O.3     1  UNL1       -0.3794
     31 O          19.8288   75.3275    1.2975 O.3     1  UNL1       -0.3775
     32 O          22.7101   72.1287    3.4531 O.3     1  UNL1       -0.3792
     33 C          21.1295   73.7065    2.5491 C.3     1  UNL1        0.1718
     34 C          20.1634   73.9475    1.3890 C.3     1  UNL1        0.1968
     35 C          21.6236   72.2581    2.5382 C.3     1  UNL1        0.1723
     36 C          20.7767   73.4948    0.0632 C.3     1  UNL1        0.2706
     37 C          22.1027   71.8434    1.1501 C.3     1  UNL1        0.1830
     38 H          20.1328   74.8479    3.8167 H       1  UNL1        0.2105
     39 H          19.4394   75.6216    2.1354 H       1  UNL1        0.2106
     40 H          22.4185   72.3898    4.3406 H       1  UNL1        0.2106
     41 O          23.3427   69.9583    1.7905 O.co2   1  UNL1       -0.5466
     42 O          21.5402   69.6075    0.4388 O.co2   1  UNL1       -0.5466
     43 C          22.2686   70.3609    1.0672 C.2     1  UNL1        0.0799
@<TRIPOS>UNITY_ATOM_ATTR
2 1
charge -1
26 1
charge -1
41 1
charge -1
@<TRIPOS>BOND
     1     1     4    1
     2     1    24    1
     3     1     2    1
     4     1     3    2
     5    25    28    1
     6    25    24    1
     7    25    26    1
     8    25    27    2
     9     6    11    1
    10     6    12    1
    11    29    36    1
    12    29    37    1
    13     7     9    1
    14     7    13    1
    15     8    10    1
    16     8    14    1
    17     4     5    1
    18    28    36    1
    19    30    33    1
    20    30    38    1
    21    31    34    1
    22    31    39    1
    23    32    35    1
    24    32    40    1
    25    41    43   ar
    26    15    19    2
    27    42    43   ar
    28    16    22    2
    29    17    12    1
    30    17    19   ar
    31    17    20   ar
    32    18    19   ar
    33    18    22   ar
    34    18    23    1
    35     9    10    1
    36     9    11    1
    37    10    12    1
    38    11     5    1
    39    33    34    1
    40    33    35    1
    41    34    36    1
    42    35    37    1
    43    37    43    1
    44    20    21   ar
    45    21    22   ar
@<TRIPOS>MOLECULE
*****
 43 45 0 0 0
SMALL
GASTEIGER

@<TRIPOS>ATOM
      1 P          22.8146   71.6978   -2.2376 P.3     1  UNL1        0.2189
      2 O          23.3820   73.2075   -2.3713 O.co2   1  UNL1       -0.4371
      3 O          23.4227   70.7062   -3.1856 O.2     1  UNL1       -0.5170
      4 O          21.2097   71.8755   -2.3408 O.3     1  UNL1       -0.3112
      5 C          20.5610   71.4790   -3.5351 C.3     1  UNL1        0.1811
      6 O          18.6172   72.2572   -4.7157 O.3     1  UNL1       -0.3308
      7 O          17.0117   71.0629   -2.4825 O.3     1  UNL1       -0.3794
      8 O          16.7849   69.1871   -4.4488 O.3     1  UNL1       -0.3779
      9 C          18.2206   70.5919   -3.0786 C.3     1  UNL1        0.1713
     10 C          17.9370   70.0040   -4.4447 C.3     1  UNL1        0.1895
     11 C          19.0766   71.8027   -3.4244 C.3     1  UNL1        0.1764
     12 C          17.7729   71.2509   -5.2968 C.3     1  UNL1        0.2383
     13 H          16.4482   70.3069   -2.2529 H       1  UNL1        0.2105
     14 H          16.9397   68.4070   -3.8926 H       1  UNL1        0.2106
     15 O          16.0404   70.3595   -7.3414 O.2     1  UNL1       -0.2464
     16 O          19.4032   70.4727  -10.4914 O.2     1  UNL1       -0.2670
     17 N          18.1694   71.0389   -6.6602 N.ar    1  UNL1       -0.2551
     18 N          17.7172   70.4158   -8.9081 N.ar    1  UNL1       -0.2743
     19 C          17.2212   70.5895   -7.6093 C.ar    1  UNL1        0.3323
     20 C          19.4831   71.2772   -7.0454 C.ar    1  UNL1        0.0869
     21 C          19.9410   71.1072   -8.2873 C.ar    1  UNL1        0.0795
     22 C          19.0149   70.6389   -9.3391 C.ar    1  UNL1        0.2626
     23 H          17.0761   70.1015   -9.5860 H       1  UNL1        0.1734
     24 O          23.0432   71.3614   -0.6732 O.3     1  UNL1       -0.2703
     25 P          22.1247   70.5538    0.3840 P.3     1  UNL1        0.2208
     26 O          23.2089   69.9051    1.3960 O.co2   1  UNL1       -0.4371
     27 O          21.1925   69.5587   -0.2443 O.2     1  UNL1       -0.5170
     28 O          21.3937   71.7010    1.2512 O.3     1  UNL1       -0.2858
     29 O          21.9416   74.0049    1.2851 O.3     1  UNL1       -0.3226
     30 O          20.2622   73.4850    5.0237 O.3     1  UNL1       -0.3794
     31 O          22.0967   71.4897    3.9339 O.3     1  UNL1       -0.3775
     32 O          18.7529   74.8010    2.9163 O.3     1  UNL1       -0.3792
     33 C          20.4408   73.2365    3.6293 C.3     1  UNL1        0.1718
     34 C          21.8762   72.7778    3.3710 C.3     1  UNL1        0.1968
     35 C          20.1542   74.5377    2.8765 C.3     1  UNL1        0.1723
     36 C          22.1716   72.7232    1.8715 C.3     1  UNL1        0.2706
     37 C          20.5919   74.4452    1.4176 C.3     1  UNL1        0.1830
     38 H          20.4391   72.6719    5.5225 H       1  UNL1        0.2105
     39 H          21.9109   71.5170    4.8853 H       1  UNL1        0.2106
     40 H          18.4614   74.8620    3.8394 H       1  UNL1        0.2106
     41 O          20.5382   76.7696    1.7276 O.co2   1  UNL1       -0.5466
     42 O          20.6988   76.0096   -0.4162 O.co2   1  UNL1       -0.5466
     43 C          20.6167   75.7983    0.7845 C.2     1  UNL1        0.0799
@<TRIPOS>UNITY_ATOM_ATTR
2 1
charge -1
26 1
charge -1
41 1
charge -1
@<TRIPOS>BOND
     1     1     4    1
     2     1    24    1
     3     1     2    1
     4     1     3    2
     5    25    28    1
     6    25    24    1
     7    25    26    1
     8    25    27    2
     9     6    11    1
    10     6    12    1
    11    29    36    1
    12    29    37    1
    13     7     9    1
    14     7    13    1
    15     8    10    1
    16     8    14    1
    17     4     5    1
    18    28    36    1
    19    30    33    1
    20    30    38    1
    21    31    34    1
    22    31    39    1
    23    32    35    1
    24    32    40    1
    25    41    43   ar
    26    15    19    2
    27    42    43   ar
    28    16    22    2
    29    17    12    1
    30    17    19   ar
    31    17    20   ar
    32    18    19   ar
    33    18    22   ar
    34    18    23    1
    35     9    10    1
    36     9    11    1
    37    10    12    1
    38    11     5    1
    39    33    34    1
    40    33    35    1
    41    34    36    1
    42    35    37    1
    43    37    43    1
    44    20    21   ar
    45    21    22   ar
@<TRIPOS>MOLECULE
*****
 43 45 0 0 0
SMALL
GASTEIGER

@<TRIPOS>ATOM
      1 P          21.6010   71.0265   -1.0400 P.3     1  UNL1        0.2189
      2 O          23.1761   70.9996   -0.6694 O.co2   1  UNL1       -0.4371
      3 O          20.8612   69.7526   -0.7543 O.2     1  UNL1       -0.5170
      4 O          21.5724   71.5257   -2.5788 O.3     1  UNL1       -0.3112
      5 C          20.7282   70.8505   -3.4930 C.3     1  UNL1        0.1811
      6 O          18.9134   71.9777   -4.5947 O.3     1  UNL1       -0.3308
      7 O          17.1619   70.8913   -2.4166 O.3     1  UNL1       -0.3794
      8 O          16.6519   69.1975   -4.4919 O.3     1  UNL1       -0.3779
      9 C          18.2855   70.2876   -3.0583 C.3     1  UNL1        0.1713
     10 C          17.9114   69.8353   -4.4539 C.3     1  UNL1        0.1895
     11 C          19.3080   71.3799   -3.3408 C.3     1  UNL1        0.1764
     12 C          17.9275   71.1443   -5.2247 C.3     1  UNL1        0.2383
     13 H          16.4949   70.2128   -2.2261 H       1  UNL1        0.2105
     14 H          16.6935   68.3694   -3.9875 H       1  UNL1        0.2106
     15 O          16.1029   70.4306   -7.2589 O.2     1  UNL1       -0.2464
     16 O          19.3967   70.4788  -10.4826 O.2     1  UNL1       -0.2670
     17 N          18.2813   70.9637   -6.6042 N.ar    1  UNL1       -0.2551
     18 N          17.7453   70.4543   -8.8624 N.ar    1  UNL1       -0.2743
     19 C          17.2886   70.6048   -7.5464 C.ar    1  UNL1        0.3323
     20 C          19.5976   71.1433   -7.0118 C.ar    1  UNL1        0.0869
     21 C          20.0178   70.9964   -8.2698 C.ar    1  UNL1        0.0795
     22 C          19.0438   70.6215   -9.3158 C.ar    1  UNL1        0.2626
     23 H          17.0727   70.2027   -9.5359 H       1  UNL1        0.1734
     24 O          21.0595   72.3159   -0.2295 O.3     1  UNL1       -0.2703
     25 P          21.6523   73.8144   -0.1005 P.3     1  UNL1        0.2208
     26 O          20.3996   74.7459   -0.5287 O.co2   1  UNL1       -0.4371
     27 O          22.9016   74.0532   -0.8982 O.2     1  UNL1       -0.5170
     28 O          21.8150   74.0551    1.4863 O.3     1  UNL1       -0.2858
     29 O          23.8398   74.0034    2.7138 O.3     1  UNL1       -0.3226
     30 O          21.0765   72.9714    5.6064 O.3     1  UNL1       -0.3794
     31 O          20.8884   71.8549    2.9134 O.3     1  UNL1       -0.3775
     32 O          22.2210   75.6434    5.5690 O.3     1  UNL1       -0.3792
     33 C          21.5483   73.6293    4.4306 C.3     1  UNL1        0.1718
     34 C          22.0033   72.5872    3.4087 C.3     1  UNL1        0.1968
     35 C          22.7194   74.5298    4.8302 C.3     1  UNL1        0.1723
     36 C          22.7247   73.2507    2.2348 C.3     1  UNL1        0.2706
     37 C          23.4643   75.0514    3.6048 C.3     1  UNL1        0.1830
     38 H          20.3319   72.3933    5.3770 H       1  UNL1        0.2105
     39 H          20.4259   71.4314    3.6531 H       1  UNL1        0.2106
     40 H          21.7445   75.3251    6.3516 H       1  UNL1        0.2106
     41 O          25.3456   74.9335    5.0006 O.co2   1  UNL1       -0.5466
     42 O          25.2801   76.6356    3.4848 O.co2   1  UNL1       -0.5466
     43 C          24.7780   75.6459    3.9960 C.2     1  UNL1        0.0799
@<TRIPOS>UNITY_ATOM_ATTR
2 1
charge -1
26 1
charge -1
41 1
charge -1
@<TRIPOS>BOND
     1     1     4    1
     2     1    24    1
     3     1     2    1
     4     1     3    2
     5    25    28    1
     6    25    24    1
     7    25    26    1
     8    25    27    2
     9     6    11    1
    10     6    12    1
    11    29    36    1
    12    29    37    1
    13     7     9    1
    14     7    13    1
    15     8    10    1
    16     8    14    1
    17     4     5    1
    18    28    36    1
    19    30    33    1
    20    30    38    1
    21    31    34    1
    22    31    39    1
    23    32    35    1
    24    32    40    1
    25    41    43   ar
    26    15    19    2
    27    42    43   ar
    28    16    22    2
    29    17    12    1
    30    17    19   ar
    31    17    20   ar
    32    18    19   ar
    33    18    22   ar
    34    18    23    1
    35     9    10    1
    36     9    11    1
    37    10    12    1
    38    11     5    1
    39    33    34    1
    40    33    35    1
    41    34    36    1
    42    35    37    1
    43    37    43    1
    44    20    21   ar
    45    21    22   ar
@<TRIPOS>MOLECULE
*****
 43 45 0 0 0
SMALL
GASTEIGER

@<TRIPOS>ATOM
      1 P          22.7831   73.6370   -4.1531 P.3     1  UNL1        0.2189
      2 O          22.0758   74.8722   -3.3832 O.co2   1  UNL1       -0.4371
      3 O          24.1875   73.3389   -3.7165 O.2     1  UNL1       -0.5170
      4 O          22.5958   73.9970   -5.7194 O.3     1  UNL1       -0.3112
      5 C          22.3994   72.9375   -6.6379 C.3     1  UNL1        0.1811
      6 O          21.1417   72.6297   -8.6630 O.3     1  UNL1       -0.3308
      7 O          21.5877   75.5522   -9.1643 O.3     1  UNL1       -0.3794
      8 O          19.0331   75.4941   -8.2122 O.3     1  UNL1       -0.3779
      9 C          21.3663   74.8707   -7.9294 C.3     1  UNL1        0.1713
     10 C          19.9125   74.4657   -7.8077 C.3     1  UNL1        0.1895
     11 C          22.0676   73.5214   -8.0051 C.3     1  UNL1        0.1764
     12 C          19.8469   73.2494   -8.7155 C.3     1  UNL1        0.2383
     13 H          21.1489   76.4174   -9.1398 H       1  UNL1        0.2105
     14 H          19.1121   76.2453   -7.6029 H       1  UNL1        0.2106
     15 O          19.0139   71.0216  -10.2385 O.2     1  UNL1       -0.2464
     16 O          16.0435   69.6750   -6.9816 O.2     1  UNL1       -0.2670
     17 N          18.8575   72.3004   -8.2895 N.ar    1  UNL1       -0.2551
     18 N          17.5346   70.3536   -8.6154 N.ar    1  UNL1       -0.2743
     19 C          18.5109   71.2165   -9.1304 C.ar    1  UNL1        0.3323
     20 C          18.2433   72.4472   -7.0517 C.ar    1  UNL1        0.0869
     21 C          17.3144   71.6164   -6.5744 C.ar    1  UNL1        0.0795
     22 C          16.8948   70.4586   -7.3909 C.ar    1  UNL1        0.2626
     23 H          17.2753   69.5926   -9.1837 H       1  UNL1        0.1734
     24 O          21.7374   72.4245   -3.9313 O.3     1  UNL1       -0.2703
     25 P          21.8547   71.0675   -3.0604 P.3     1  UNL1        0.2208
     26 O          23.4278   70.6989   -3.1603 O.co2   1  UNL1       -0.4371
     27 O          20.9327   69.9691   -3.5046 O.2     1  UNL1       -0.5170
     28 O          21.6439   71.5419   -1.5331 O.3     1  UNL1       -0.2858
     29 O          23.3958   72.7591   -0.5042 O.3     1  UNL1       -0.3226
     30 O          21.0779   71.7086    2.7503 O.3     1  UNL1       -0.3794
     31 O          21.5983   69.7800    0.6186 O.3     1  UNL1       -0.3775
     32 O          21.0078   74.4282    1.7259 O.3     1  UNL1       -0.3792
     33 C          21.3310   72.0643    1.3911 C.3     1  UNL1        0.1718
     34 C          22.2622   71.0309    0.7566 C.3     1  UNL1        0.1968
     35 C          21.9840   73.4482    1.3781 C.3     1  UNL1        0.1723
     36 C          22.7389   71.4963   -0.6200 C.3     1  UNL1        0.2706
     37 C          22.5454   73.7864    0.0001 C.3     1  UNL1        0.1830
     38 H          20.6629   70.8323    2.7835 H       1  UNL1        0.2105
     39 H          21.2929   69.4788    1.4883 H       1  UNL1        0.2106
     40 H          20.6425   74.2244    2.6010 H       1  UNL1        0.2106
     41 O          23.4676   75.4864    1.3272 O.co2   1  UNL1       -0.5466
     42 O          24.1045   75.4140   -0.8610 O.co2   1  UNL1       -0.5466
     43 C          23.4554   74.9692    0.0737 C.2     1  UNL1        0.0799
@<TRIPOS>UNITY_ATOM_ATTR
2 1
charge -1
26 1
charge -1
41 1
charge -1
@<TRIPOS>BOND
     1     1     4    1
     2     1    24    1
     3     1     2    1
     4     1     3    2
     5    25    28    1
     6    25    24    1
     7    25    26    1
     8    25    27    2
     9     6    11    1
    10     6    12    1
    11    29    36    1
    12    29    37    1
    13     7     9    1
    14     7    13    1
    15     8    10    1
    16     8    14    1
    17     4     5    1
    18    28    36    1
    19    30    33    1
    20    30    38    1
    21    31    34    1
    22    31    39    1
    23    32    35    1
    24    32    40    1
    25    41    43   ar
    26    15    19    2
    27    42    43   ar
    28    16    22    2
    29    17    12    1
    30    17    19   ar
    31    17    20   ar
    32    18    19   ar
    33    18    22   ar
    34    18    23    1
    35     9    10    1
    36     9    11    1
    37    10    12    1
    38    11     5    1
    39    33    34    1
    40    33    35    1
    41    34    36    1
    42    35    37    1
    43    37    43    1
    44    20    21   ar
    45    21    22   ar
@<TRIPOS>MOLECULE
*****
 43 45 0 0 0
SMALL
GASTEIGER

@<TRIPOS>ATOM
      1 P          22.7041   70.9139   -1.9464 P.3     1  UNL1        0.2189
      2 O          23.7762   70.4678   -3.0736 O.co2   1  UNL1       -0.4371
      3 O          23.1848   70.7896   -0.5303 O.2     1  UNL1       -0.5170
      4 O          21.3769   70.0649   -2.3149 O.3     1  UNL1       -0.3112
      5 C          20.7686   70.2747   -3.5760 C.3     1  UNL1        0.1811
      6 O          19.0700   71.6475   -4.5798 O.3     1  UNL1       -0.3308
      7 O          17.2396   70.6263   -2.4354 O.3     1  UNL1       -0.3794
      8 O          16.5291   69.1181   -4.5934 O.3     1  UNL1       -0.3779
      9 C          18.2855   69.9464   -3.1301 C.3     1  UNL1        0.1713
     10 C          17.8492   69.6173   -4.5420 C.3     1  UNL1        0.1895
     11 C          19.4141   70.9401   -3.3688 C.3     1  UNL1        0.1764
     12 C          17.9942   70.9599   -5.2380 C.3     1  UNL1        0.2383
     13 H          16.5070   70.0114   -2.2715 H       1  UNL1        0.2105
     14 H          16.4890   68.2624   -4.1372 H       1  UNL1        0.2106
     15 O          16.0891   70.4761   -7.2661 O.2     1  UNL1       -0.2464
     16 O          19.3221   70.4539  -10.5510 O.2     1  UNL1       -0.2670
     17 N          18.3107   70.8233   -6.6316 N.ar    1  UNL1       -0.2551
     18 N          17.7013   70.4645   -8.9001 N.ar    1  UNL1       -0.2743
     19 C          17.2790   70.5813   -7.5693 C.ar    1  UNL1        0.3323
     20 C          19.6291   70.9308   -7.0572 C.ar    1  UNL1        0.0869
     21 C          20.0161   70.8172   -8.3292 C.ar    1  UNL1        0.0795
     22 C          19.0003   70.5631   -9.3717 C.ar    1  UNL1        0.2626
     23 H          17.0011   70.2938   -9.5709 H       1  UNL1        0.1734
     24 O          22.3104   72.4163   -2.3944 O.3     1  UNL1       -0.2703
     25 P          23.2318   73.6631   -2.8527 P.3     1  UNL1        0.2208
     26 O          24.1370   73.0372   -4.0399 O.co2   1  UNL1       -0.4371
     27 O          24.0198   74.2888   -1.7385 O.2     1  UNL1       -0.5170
     28 O          22.2167   74.6686   -3.6017 O.3     1  UNL1       -0.2858
     29 O          22.8734   74.9192   -5.8633 O.3     1  UNL1       -0.3226
     30 O          19.6555   77.4998   -5.6314 O.3     1  UNL1       -0.3794
     31 O          21.6177   77.3816   -3.4703 O.3     1  UNL1       -0.3775
     32 O          19.3670   74.9221   -6.9440 O.3     1  UNL1       -0.3792
     33 C          20.4220   76.3401   -5.3065 C.3     1  UNL1        0.1718
     34 C          21.7781   76.7644   -4.7423 C.3     1  UNL1        0.1968
     35 C          20.6101   75.5236   -6.5871 C.3     1  UNL1        0.1723
     36 C          22.7113   75.5615   -4.5982 C.3     1  UNL1        0.2706
     37 C          21.6486   74.4216   -6.3976 C.3     1  UNL1        0.1830
     38 H          19.5232   78.0344   -4.8326 H       1  UNL1        0.2105
     39 H          21.0264   78.1456   -3.5543 H       1  UNL1        0.2106
     40 H          18.6972   75.6127   -7.0673 H       1  UNL1        0.2106
     41 O          22.8493   72.7607   -7.5383 O.co2   1  UNL1       -0.5466
     42 O          21.7430   74.3001   -8.8054 O.co2   1  UNL1       -0.5466
     43 C          22.0640   73.8521   -7.7149 C.2     1  UNL1        0.0799
@<TRIPOS>UNITY_ATOM_ATTR
2 1
charge -1
26 1
charge -1
41 1
charge -1
@<TRIPOS>BOND
     1     1     4    1
     2     1    24    1
     3     1     2    1
     4     1     3    2
     5    25    28    1
     6    25    24    1
     7    25    26    1
     8    25    27    2
     9     6    11    1
    10     6    12    1
    11    29    36    1
    12    29    37    1
    13     7     9    1
    14     7    13    1
    15     8    10    1
    16     8    14    1
    17     4     5    1
    18    28    36    1
    19    30    33    1
    20    30    38    1
    21    31    34    1
    22    31    39    1
    23    32    35    1
    24    32    40    1
    25    41    43   ar
    26    15    19    2
    27    42    43   ar
    28    16    22    2
    29    17    12    1
    30    17    19   ar
    31    17    20   ar
    32    18    19   ar
    33    18    22   ar
    34    18    23    1
    35     9    10    1
    36     9    11    1
    37    10    12    1
    38    11     5    1
    39    33    34    1
    40    33    35    1
    41    34    36    1
    42    35    37    1
    43    37    43    1
    44    20    21   ar
    45    21    22   ar
@<TRIPOS>MOLECULE
*****
 43 45 0 0 0
SMALL
GASTEIGER

@<TRIPOS>ATOM
      1 P          22.9877   71.9511   -2.8376 P.3     1  UNL1        0.2189
      2 O          23.8258   73.2087   -3.4162 O.co2   1  UNL1       -0.4371
      3 O          23.5868   70.6052   -3.1232 O.2     1  UNL1       -0.5170
      4 O          21.4907   72.1882   -3.4038 O.3     1  UNL1       -0.3112
      5 C          20.6403   71.0667   -3.5573 C.3     1  UNL1        0.1811
      6 O          18.7734   72.0620   -4.6983 O.3     1  UNL1       -0.3308
      7 O          17.0702   70.9391   -2.5007 O.3     1  UNL1       -0.3794
      8 O          16.6680   69.1648   -4.5320 O.3     1  UNL1       -0.3779
      9 C          18.2295   70.3815   -3.1201 C.3     1  UNL1        0.1713
     10 C          17.8902   69.8720   -4.5048 C.3     1  UNL1        0.1895
     11 C          19.1921   71.5207   -3.4267 C.3     1  UNL1        0.1764
     12 C          17.8391   71.1589   -5.3106 C.3     1  UNL1        0.2383
     13 H          16.4403   70.2300   -2.2953 H       1  UNL1        0.2105
     14 H          16.7519   68.3540   -4.0051 H       1  UNL1        0.2106
     15 O          16.0394   70.4341   -7.3630 O.2     1  UNL1       -0.2464
     16 O          19.3790   70.4280  -10.5395 O.2     1  UNL1       -0.2670
     17 N          18.2115   70.9613   -6.6829 N.ar    1  UNL1       -0.2551
     18 N          17.7046   70.4307   -8.9429 N.ar    1  UNL1       -0.2743
     19 C          17.2301   70.5981   -7.6353 C.ar    1  UNL1        0.3323
     20 C          19.5345   71.1287   -7.0735 C.ar    1  UNL1        0.0869
     21 C          19.9717   70.9657   -8.3238 C.ar    1  UNL1        0.0795
     22 C          19.0104   70.5854   -9.3796 C.ar    1  UNL1        0.2626
     23 H          17.0402   70.1758   -9.6233 H       1  UNL1        0.1734
     24 O          22.8422   72.3037   -1.2668 O.3     1  UNL1       -0.2703
     25 P          21.9510   73.4185   -0.5074 P.3     1  UNL1        0.2208
     26 O          20.5261   72.6777   -0.3045 O.co2   1  UNL1       -0.4371
     27 O          21.8673   74.7341   -1.2259 O.2     1  UNL1       -0.5170
     28 O          22.5800   73.5045    0.9757 O.3     1  UNL1       -0.2858
     29 O          21.2041   74.7333    2.4610 O.3     1  UNL1       -0.3226
     30 O          24.5576   74.0652    4.7796 O.3     1  UNL1       -0.3794
     31 O          24.8259   74.8112    1.9679 O.3     1  UNL1       -0.3775
     32 O          22.1339   72.5282    5.2423 O.3     1  UNL1       -0.3792
     33 C          23.5876   73.7686    3.7750 C.3     1  UNL1        0.1718
     34 C          23.6095   74.8600    2.7045 C.3     1  UNL1        0.1968
     35 C          22.2139   73.7094    4.4468 C.3     1  UNL1        0.1723
     36 C          22.4351   74.7016    1.7378 C.3     1  UNL1        0.2706
     37 C          21.0900   73.6798    3.4151 C.3     1  UNL1        0.1830
     38 H          25.4388   74.1079    4.3759 H       1  UNL1        0.2105
     39 H          25.5754   74.9108    2.5751 H       1  UNL1        0.2106
     40 H          22.8440   72.5346    5.9030 H       1  UNL1        0.2106
     41 O          19.8949   73.9840    5.4102 O.co2   1  UNL1       -0.5466
     42 O          18.7196   74.1275    3.4615 O.co2   1  UNL1       -0.5466
     43 C          19.7704   73.9528    4.0602 C.2     1  UNL1        0.0799
@<TRIPOS>UNITY_ATOM_ATTR
2 1
charge -1
26 1
charge -1
41 1
charge -1
@<TRIPOS>BOND
     1     1     4    1
     2     1    24    1
     3     1     2    1
     4     1     3    2
     5    25    28    1
     6    25    24    1
     7    25    26    1
     8    25    27    2
     9     6    11    1
    10     6    12    1
    11    29    36    1
    12    29    37    1
    13     7     9    1
    14     7    13    1
    15     8    10    1
    16     8    14    1
    17     4     5    1
    18    28    36    1
    19    30    33    1
    20    30    38    1
    21    31    34    1
    22    31    39    1
    23    32    35    1
    24    32    40    1
    25    41    43   ar
    26    15    19    2
    27    42    43   ar
    28    16    22    2
    29    17    12    1
    30    17    19   ar
    31    17    20   ar
    32    18    19   ar
    33    18    22   ar
    34    18    23    1
    35     9    10    1
    36     9    11    1
    37    10    12    1
    38    11     5    1
    39    33    34    1
    40    33    35    1
    41    34    36    1
    42    35    37    1
    43    37    43    1
    44    20    21   ar
    45    21    22   ar
@<TRIPOS>MOLECULE
*****
 43 45 0 0 0
SMALL
GASTEIGER

@<TRIPOS>ATOM
      1 P          21.5257   71.1457   -1.0765 P.3     1  UNL1        0.2189
      2 O          22.9989   71.5132   -0.5165 O.co2   1  UNL1       -0.4371
      3 O          21.0822   69.7361   -0.8157 O.2     1  UNL1       -0.5170
      4 O          21.5795   71.5890   -2.6317 O.3     1  UNL1       -0.3112
      5 C          20.7536   70.9075   -3.5580 C.3     1  UNL1        0.1811
      6 O          18.8889   71.9658   -4.6443 O.3     1  UNL1       -0.3308
      7 O          17.2013   70.8363   -2.4380 O.3     1  UNL1       -0.3794
      8 O          16.7233   69.1123   -4.4960 O.3     1  UNL1       -0.3779
      9 C          18.3366   70.2662   -3.0896 C.3     1  UNL1        0.1713
     10 C          17.9611   69.7921   -4.4776 C.3     1  UNL1        0.1895
     11 C          19.3184   71.3901   -3.3916 C.3     1  UNL1        0.1764
     12 C          17.9239   71.0957   -5.2568 C.3     1  UNL1        0.2383
     13 H          16.5598   70.1371   -2.2350 H       1  UNL1        0.2105
     14 H          16.7988   68.2895   -3.9869 H       1  UNL1        0.2106
     15 O          16.0650   70.4956   -7.2966 O.2     1  UNL1       -0.2464
     16 O          19.3527   70.4344  -10.5264 O.2     1  UNL1       -0.2670
     17 N          18.2669   70.9177   -6.6394 N.ar    1  UNL1       -0.2551
     18 N          17.7044   70.4647   -8.9031 N.ar    1  UNL1       -0.2743
     19 C          17.2572   70.6183   -7.5843 C.ar    1  UNL1        0.3323
     20 C          19.5895   71.0414   -7.0473 C.ar    1  UNL1        0.0869
     21 C          20.0005   70.8923   -8.3081 C.ar    1  UNL1        0.0795
     22 C          19.0086   70.5775   -9.3571 C.ar    1  UNL1        0.2626
     23 H          17.0198   70.2538   -9.5786 H       1  UNL1        0.1734
     24 O          20.5895   72.2809   -0.4073 O.3     1  UNL1       -0.2703
     25 P          20.8025   73.8758   -0.2509 P.3     1  UNL1        0.2208
     26 O          19.3254   74.4096    0.1410 O.co2   1  UNL1       -0.4371
     27 O          21.3994   74.5387   -1.4585 O.2     1  UNL1       -0.5170
     28 O          21.6676   74.0426    1.1005 O.3     1  UNL1       -0.2858
     29 O          21.1789   74.7833    3.2963 O.3     1  UNL1       -0.3226
     30 O          24.9241   76.4124    2.6736 O.3     1  UNL1       -0.3794
     31 O          22.9138   76.4686    0.5546 O.3     1  UNL1       -0.3775
     32 O          24.6150   74.0695    4.3666 O.3     1  UNL1       -0.3792
     33 C          23.8829   75.4463    2.5300 C.3     1  UNL1        0.1718
     34 C          22.6536   76.1077    1.9062 C.3     1  UNL1        0.1968
     35 C          23.5469   74.9029    3.9206 C.3     1  UNL1        0.1723
     36 C          21.4471   75.1689    1.9477 C.3     1  UNL1        0.2706
     37 C          22.2617   74.0804    3.9017 C.3     1  UNL1        0.1830
     38 H          25.1544   76.7718    1.8023 H       1  UNL1        0.2105
     39 H          23.6784   77.0640    0.5209 H       1  UNL1        0.2106
     40 H          25.4390   74.5810    4.3831 H       1  UNL1        0.2106
     41 O          22.5725   72.9552    5.9361 O.co2   1  UNL1       -0.5466
     42 O          20.7787   74.3547    5.7850 O.co2   1  UNL1       -0.5466
     43 C          21.7681   73.8356    5.2905 C.2     1  UNL1        0.0799
@<TRIPOS>UNITY_ATOM_ATTR
2 1
charge -1
26 1
charge -1
41 1
charge -1
@<TRIPOS>BOND
     1     1     4    1
     2     1    24    1
     3     1     2    1
     4     1     3    2
     5    25    28    1
     6    25    24    1
     7    25    26    1
     8    25    27    2
     9     6    11    1
    10     6    12    1
    11    29    36    1
    12    29    37    1
    13     7     9    1
    14     7    13    1
    15     8    10    1
    16     8    14    1
    17     4     5    1
    18    28    36    1
    19    30    33    1
    20    30    38    1
    21    31    34    1
    22    31    39    1
    23    32    35    1
    24    32    40    1
    25    41    43   ar
    26    15    19    2
    27    42    43   ar
    28    16    22    2
    29    17    12    1
    30    17    19   ar
    31    17    20   ar
    32    18    19   ar
    33    18    22   ar
    34    18    23    1
    35     9    10    1
    36     9    11    1
    37    10    12    1
    38    11     5    1
    39    33    34    1
    40    33    35    1
    41    34    36    1
    42    35    37    1
    43    37    43    1
    44    20    21   ar
    45    21    22   ar
@<TRIPOS>MOLECULE
*****
 43 45 0 0 0
SMALL
GASTEIGER

@<TRIPOS>ATOM
      1 P          22.5013   75.1415   -7.8564 P.3     1  UNL1        0.2189
      2 O          21.6758   76.4752   -8.2549 O.co2   1  UNL1       -0.4371
      3 O          23.9884   75.2410   -8.0310 O.2     1  UNL1       -0.5170
      4 O          21.7720   73.9674   -8.6975 O.3     1  UNL1       -0.3112
      5 C          21.1460   72.9152   -7.9866 C.3     1  UNL1        0.1811
      6 O          19.8759   70.8999   -8.3079 O.3     1  UNL1       -0.3308
      7 O          18.4063   72.3895  -10.4556 O.3     1  UNL1       -0.3794
      8 O          16.6694   72.5031   -8.3565 O.3     1  UNL1       -0.3779
      9 C          18.9164   72.8683   -9.2110 C.3     1  UNL1        0.1713
     10 C          18.0472   72.3871   -8.0685 C.3     1  UNL1        0.1895
     11 C          20.2309   72.1513   -8.9350 C.3     1  UNL1        0.1764
     12 C          18.4938   70.9428   -7.9190 C.3     1  UNL1        0.2383
     13 H          17.5663   72.8334  -10.6534 H       1  UNL1        0.2105
     14 H          16.4348   73.4409   -8.4419 H       1  UNL1        0.2106
     15 O          16.0967   69.9860   -6.7722 O.2     1  UNL1       -0.2464
     16 O          18.1496   69.1500   -2.7311 O.2     1  UNL1       -0.2670
     17 N          18.3736   70.4689   -6.5692 N.ar    1  UNL1       -0.2551
     18 N          17.1212   69.5715   -4.7603 N.ar    1  UNL1       -0.2743
     19 C          17.1236   70.0097   -6.0911 C.ar    1  UNL1        0.3323
     20 C          19.4853   70.4606   -5.7355 C.ar    1  UNL1        0.0869
     21 C          19.4675   70.0398   -4.4693 C.ar    1  UNL1        0.0795
     22 C          18.2006   69.5447   -3.8920 C.ar    1  UNL1        0.2626
     23 H          16.2618   69.2490   -4.4043 H       1  UNL1        0.1734
     24 O          22.0190   74.8557   -6.3403 O.3     1  UNL1       -0.2703
     25 P          22.6356   75.3299   -4.9230 P.3     1  UNL1        0.2208
     26 O          22.3902   76.9299   -4.9298 O.co2   1  UNL1       -0.4371
     27 O          24.0648   74.9244   -4.7067 O.2     1  UNL1       -0.5170
     28 O          21.6047   74.7646   -3.8185 O.3     1  UNL1       -0.2858
     29 O          21.7097   72.4045   -3.6514 O.3     1  UNL1       -0.3226
     30 O          18.5460   73.2849   -1.1446 O.3     1  UNL1       -0.3794
     31 O          18.8276   74.6533   -3.7102 O.3     1  UNL1       -0.3775
     32 O          21.1359   72.5750   -0.0314 O.3     1  UNL1       -0.3792
     33 C          19.7942   73.5153   -1.7979 C.3     1  UNL1        0.1718
     34 C          19.5863   73.5171   -3.3126 C.3     1  UNL1        0.1968
     35 C          20.7537   72.3938   -1.3936 C.3     1  UNL1        0.1723
     36 C          20.9268   73.5308   -4.0487 C.3     1  UNL1        0.2706
     37 C          22.0114   72.3982   -2.2578 C.3     1  UNL1        0.1830
     38 H          17.9199   73.9854   -1.3866 H       1  UNL1        0.2105
     39 H          17.9758   74.6511   -3.2467 H       1  UNL1        0.2106
     40 H          20.3445   72.5743    0.5293 H       1  UNL1        0.2106
     41 O          23.3862   70.7747   -3.2455 O.co2   1  UNL1       -0.5466
     42 O          22.8522   70.4878   -1.0474 O.co2   1  UNL1       -0.5466
     43 C          22.7773   71.1269   -2.0861 C.2     1  UNL1        0.0799
@<TRIPOS>UNITY_ATOM_ATTR
2 1
charge -1
26 1
charge -1
41 1
charge -1
@<TRIPOS>BOND
     1     1     4    1
     2     1    24    1
     3     1     2    1
     4     1     3    2
     5    25    28    1
     6    25    24    1
     7    25    26    1
     8    25    27    2
     9     6    11    1
    10     6    12    1
    11    29    36    1
    12    29    37    1
    13     7     9    1
    14     7    13    1
    15     8    10    1
    16     8    14    1
    17     4     5    1
    18    28    36    1
    19    30    33    1
    20    30    38    1
    21    31    34    1
    22    31    39    1
    23    32    35    1
    24    32    40    1
    25    41    43   ar
    26    15    19    2
    27    42    43   ar
    28    16    22    2
    29    17    12    1
    30    17    19   ar
    31    17    20   ar
    32    18    19   ar
    33    18    22   ar
    34    18    23    1
    35     9    10    1
    36     9    11    1
    37    10    12    1
    38    11     5    1
    39    33    34    1
    40    33    35    1
    41    34    36    1
    42    35    37    1
    43    37    43    1
    44    20    21   ar
    45    21    22   ar
@<TRIPOS>MOLECULE
*****
 43 45 0 0 0
SMALL
GASTEIGER

@<TRIPOS>ATOM
      1 P          22.3767   73.2963   -4.1213 P.3     1  UNL1        0.2189
      2 O          22.0566   74.6502   -4.9480 O.co2   1  UNL1       -0.4371
      3 O          23.7553   72.7401   -4.3258 O.2     1  UNL1       -0.5170
      4 O          21.1556   72.3074   -4.5073 O.3     1  UNL1       -0.3112
      5 C          20.6064   71.4842   -3.4949 C.3     1  UNL1        0.1811
      6 O          18.6467   72.3257   -4.6035 O.3     1  UNL1       -0.3308
      7 O          17.0728   71.0207   -2.4100 O.3     1  UNL1       -0.3794
      8 O          16.8107   69.2493   -4.4665 O.3     1  UNL1       -0.3779
      9 C          18.2711   70.5790   -3.0483 C.3     1  UNL1        0.1713
     10 C          17.9649   70.0627   -4.4382 C.3     1  UNL1        0.1895
     11 C          19.1248   71.8044   -3.3445 C.3     1  UNL1        0.1764
     12 C          17.7909   71.3522   -5.2224 C.3     1  UNL1        0.2383
     13 H          16.5109   70.2550   -2.2109 H       1  UNL1        0.2105
     14 H          16.9720   68.4412   -3.9538 H       1  UNL1        0.2106
     15 O          16.0860   71.9084   -7.4043 O.2     1  UNL1       -0.2464
     16 O          19.3356   70.7712  -10.4687 O.2     1  UNL1       -0.2670
     17 N          18.1658   71.2101   -6.6009 N.ar    1  UNL1       -0.2551
     18 N          17.7058   71.3405   -8.9284 N.ar    1  UNL1       -0.2743
     19 C          17.2340   71.5157   -7.6209 C.ar    1  UNL1        0.3323
     20 C          19.4433   70.7743   -6.9308 C.ar    1  UNL1        0.0869
     21 C          19.8786   70.6122   -8.1818 C.ar    1  UNL1        0.0795
     22 C          18.9670   70.9090   -9.3062 C.ar    1  UNL1        0.2626
     23 H          17.0743   71.5451   -9.6556 H       1  UNL1        0.1734
     24 O          22.0384   73.7135   -2.5967 O.3     1  UNL1       -0.2703
     25 P          22.7972   74.7116   -1.5760 P.3     1  UNL1        0.2208
     26 O          22.1942   76.1635   -1.9617 O.co2   1  UNL1       -0.4371
     27 O          24.2951   74.6289   -1.6334 O.2     1  UNL1       -0.5170
     28 O          22.1631   74.3783   -0.1305 O.3     1  UNL1       -0.2858
     29 O          23.1740   75.0745    1.8950 O.3     1  UNL1       -0.3226
     30 O          20.7907   71.9519    3.1746 O.3     1  UNL1       -0.3794
     31 O          22.3212   71.7274    0.6964 O.3     1  UNL1       -0.3775
     32 O          19.9915   74.7005    3.6821 O.3     1  UNL1       -0.3792
     33 C          21.1551   73.0615    2.3537 C.3     1  UNL1        0.1718
     34 C          22.4825   72.7668    1.6547 C.3     1  UNL1        0.1968
     35 C          21.2892   74.2919    3.2537 C.3     1  UNL1        0.1723
     36 C          23.0190   74.0142    0.9510 C.3     1  UNL1        0.2706
     37 C          21.9472   75.4536    2.5149 C.3     1  UNL1        0.1830
     38 H          20.6998   71.1582    2.6241 H       1  UNL1        0.2105
     39 H          21.9808   70.9329    1.1360 H       1  UNL1        0.2106
     40 H          19.5617   73.9699    4.1537 H       1  UNL1        0.2106
     41 O          23.4262   77.2137    2.9798 O.co2   1  UNL1       -0.5466
     42 O          21.8424   76.7434    4.5513 O.co2   1  UNL1       -0.5466
     43 C          22.3705   76.5196    3.4724 C.2     1  UNL1        0.0799
@<TRIPOS>UNITY_ATOM_ATTR
2 1
charge -1
26 1
charge -1
41 1
charge -1
@<TRIPOS>BOND
     1     1     4    1
     2     1    24    1
     3     1     2    1
     4     1     3    2
     5    25    28    1
     6    25    24    1
     7    25    26    1
     8    25    27    2
     9     6    11    1
    10     6    12    1
    11    29    36    1
    12    29    37    1
    13     7     9    1
    14     7    13    1
    15     8    10    1
    16     8    14    1
    17     4     5    1
    18    28    36    1
    19    30    33    1
    20    30    38    1
    21    31    34    1
    22    31    39    1
    23    32    35    1
    24    32    40    1
    25    41    43   ar
    26    15    19    2
    27    42    43   ar
    28    16    22    2
    29    17    12    1
    30    17    19   ar
    31    17    20   ar
    32    18    19   ar
    33    18    22   ar
    34    18    23    1
    35     9    10    1
    36     9    11    1
    37    10    12    1
    38    11     5    1
    39    33    34    1
    40    33    35    1
    41    34    36    1
    42    35    37    1
    43    37    43    1
    44    20    21   ar
    45    21    22   ar
@<TRIPOS>MOLECULE
*****
 43 45 0 0 0
SMALL
GASTEIGER

@<TRIPOS>ATOM
      1 P          21.1414   74.1717   -4.9293 P.3     1  UNL1        0.2189
      2 O          21.7043   75.2890   -3.9028 O.co2   1  UNL1       -0.4371
      3 O          21.4120   74.4495   -6.3789 O.2     1  UNL1       -0.5170
      4 O          19.5829   74.0200   -4.5220 O.3     1  UNL1       -0.3112
      5 C          19.2334   73.0776   -3.5249 C.3     1  UNL1        0.1811
      6 O          17.2962   72.9478   -4.9420 O.3     1  UNL1       -0.3308
      7 O          15.9620   71.5124   -2.6724 O.3     1  UNL1       -0.3794
      8 O          16.6502   69.4720   -4.3454 O.3     1  UNL1       -0.3779
      9 C          17.3214   71.4527   -3.1049 C.3     1  UNL1        0.1713
     10 C          17.4297   70.6491   -4.3835 C.3     1  UNL1        0.1895
     11 C          17.7286   72.8448   -3.5680 C.3     1  UNL1        0.1764
     12 C          16.9384   71.6423   -5.4228 C.3     1  UNL1        0.2383
     13 H          15.6791   70.6342   -2.3717 H       1  UNL1        0.2105
     14 H          17.0032   68.8723   -3.6688 H       1  UNL1        0.2106
     15 O          16.0417   69.7563   -7.3242 O.2     1  UNL1       -0.2464
     16 O          19.3399   70.9360  -10.3199 O.2     1  UNL1       -0.2670
     17 N          17.5443   71.4357   -6.7077 N.ar    1  UNL1       -0.2551
     18 N          17.6859   70.3449   -8.8140 N.ar    1  UNL1       -0.2743
     19 C          17.0165   70.4625   -7.5888 C.ar    1  UNL1        0.3323
     20 C          18.6469   72.1930   -7.0844 C.ar    1  UNL1        0.0869
     21 C          19.2742   72.0696   -8.2557 C.ar    1  UNL1        0.0795
     22 C          18.7864   71.0747   -9.2333 C.ar    1  UNL1        0.2626
     23 H          17.3378   69.6724   -9.4432 H       1  UNL1        0.1734
     24 O          21.7976   72.8036   -4.3720 O.3     1  UNL1       -0.2703
     25 P          23.0617   72.5534   -3.3958 P.3     1  UNL1        0.2208
     26 O          24.1873   73.5574   -3.9836 O.co2   1  UNL1       -0.4371
     27 O          23.4975   71.1195   -3.3077 O.2     1  UNL1       -0.5170
     28 O          22.6271   73.2088   -1.9873 O.3     1  UNL1       -0.2858
     29 O          21.5547   71.5527   -0.6773 O.3     1  UNL1       -0.3226
     30 O          21.3141   74.8598    1.7871 O.3     1  UNL1       -0.3794
     31 O          20.8105   75.1095   -1.0797 O.3     1  UNL1       -0.3775
     32 O          23.2471   72.7616    2.3454 O.3     1  UNL1       -0.3792
     33 C          21.8943   74.0140    0.7941 C.3     1  UNL1        0.1718
     34 C          20.9311   73.8736   -0.3849 C.3     1  UNL1        0.1968
     35 C          22.1577   72.6480    1.4318 C.3     1  UNL1        0.1723
     36 C          21.4133   72.7989   -1.3602 C.3     1  UNL1        0.2706
     37 C          22.5107   71.6007    0.3795 C.3     1  UNL1        0.1830
     38 H          21.1378   75.7339    1.4046 H       1  UNL1        0.2105
     39 H          20.5052   75.7961   -0.4668 H       1  UNL1        0.2106
     40 H          23.0353   73.4252    3.0203 H       1  UNL1        0.2106
     41 O          23.3867   70.0600    1.9158 O.co2   1  UNL1       -0.5466
     42 O          21.6461   69.3610    0.6193 O.co2   1  UNL1       -0.5466
     43 C          22.4420   70.2245    0.9569 C.2     1  UNL1        0.0799
@<TRIPOS>UNITY_ATOM_ATTR
2 1
charge -1
26 1
charge -1
41 1
charge -1
@<TRIPOS>BOND
     1     1     4    1
     2     1    24    1
     3     1     2    1
     4     1     3    2
     5    25    28    1
     6    25    24    1
     7    25    26    1
     8    25    27    2
     9     6    11    1
    10     6    12    1
    11    29    36    1
    12    29    37    1
    13     7     9    1
    14     7    13    1
    15     8    10    1
    16     8    14    1
    17     4     5    1
    18    28    36    1
    19    30    33    1
    20    30    38    1
    21    31    34    1
    22    31    39    1
    23    32    35    1
    24    32    40    1
    25    41    43   ar
    26    15    19    2
    27    42    43   ar
    28    16    22    2
    29    17    12    1
    30    17    19   ar
    31    17    20   ar
    32    18    19   ar
    33    18    22   ar
    34    18    23    1
    35     9    10    1
    36     9    11    1
    37    10    12    1
    38    11     5    1
    39    33    34    1
    40    33    35    1
    41    34    36    1
    42    35    37    1
    43    37    43    1
    44    20    21   ar
    45    21    22   ar
@<TRIPOS>MOLECULE
*****
 43 45 0 0 0
SMALL
GASTEIGER

@<TRIPOS>ATOM
      1 P          22.0859   73.3639   -5.3515 P.3     1  UNL1        0.2189
      2 O          22.1593   74.9171   -5.8001 O.co2   1  UNL1       -0.4371
      3 O          23.3849   72.7781   -4.8814 O.2     1  UNL1       -0.5170
      4 O          21.3996   72.6260   -6.6174 O.3     1  UNL1       -0.3112
      5 C          20.7301   73.4186   -7.5807 C.3     1  UNL1        0.1811
      6 O          19.9019   71.1999   -7.9917 O.3     1  UNL1       -0.3308
      7 O          18.3421   72.4018  -10.2531 O.3     1  UNL1       -0.3794
      8 O          16.4596   72.1548   -8.2958 O.3     1  UNL1       -0.3779
      9 C          18.6526   72.9561   -8.9745 C.3     1  UNL1        0.1713
     10 C          17.8074   72.3036   -7.9011 C.3     1  UNL1        0.1895
     11 C          20.0557   72.5031   -8.5943 C.3     1  UNL1        0.1764
     12 C          18.5118   70.9710   -7.7116 C.3     1  UNL1        0.2383
     13 H          17.4500   72.6775  -10.5173 H       1  UNL1        0.2105
     14 H          16.0555   73.0307   -8.4029 H       1  UNL1        0.2106
     15 O          16.1703   69.7781   -6.6767 O.2     1  UNL1       -0.2464
     16 O          18.1267   69.0766   -2.5628 O.2     1  UNL1       -0.2670
     17 N          18.3818   70.4679   -6.3734 N.ar    1  UNL1       -0.2551
     18 N          17.1466   69.4308   -4.6284 N.ar    1  UNL1       -0.2743
     19 C          17.1619   69.8871   -5.9530 C.ar    1  UNL1        0.3323
     20 C          19.4546   70.5507   -5.4940 C.ar    1  UNL1        0.0869
     21 C          19.4249   70.1112   -4.2344 C.ar    1  UNL1        0.0795
     22 C          18.1876   69.4917   -3.7161 C.ar    1  UNL1        0.2626
     23 H          16.3074   69.0244   -4.3123 H       1  UNL1        0.1734
     24 O          20.9066   73.3609   -4.2460 O.3     1  UNL1       -0.2703
     25 P          20.8507   73.9759   -2.7519 P.3     1  UNL1        0.2208
     26 O          19.2798   74.3085   -2.5474 O.co2   1  UNL1       -0.4371
     27 O          21.7644   75.1470   -2.5335 O.2     1  UNL1       -0.5170
     28 O          21.1304   72.7184   -1.7809 O.3     1  UNL1       -0.2858
     29 O          22.9599   73.2104   -0.3596 O.3     1  UNL1       -0.3226
     30 O          22.0648   69.3287    0.7354 O.3     1  UNL1       -0.3794
     31 O          22.0568   70.1128   -2.0788 O.3     1  UNL1       -0.3775
     32 O          21.2989   71.5435    2.4555 O.3     1  UNL1       -0.3792
     33 C          21.7846   70.6494    0.2716 C.3     1  UNL1        0.1718
     34 C          22.5624   70.9148   -1.0177 C.3     1  UNL1        0.1968
     35 C          22.2109   71.6342    1.3626 C.3     1  UNL1        0.1723
     36 C          22.4700   72.3876   -1.4190 C.3     1  UNL1        0.2706
     37 C          22.2129   73.0703    0.8469 C.3     1  UNL1        0.1830
     38 H          21.8022   68.6854    0.0583 H       1  UNL1        0.2105
     39 H          22.1121   69.1769   -1.8308 H       1  UNL1        0.2106
     40 H          21.2880   70.6342    2.7930 H       1  UNL1        0.2106
     41 O          23.7418   74.8281    1.1198 O.co2   1  UNL1       -0.5466
     42 O          22.8152   73.9525    3.0103 O.co2   1  UNL1       -0.5466
     43 C          22.9337   73.9732    1.7944 C.2     1  UNL1        0.0799
@<TRIPOS>UNITY_ATOM_ATTR
2 1
charge -1
26 1
charge -1
41 1
charge -1
@<TRIPOS>BOND
     1     1     4    1
     2     1    24    1
     3     1     2    1
     4     1     3    2
     5    25    28    1
     6    25    24    1
     7    25    26    1
     8    25    27    2
     9     6    11    1
    10     6    12    1
    11    29    36    1
    12    29    37    1
    13     7     9    1
    14     7    13    1
    15     8    10    1
    16     8    14    1
    17     4     5    1
    18    28    36    1
    19    30    33    1
    20    30    38    1
    21    31    34    1
    22    31    39    1
    23    32    35    1
    24    32    40    1
    25    41    43   ar
    26    15    19    2
    27    42    43   ar
    28    16    22    2
    29    17    12    1
    30    17    19   ar
    31    17    20   ar
    32    18    19   ar
    33    18    22   ar
    34    18    23    1
    35     9    10    1
    36     9    11    1
    37    10    12    1
    38    11     5    1
    39    33    34    1
    40    33    35    1
    41    34    36    1
    42    35    37    1
    43    37    43    1
    44    20    21   ar
    45    21    22   ar
@<TRIPOS>MOLECULE
*****
 43 45 0 0 0
SMALL
GASTEIGER

@<TRIPOS>ATOM
      1 P          23.0742   73.8917   -4.1123 P.3     1  UNL1        0.2189
      2 O          22.3940   75.1345   -3.3303 O.co2   1  UNL1       -0.4371
      3 O          24.4858   73.5841   -3.7068 O.2     1  UNL1       -0.5170
      4 O          22.8540   74.2486   -5.6750 O.3     1  UNL1       -0.3112
      5 C          22.5015   73.2045   -6.5639 C.3     1  UNL1        0.1811
      6 O          21.3439   72.9525   -8.6553 O.3     1  UNL1       -0.3308
      7 O          22.0267   75.8272   -9.1666 O.3     1  UNL1       -0.3794
      8 O          19.4238   75.9664   -8.3655 O.3     1  UNL1       -0.3779
      9 C          21.6860   75.1840   -7.9383 C.3     1  UNL1        0.1713
     10 C          20.2023   74.8852   -7.8970 C.3     1  UNL1        0.1895
     11 C          22.2919   73.7873   -7.9556 C.3     1  UNL1        0.1764
     12 C          20.1021   73.6615   -8.7916 C.3     1  UNL1        0.2383
     13 H          21.6504   76.7216   -9.1789 H       1  UNL1        0.2105
     14 H          19.5213   76.7203   -7.7621 H       1  UNL1        0.2106
     15 O          17.3872   74.1195   -9.4212 O.2     1  UNL1       -0.2464
     16 O          16.0515   70.2597   -7.2855 O.2     1  UNL1       -0.2670
     17 N          19.0242   72.7924   -8.4125 N.ar    1  UNL1       -0.2551
     18 N          16.7245   72.1972   -8.3560 N.ar    1  UNL1       -0.2743
     19 C          17.6959   73.1141   -8.7787 C.ar    1  UNL1        0.3323
     20 C          19.2875   71.6362   -7.6881 C.ar    1  UNL1        0.0869
     21 C          18.3510   70.7718   -7.2924 C.ar    1  UNL1        0.0795
     22 C          16.9375   71.0344   -7.6335 C.ar    1  UNL1        0.2626
     23 H          15.7920   72.4009   -8.5975 H       1  UNL1        0.1734
     24 O          22.0245   72.6880   -3.8631 O.3     1  UNL1       -0.2703
     25 P          22.1770   71.2975   -3.0525 P.3     1  UNL1        0.2208
     26 O          21.9366   71.7384   -1.5136 O.co2   1  UNL1       -0.4371
     27 O          23.4743   70.5821   -3.2954 O.2     1  UNL1       -0.5170
     28 O          20.8614   70.4496   -3.4433 O.3     1  UNL1       -0.2858
     29 O          19.3258   71.2356   -1.8207 O.3     1  UNL1       -0.3226
     30 O          16.8472   69.1447   -4.3805 O.3     1  UNL1       -0.3794
     31 O          19.4520   68.0587   -3.6256 O.3     1  UNL1       -0.3775
     32 O          16.8859   72.0510   -4.4369 O.3     1  UNL1       -0.3792
     33 C          17.9752   69.9425   -4.0211 C.3     1  UNL1        0.1718
     34 C          18.8368   69.1848   -3.0107 C.3     1  UNL1        0.1968
     35 C          17.4570   71.2452   -3.4077 C.3     1  UNL1        0.1723
     36 C          19.9236   70.0908   -2.4302 C.3     1  UNL1        0.2706
     37 C          18.5807   72.0319   -2.7393 C.3     1  UNL1        0.1830
     38 H          17.1520   68.3113   -4.7726 H       1  UNL1        0.2105
     39 H          18.7682   67.4796   -3.9964 H       1  UNL1        0.2106
     40 H          16.1694   71.5617   -4.8705 H       1  UNL1        0.2106
     41 O          16.7732   72.8036   -1.4590 O.co2   1  UNL1       -0.5466
     42 O          18.6162   74.1417   -1.5693 O.co2   1  UNL1       -0.5466
     43 C          18.0268   73.1150   -1.8719 C.2     1  UNL1        0.0799
@<TRIPOS>UNITY_ATOM_ATTR
2 1
charge -1
26 1
charge -1
41 1
charge -1
@<TRIPOS>BOND
     1     1     4    1
     2     1    24    1
     3     1     2    1
     4     1     3    2
     5    25    28    1
     6    25    24    1
     7    25    26    1
     8    25    27    2
     9     6    11    1
    10     6    12    1
    11    29    36    1
    12    29    37    1
    13     7     9    1
    14     7    13    1
    15     8    10    1
    16     8    14    1
    17     4     5    1
    18    28    36    1
    19    30    33    1
    20    30    38    1
    21    31    34    1
    22    31    39    1
    23    32    35    1
    24    32    40    1
    25    41    43   ar
    26    15    19    2
    27    42    43   ar
    28    16    22    2
    29    17    12    1
    30    17    19   ar
    31    17    20   ar
    32    18    19   ar
    33    18    22   ar
    34    18    23    1
    35     9    10    1
    36     9    11    1
    37    10    12    1
    38    11     5    1
    39    33    34    1
    40    33    35    1
    41    34    36    1
    42    35    37    1
    43    37    43    1
    44    20    21   ar
    45    21    22   ar
@<TRIPOS>MOLECULE
*****
 43 45 0 0 0
SMALL
GASTEIGER

@<TRIPOS>ATOM
      1 P          19.4489   71.1121   -4.1966 P.3     1  UNL1        0.2189
      2 O          18.4137   70.2312   -3.3184 O.co2   1  UNL1       -0.4371
      3 O          19.2335   72.5957   -4.1298 O.2     1  UNL1       -0.5170
      4 O          19.3628   70.4554   -5.6728 O.3     1  UNL1       -0.3112
      5 C          19.7986   71.2221   -6.7803 C.3     1  UNL1        0.1811
      6 O          17.5994   70.8902   -7.6920 O.3     1  UNL1       -0.3308
      7 O          18.9032   71.0043  -10.3899 O.3     1  UNL1       -0.3794
      8 O          17.8309   73.4990  -10.1404 O.3     1  UNL1       -0.3779
      9 C          19.2163   71.7341   -9.2034 C.3     1  UNL1        0.1713
     10 C          18.1769   72.8074   -8.9586 C.3     1  UNL1        0.1895
     11 C          19.0050   70.8086   -8.0130 C.3     1  UNL1        0.1764
     12 C          17.0197   72.0025   -8.3921 C.3     1  UNL1        0.2383
     13 H          19.0307   71.5751  -11.1642 H       1  UNL1        0.2105
     14 H          18.6004   73.9960  -10.4612 H       1  UNL1        0.2106
     15 O          15.0439   73.8647   -9.1697 O.2     1  UNL1       -0.2464
     16 O          14.0074   74.8687   -4.7923 O.2     1  UNL1       -0.2670
     17 N          16.2187   72.7644   -7.4763 N.ar    1  UNL1       -0.2551
     18 N          14.5302   74.3637   -6.9888 N.ar    1  UNL1       -0.2743
     19 C          15.2536   73.6736   -7.9704 C.ar    1  UNL1        0.3323
     20 C          16.3914   72.6064   -6.1066 C.ar    1  UNL1        0.0869
     21 C          15.6942   73.2712   -5.1831 C.ar    1  UNL1        0.0795
     22 C          14.6666   74.2410   -5.6155 C.ar    1  UNL1        0.2626
     23 H          13.8540   75.0038   -7.3086 H       1  UNL1        0.1734
     24 O          20.8916   70.6164   -3.6619 O.3     1  UNL1       -0.2703
     25 P          22.2574   71.4342   -3.3801 P.3     1  UNL1        0.2208
     26 O          22.3833   72.4005   -4.6727 O.co2   1  UNL1       -0.4371
     27 O          23.4572   70.5646   -3.1390 O.2     1  UNL1       -0.5170
     28 O          21.8955   72.4283   -2.1623 O.3     1  UNL1       -0.2858
     29 O          21.3829   71.2330   -0.1830 O.3     1  UNL1       -0.3226
     30 O          20.5505   75.1199    0.9428 O.3     1  UNL1       -0.3794
     31 O          19.7527   74.1377   -1.6903 O.3     1  UNL1       -0.3775
     32 O          22.9822   73.8221    1.8666 O.3     1  UNL1       -0.3792
     33 C          21.2324   74.0867    0.2317 C.3     1  UNL1        0.1718
     34 C          20.2344   73.3162   -0.6331 C.3     1  UNL1        0.1968
     35 C          21.8790   73.1536    1.2580 C.3     1  UNL1        0.1723
     36 C          20.8796   72.0644   -1.2294 C.3     1  UNL1        0.2706
     37 C          22.3860   71.8717    0.6037 C.3     1  UNL1        0.1830
     38 H          20.1315   75.7253    0.3110 H       1  UNL1        0.2105
     39 H          19.3423   74.9340   -1.3191 H       1  UNL1        0.2106
     40 H          22.6731   74.6399    2.2867 H       1  UNL1        0.2106
     41 O          22.8220   69.6145    1.0691 O.co2   1  UNL1       -0.5466
     42 O          22.8563   71.0647    2.8283 O.co2   1  UNL1       -0.5466
     43 C          22.7094   70.8412    1.6361 C.2     1  UNL1        0.0799
@<TRIPOS>UNITY_ATOM_ATTR
2 1
charge -1
26 1
charge -1
41 1
charge -1
@<TRIPOS>BOND
     1     1     4    1
     2     1    24    1
     3     1     2    1
     4     1     3    2
     5    25    28    1
     6    25    24    1
     7    25    26    1
     8    25    27    2
     9     6    11    1
    10     6    12    1
    11    29    36    1
    12    29    37    1
    13     7     9    1
    14     7    13    1
    15     8    10    1
    16     8    14    1
    17     4     5    1
    18    28    36    1
    19    30    33    1
    20    30    38    1
    21    31    34    1
    22    31    39    1
    23    32    35    1
    24    32    40    1
    25    41    43   ar
    26    15    19    2
    27    42    43   ar
    28    16    22    2
    29    17    12    1
    30    17    19   ar
    31    17    20   ar
    32    18    19   ar
    33    18    22   ar
    34    18    23    1
    35     9    10    1
    36     9    11    1
    37    10    12    1
    38    11     5    1
    39    33    34    1
    40    33    35    1
    41    34    36    1
    42    35    37    1
    43    37    43    1
    44    20    21   ar
    45    21    22   ar
@<TRIPOS>MOLECULE
*****
 43 45 0 0 0
SMALL
GASTEIGER

@<TRIPOS>ATOM
      1 P          22.3651   75.5999   -7.0680 P.3     1  UNL1        0.2189
      2 O          21.6915   77.0581   -6.8711 O.co2   1  UNL1       -0.4371
      3 O          23.7936   75.6186   -7.5270 O.2     1  UNL1       -0.5170
      4 O          21.3271   74.8197   -8.0334 O.3     1  UNL1       -0.3112
      5 C          20.4272   73.8946   -7.4513 C.3     1  UNL1        0.1811
      6 O          19.8046   71.6511   -8.0486 O.3     1  UNL1       -0.3308
      7 O          18.1800   72.8855  -10.2460 O.3     1  UNL1       -0.3794
      8 O          16.2965   72.3242   -8.3556 O.3     1  UNL1       -0.3779
      9 C          18.4205   73.3633   -8.9222 C.3     1  UNL1        0.1713
     10 C          17.6196   72.5583   -7.9208 C.3     1  UNL1        0.1895
     11 C          19.8520   73.0058   -8.5465 C.3     1  UNL1        0.1764
     12 C          18.4359   71.2812   -7.8178 C.3     1  UNL1        0.2383
     13 H          17.2712   73.1023  -10.5082 H       1  UNL1        0.2105
     14 H          15.8183   73.1674   -8.4046 H       1  UNL1        0.2106
     15 O          16.1642   69.8752   -6.9018 O.2     1  UNL1       -0.2464
     16 O          18.1413   68.9621   -2.8396 O.2     1  UNL1       -0.2670
     17 N          18.3301   70.6660   -6.5250 N.ar    1  UNL1       -0.2551
     18 N          17.1507   69.4227   -4.8791 N.ar    1  UNL1       -0.2743
     19 C          17.1447   69.9836   -6.1630 C.ar    1  UNL1        0.3323
     20 C          19.3925   70.7405   -5.6325 C.ar    1  UNL1        0.0869
     21 C          19.3835   70.2007   -4.4121 C.ar    1  UNL1        0.0795
     22 C          18.1825   69.4709   -3.9557 C.ar    1  UNL1        0.2626
     23 H          16.3355   68.9442   -4.6037 H       1  UNL1        0.1734
     24 O          22.1279   74.8939   -5.6334 O.3     1  UNL1       -0.2703
     25 P          21.5725   75.4887   -4.2366 P.3     1  UNL1        0.2208
     26 O          20.0177   75.8023   -4.5603 O.co2   1  UNL1       -0.4371
     27 O          22.3458   76.6663   -3.7178 O.2     1  UNL1       -0.5170
     28 O          21.5331   74.2216   -3.2389 O.3     1  UNL1       -0.2858
     29 O          22.2509   73.6764   -1.0488 O.3     1  UNL1       -0.3226
     30 O          23.5124   70.3777   -3.1925 O.3     1  UNL1       -0.3794
     31 O          23.8367   73.0672   -4.2862 O.3     1  UNL1       -0.3775
     32 O          21.1614   70.2009   -1.4919 O.3     1  UNL1       -0.3792
     33 C          22.6612   71.4797   -2.8776 C.3     1  UNL1        0.1718
     34 C          23.4622   72.7803   -2.9438 C.3     1  UNL1        0.1968
     35 C          22.1117   71.2643   -1.4657 C.3     1  UNL1        0.1723
     36 C          22.6490   73.9522   -2.3923 C.3     1  UNL1        0.2706
     37 C          21.4240   72.5201   -0.9380 C.3     1  UNL1        0.1830
     38 H          23.8735   70.4928   -4.0857 H       1  UNL1        0.2105
     39 H          24.3528   72.3276   -4.6426 H       1  UNL1        0.2106
     40 H          21.5864   69.3956   -1.8261 H       1  UNL1        0.2106
     41 O          21.4721   71.1674    0.9776 O.co2   1  UNL1       -0.5466
     42 O          20.7939   73.3277    1.2465 O.co2   1  UNL1       -0.5466
     43 C          21.1873   72.4167    0.5336 C.2     1  UNL1        0.0799
@<TRIPOS>UNITY_ATOM_ATTR
2 1
charge -1
26 1
charge -1
41 1
charge -1
@<TRIPOS>BOND
     1     1     4    1
     2     1    24    1
     3     1     2    1
     4     1     3    2
     5    25    28    1
     6    25    24    1
     7    25    26    1
     8    25    27    2
     9     6    11    1
    10     6    12    1
    11    29    36    1
    12    29    37    1
    13     7     9    1
    14     7    13    1
    15     8    10    1
    16     8    14    1
    17     4     5    1
    18    28    36    1
    19    30    33    1
    20    30    38    1
    21    31    34    1
    22    31    39    1
    23    32    35    1
    24    32    40    1
    25    41    43   ar
    26    15    19    2
    27    42    43   ar
    28    16    22    2
    29    17    12    1
    30    17    19   ar
    31    17    20   ar
    32    18    19   ar
    33    18    22   ar
    34    18    23    1
    35     9    10    1
    36     9    11    1
    37    10    12    1
    38    11     5    1
    39    33    34    1
    40    33    35    1
    41    34    36    1
    42    35    37    1
    43    37    43    1
    44    20    21   ar
    45    21    22   ar
@<TRIPOS>MOLECULE
*****
 43 45 0 0 0
SMALL
GASTEIGER

@<TRIPOS>ATOM
      1 P          18.9753   70.1429   -3.3216 P.3     1  UNL1        0.2189
      2 O          18.0229   69.1033   -2.5273 O.co2   1  UNL1       -0.4371
      3 O          19.8271   69.5294   -4.3940 O.2     1  UNL1       -0.5170
      4 O          19.7744   70.9144   -2.1452 O.3     1  UNL1       -0.3112
      5 C          20.1972   72.2458   -2.3757 C.3     1  UNL1        0.1811
      6 O          22.2812   73.1718   -1.6159 O.3     1  UNL1       -0.3308
      7 O          23.6004   70.8753   -3.0220 O.3     1  UNL1       -0.3794
      8 O          23.6309   70.0749   -0.4154 O.3     1  UNL1       -0.3779
      9 C          22.3612   70.9096   -2.3137 C.3     1  UNL1        0.1713
     10 C          22.6118   70.9643   -0.8215 C.3     1  UNL1        0.1895
     11 C          21.7071   72.2592   -2.5765 C.3     1  UNL1        0.1764
     12 C          22.9921   72.4211   -0.6188 C.3     1  UNL1        0.2383
     13 H          24.0370   70.0222   -2.8693 H       1  UNL1        0.2105
     14 H          23.3405   69.1608   -0.5643 H       1  UNL1        0.2106
     15 O          21.2031   71.1086    1.1287 O.2     1  UNL1       -0.2464
     16 O          21.6587   74.3785    4.3450 O.2     1  UNL1       -0.2670
     17 N          22.6254   72.9073    0.6813 N.ar    1  UNL1       -0.2551
     18 N          21.4309   72.7390    2.7285 N.ar    1  UNL1       -0.2743
     19 C          21.7181   72.1718    1.4799 C.ar    1  UNL1        0.3323
     20 C          23.1635   74.0983    1.1535 C.ar    1  UNL1        0.0869
     21 C          22.8803   74.6262    2.3459 C.ar    1  UNL1        0.0795
     22 C          21.9404   73.9208    3.2416 C.ar    1  UNL1        0.2626
     23 H          20.8001   72.2460    3.3015 H       1  UNL1        0.1734
     24 O          17.9331   71.2612   -3.8470 O.3     1  UNL1       -0.2703
     25 P          16.8742   71.2348   -5.0683 P.3     1  UNL1        0.2208
     26 O          15.5463   71.8966   -4.4208 O.co2   1  UNL1       -0.4371
     27 O          16.6584   69.8750   -5.6670 O.2     1  UNL1       -0.5170
     28 O          17.4178   72.3444   -6.1055 O.3     1  UNL1       -0.2858
     29 O          19.2816   71.5022   -7.2997 O.3     1  UNL1       -0.3226
     30 O          19.0586   75.3776   -8.7136 O.3     1  UNL1       -0.3794
     31 O          18.6770   74.8135   -5.8727 O.3     1  UNL1       -0.3775
     32 O          18.1456   73.1668  -10.3657 O.3     1  UNL1       -0.3792
     33 C          18.5499   74.1459   -8.2017 C.3     1  UNL1        0.1718
     34 C          19.1584   73.8731   -6.8259 C.3     1  UNL1        0.1968
     35 C          18.9298   73.0336   -9.1818 C.3     1  UNL1        0.1723
     36 C          18.8187   72.4608   -6.3477 C.3     1  UNL1        0.2706
     37 C          18.6777   71.6531   -8.5825 C.3     1  UNL1        0.1830
     38 H          18.8293   76.0993   -8.1071 H       1  UNL1        0.2105
     39 H          18.8888   75.7119   -6.1700 H       1  UNL1        0.2106
     40 H          18.2967   74.0414  -10.7570 H       1  UNL1        0.2106
     41 O          20.2636   69.9263   -8.6507 O.co2   1  UNL1       -0.5466
     42 O          19.1038   70.3495  -10.5676 O.co2   1  UNL1       -0.5466
     43 C          19.3462   70.5921   -9.3948 C.2     1  UNL1        0.0799
@<TRIPOS>UNITY_ATOM_ATTR
2 1
charge -1
26 1
charge -1
41 1
charge -1
@<TRIPOS>BOND
     1     1     4    1
     2     1    24    1
     3     1     2    1
     4     1     3    2
     5    25    28    1
     6    25    24    1
     7    25    26    1
     8    25    27    2
     9     6    11    1
    10     6    12    1
    11    29    36    1
    12    29    37    1
    13     7     9    1
    14     7    13    1
    15     8    10    1
    16     8    14    1
    17     4     5    1
    18    28    36    1
    19    30    33    1
    20    30    38    1
    21    31    34    1
    22    31    39    1
    23    32    35    1
    24    32    40    1
    25    41    43   ar
    26    15    19    2
    27    42    43   ar
    28    16    22    2
    29    17    12    1
    30    17    19   ar
    31    17    20   ar
    32    18    19   ar
    33    18    22   ar
    34    18    23    1
    35     9    10    1
    36     9    11    1
    37    10    12    1
    38    11     5    1
    39    33    34    1
    40    33    35    1
    41    34    36    1
    42    35    37    1
    43    37    43    1
    44    20    21   ar
    45    21    22   ar
@<TRIPOS>MOLECULE
*****
 43 45 0 0 0
SMALL
GASTEIGER

@<TRIPOS>ATOM
      1 P          21.6067   73.5662   -5.8683 P.3     1  UNL1        0.2189
      2 O          20.6109   74.6609   -5.2133 O.co2   1  UNL1       -0.4371
      3 O          22.8767   74.1262   -6.4386 O.2     1  UNL1       -0.5170
      4 O          20.6661   72.7582   -6.9077 O.3     1  UNL1       -0.3112
      5 C          19.8982   71.6727   -6.4214 C.3     1  UNL1        0.1811
      6 O          17.6786   71.2066   -7.2173 O.3     1  UNL1       -0.3308
      7 O          18.9051   70.9769   -9.9438 O.3     1  UNL1       -0.3794
      8 O          17.8109   73.4742   -9.9912 O.3     1  UNL1       -0.3779
      9 C          19.2426   71.8583   -8.8725 C.3     1  UNL1        0.1713
     10 C          18.1978   72.9460   -8.7398 C.3     1  UNL1        0.1895
     11 C          19.0755   71.0949   -7.5658 C.3     1  UNL1        0.1764
     12 C          17.0665   72.2129   -8.0394 C.3     1  UNL1        0.2383
     13 H          19.0043   71.4425  -10.7895 H       1  UNL1        0.2105
     14 H          18.5652   73.9310  -10.3965 H       1  UNL1        0.2106
     15 O          14.8662   73.7323   -8.9487 O.2     1  UNL1       -0.2464
     16 O          14.1314   75.5121   -4.7610 O.2     1  UNL1       -0.2670
     17 N          16.2823   73.0817   -7.2080 N.ar    1  UNL1       -0.2551
     18 N          14.5029   74.6181   -6.8623 N.ar    1  UNL1       -0.2743
     19 C          15.1976   73.8006   -7.7636 C.ar    1  UNL1        0.3323
     20 C          16.5890   73.2137   -5.8592 C.ar    1  UNL1        0.0869
     21 C          15.9176   73.9967   -5.0125 C.ar    1  UNL1        0.0795
     22 C          14.7706   74.7826   -5.5130 C.ar    1  UNL1        0.2626
     23 H          13.7449   75.1300   -7.2264 H       1  UNL1        0.1734
     24 O          21.8183   72.5041   -4.6683 O.3     1  UNL1       -0.2703
     25 P          23.0396   72.3082   -3.6273 P.3     1  UNL1        0.2208
     26 O          24.1957   73.2686   -4.2285 O.co2   1  UNL1       -0.4371
     27 O          23.4606   70.8802   -3.4337 O.2     1  UNL1       -0.5170
     28 O          22.5526   73.0511   -2.2807 O.3     1  UNL1       -0.2858
     29 O          20.4690   71.9360   -2.4360 O.3     1  UNL1       -0.3226
     30 O          21.0851   72.0011    1.6486 O.3     1  UNL1       -0.3794
     31 O          21.6904   74.3511    0.0221 O.3     1  UNL1       -0.3775
     32 O          21.4888   69.5424    0.1511 O.3     1  UNL1       -0.3792
     33 C          21.4664   71.9485    0.2739 C.3     1  UNL1        0.1718
     34 C          20.9790   73.2091   -0.4409 C.3     1  UNL1        0.1968
     35 C          20.8275   70.7040   -0.3467 C.3     1  UNL1        0.1723
     36 C          21.1645   73.0863   -1.9540 C.3     1  UNL1        0.2706
     37 C          20.9446   70.7176   -1.8681 C.3     1  UNL1        0.1830
     38 H          21.4796   72.7842    2.0640 H       1  UNL1        0.2105
     39 H          21.5772   74.4349    0.9815 H       1  UNL1        0.2106
     40 H          21.4218   69.5218    1.1185 H       1  UNL1        0.2106
     41 O          20.5945   69.1913   -3.6144 O.co2   1  UNL1       -0.5466
     42 O          18.9693   69.3406   -2.0220 O.co2   1  UNL1       -0.5466
     43 C          20.0475   69.6904   -2.4783 C.2     1  UNL1        0.0799
@<TRIPOS>UNITY_ATOM_ATTR
2 1
charge -1
26 1
charge -1
41 1
charge -1
@<TRIPOS>BOND
     1     1     4    1
     2     1    24    1
     3     1     2    1
     4     1     3    2
     5    25    28    1
     6    25    24    1
     7    25    26    1
     8    25    27    2
     9     6    11    1
    10     6    12    1
    11    29    36    1
    12    29    37    1
    13     7     9    1
    14     7    13    1
    15     8    10    1
    16     8    14    1
    17     4     5    1
    18    28    36    1
    19    30    33    1
    20    30    38    1
    21    31    34    1
    22    31    39    1
    23    32    35    1
    24    32    40    1
    25    41    43   ar
    26    15    19    2
    27    42    43   ar
    28    16    22    2
    29    17    12    1
    30    17    19   ar
    31    17    20   ar
    32    18    19   ar
    33    18    22   ar
    34    18    23    1
    35     9    10    1
    36     9    11    1
    37    10    12    1
    38    11     5    1
    39    33    34    1
    40    33    35    1
    41    34    36    1
    42    35    37    1
    43    37    43    1
    44    20    21   ar
    45    21    22   ar
@<TRIPOS>MOLECULE
*****
 43 45 0 0 0
SMALL
GASTEIGER

@<TRIPOS>ATOM
      1 P          21.8388   70.6924   -0.2091 P.3     1  UNL1        0.2189
      2 O          23.0864   70.6851   -1.2398 O.co2   1  UNL1       -0.4371
      3 O          21.5418   69.3703    0.4355 O.2     1  UNL1       -0.5170
      4 O          20.6306   71.3434   -1.0662 O.3     1  UNL1       -0.3112
      5 C          20.5611   71.0687   -2.4533 C.3     1  UNL1        0.1811
      6 O          20.9108   72.0422   -4.6230 O.3     1  UNL1       -0.3308
      7 O          21.6123   74.5700   -3.1704 O.3     1  UNL1       -0.3794
      8 O          19.0488   75.0367   -3.9746 O.3     1  UNL1       -0.3779
      9 C          20.6351   73.5816   -2.8439 C.3     1  UNL1        0.1713
     10 C          19.4437   73.6961   -3.7711 C.3     1  UNL1        0.1895
     11 C          21.2014   72.2190   -3.2196 C.3     1  UNL1        0.1764
     12 C          19.9663   73.0415   -5.0385 C.3     1  UNL1        0.2383
     13 H          21.2731   75.4493   -2.9393 H       1  UNL1        0.2105
     14 H          18.7238   75.4084   -3.1390 H       1  UNL1        0.2106
     15 O          19.7386   70.2535   -5.4279 O.2     1  UNL1       -0.2464
     16 O          15.9291   70.7365   -7.9771 O.2     1  UNL1       -0.2670
     17 N          18.9247   72.4117   -5.7996 N.ar    1  UNL1       -0.2551
     18 N          17.8420   70.4968   -6.6980 N.ar    1  UNL1       -0.2743
     19 C          18.9016   71.0034   -5.9340 C.ar    1  UNL1        0.3323
     20 C          17.9402   73.1861   -6.4013 C.ar    1  UNL1        0.0869
     21 C          16.9364   72.6889   -7.1265 C.ar    1  UNL1        0.0795
     22 C          16.8399   71.2267   -7.3164 C.ar    1  UNL1        0.2626
     23 H          17.8061   69.5190   -6.8075 H       1  UNL1        0.1734
     24 O          22.2285   71.8728    0.8241 O.3     1  UNL1       -0.2703
     25 P          22.0862   73.4787    0.7037 P.3     1  UNL1        0.2208
     26 O          20.4881   73.6996    0.5720 O.co2   1  UNL1       -0.4371
     27 O          22.8883   74.0862   -0.4106 O.2     1  UNL1       -0.5170
     28 O          22.4542   74.0336    2.1731 O.3     1  UNL1       -0.2858
     29 O          24.0968   73.7748    3.8596 O.3     1  UNL1       -0.3226
     30 O          20.6018   73.2862    6.0078 O.3     1  UNL1       -0.3794
     31 O          20.9044   72.0604    3.3734 O.3     1  UNL1       -0.3775
     32 O          22.0964   75.7723    6.1986 O.3     1  UNL1       -0.3792
     33 C          21.4315   73.8090    4.9704 C.3     1  UNL1        0.1718
     34 C          21.9623   72.6606    4.1119 C.3     1  UNL1        0.1968
     35 C          22.5906   74.5628    5.6265 C.3     1  UNL1        0.1723
     36 C          23.0319   73.1553    3.1372 C.3     1  UNL1        0.2706
     37 C          23.6747   74.9110    4.6106 C.3     1  UNL1        0.1830
     38 H          19.8582   72.8028    5.6146 H       1  UNL1        0.2105
     39 H          20.2219   71.7445    3.9856 H       1  UNL1        0.2106
     40 H          21.4055   75.5647    6.8469 H       1  UNL1        0.2106
     41 O          25.9458   74.4908    5.0192 O.co2   1  UNL1       -0.5466
     42 O          25.0319   76.3264    6.0164 O.co2   1  UNL1       -0.5466
     43 C          24.9283   75.3423    5.2996 C.2     1  UNL1        0.0799
@<TRIPOS>UNITY_ATOM_ATTR
2 1
charge -1
26 1
charge -1
41 1
charge -1
@<TRIPOS>BOND
     1     1     4    1
     2     1    24    1
     3     1     2    1
     4     1     3    2
     5    25    28    1
     6    25    24    1
     7    25    26    1
     8    25    27    2
     9     6    11    1
    10     6    12    1
    11    29    36    1
    12    29    37    1
    13     7     9    1
    14     7    13    1
    15     8    10    1
    16     8    14    1
    17     4     5    1
    18    28    36    1
    19    30    33    1
    20    30    38    1
    21    31    34    1
    22    31    39    1
    23    32    35    1
    24    32    40    1
    25    41    43   ar
    26    15    19    2
    27    42    43   ar
    28    16    22    2
    29    17    12    1
    30    17    19   ar
    31    17    20   ar
    32    18    19   ar
    33    18    22   ar
    34    18    23    1
    35     9    10    1
    36     9    11    1
    37    10    12    1
    38    11     5    1
    39    33    34    1
    40    33    35    1
    41    34    36    1
    42    35    37    1
    43    37    43    1
    44    20    21   ar
    45    21    22   ar
@<TRIPOS>MOLECULE
*****
 43 45 0 0 0
SMALL
GASTEIGER

@<TRIPOS>ATOM
      1 P          23.2103   74.5169   -4.0035 P.3     1  UNL1        0.2189
      2 O          24.2162   73.2520   -4.0874 O.co2   1  UNL1       -0.4371
      3 O          23.6439   75.7240   -4.7825 O.2     1  UNL1       -0.5170
      4 O          23.0025   74.7434   -2.4150 O.3     1  UNL1       -0.3112
      5 C          23.5648   73.8027   -1.5186 C.3     1  UNL1        0.1811
      6 O          22.8325   72.4677    0.3412 O.3     1  UNL1       -0.3308
      7 O          20.0886   72.6389   -0.8558 O.3     1  UNL1       -0.3794
      8 O          19.9860   74.4966    1.1377 O.3     1  UNL1       -0.3779
      9 C          21.1239   73.6216   -0.8248 C.3     1  UNL1        0.1713
     10 C          21.2447   74.2120    0.5641 C.3     1  UNL1        0.1895
     11 C          22.4575   72.9042   -0.9832 C.3     1  UNL1        0.1764
     12 C          21.9924   73.1184    1.3077 C.3     1  UNL1        0.2383
     13 H          19.2267   73.0735   -0.7564 H       1  UNL1        0.2105
     14 H          19.5501   75.1988    0.6289 H       1  UNL1        0.2106
     15 O          21.9709   72.1536    3.9620 O.2     1  UNL1       -0.2464
     16 O          25.1821   75.1846    5.2831 O.2     1  UNL1       -0.2670
     17 N          22.8127   73.6372    2.3654 N.ar    1  UNL1       -0.2551
     18 N          23.5695   73.6648    4.6177 N.ar    1  UNL1       -0.2743
     19 C          22.7251   73.0816    3.6638 C.ar    1  UNL1        0.3323
     20 C          23.6922   74.6827    2.1119 C.ar    1  UNL1        0.0869
     21 C          24.4909   75.2281    3.0314 C.ar    1  UNL1        0.0795
     22 C          24.4603   74.7062    4.4134 C.ar    1  UNL1        0.2626
     23 H          23.5249   73.2961    5.5295 H       1  UNL1        0.1734
     24 O          21.7961   73.8875   -4.4689 O.3     1  UNL1       -0.2703
     25 P          21.1961   73.5989   -5.9421 P.3     1  UNL1        0.2208
     26 O          22.2805   72.5875   -6.5914 O.co2   1  UNL1       -0.4371
     27 O          20.9387   74.8345   -6.7551 O.2     1  UNL1       -0.5170
     28 O          19.8924   72.6853   -5.6814 O.3     1  UNL1       -0.2858
     29 O          20.0008   70.4665   -4.8601 O.3     1  UNL1       -0.3226
     30 O          16.3115   70.4954   -6.7191 O.3     1  UNL1       -0.3794
     31 O          18.6146   71.7772   -7.9789 O.3     1  UNL1       -0.3775
     32 O          16.4855   70.6156   -3.8198 O.3     1  UNL1       -0.3792
     33 C          17.4130   71.0506   -6.0005 C.3     1  UNL1        0.1718
     34 C          18.6853   70.9280   -6.8394 C.3     1  UNL1        0.1968
     35 C          17.5625   70.2740   -4.6903 C.3     1  UNL1        0.1723
     36 C          19.9204   71.2993   -6.0175 C.3     1  UNL1        0.2706
     37 C          18.8781   70.6069   -3.9925 C.3     1  UNL1        0.1830
     38 H          16.1973   70.9732   -7.5558 H       1  UNL1        0.2105
     39 H          17.8330   71.5474   -8.5049 H       1  UNL1        0.2106
     40 H          15.6422   70.4088   -4.2522 H       1  UNL1        0.2106
     41 O          20.4968   69.5749   -2.6448 O.co2   1  UNL1       -0.5466
     42 O          18.3274   68.9474   -2.3298 O.co2   1  UNL1       -0.5466
     43 C          19.1672   69.6212   -2.9076 C.2     1  UNL1        0.0799
@<TRIPOS>UNITY_ATOM_ATTR
2 1
charge -1
26 1
charge -1
41 1
charge -1
@<TRIPOS>BOND
     1     1     4    1
     2     1    24    1
     3     1     2    1
     4     1     3    2
     5    25    28    1
     6    25    24    1
     7    25    26    1
     8    25    27    2
     9     6    11    1
    10     6    12    1
    11    29    36    1
    12    29    37    1
    13     7     9    1
    14     7    13    1
    15     8    10    1
    16     8    14    1
    17     4     5    1
    18    28    36    1
    19    30    33    1
    20    30    38    1
    21    31    34    1
    22    31    39    1
    23    32    35    1
    24    32    40    1
    25    41    43   ar
    26    15    19    2
    27    42    43   ar
    28    16    22    2
    29    17    12    1
    30    17    19   ar
    31    17    20   ar
    32    18    19   ar
    33    18    22   ar
    34    18    23    1
    35     9    10    1
    36     9    11    1
    37    10    12    1
    38    11     5    1
    39    33    34    1
    40    33    35    1
    41    34    36    1
    42    35    37    1
    43    37    43    1
    44    20    21   ar
    45    21    22   ar
