@<TRIPOS>MOLECULE
UD1
 46 48 0 0 0
SMALL
GASTEIGER

@<TRIPOS>ATOM
      1 P          21.7035   70.8560   -2.5601 P.3     1  UNL1        0.2189
      2 O          23.1702   71.0159   -2.6694 O.2     1  UNL1       -0.5170
      3 O          21.3123   69.3129   -2.8013 O.3     1  UNL1       -0.4371
      4 O          20.9802   71.7717   -3.6696 O.3     1  UNL1       -0.3112
      5 C          19.9288   72.4742   -3.0052 C.3     1  UNL1        0.1811
      6 C          17.9098   71.3450   -5.7576 C.3     1  UNL1        0.2383
      7 C          17.9988   70.1200   -4.8133 C.3     1  UNL1        0.1895
      8 O          16.8198   69.3193   -4.9024 O.3     1  UNL1       -0.3779
      9 C          18.1082   70.7908   -3.4193 C.3     1  UNL1        0.1713
     10 C          18.6057   72.2162   -3.7277 C.3     1  UNL1        0.1764
     11 O          18.7996   72.3053   -5.1496 O.3     1  UNL1       -0.3308
     12 O          16.8304   70.8273   -2.7800 O.3     1  UNL1       -0.3794
     13 H          16.9386   68.5770   -4.2938 H       1  UNL1        0.2106
     14 H          16.5474   69.9099   -2.6689 H       1  UNL1        0.2105
     15 N          18.3673   70.9975   -7.1035 N.ar    1  UNL1       -0.2551
     16 C          17.4717   70.6388   -8.0398 C.ar    1  UNL1        0.3323
     17 N          17.8636   70.3179   -9.2870 N.ar    1  UNL1       -0.2743
     18 C          19.1709   70.3427   -9.6160 C.ar    1  UNL1        0.2626
     19 C          20.1250   70.7127   -8.6384 C.ar    1  UNL1        0.0795
     20 C          19.7039   71.0350   -7.3966 C.ar    1  UNL1        0.0869
     21 O          16.2890   70.6117   -7.7584 O.2     1  UNL1       -0.2464
     22 O          19.5268   70.0481  -10.7420 O.2     1  UNL1       -0.2670
     23 H          17.2035   70.0660   -9.9511 H       1  UNL1        0.1734
     24 O          21.2220   71.3097   -1.0934 O.3     1  UNL1       -0.2703
     25 P          22.3052   70.7365   -0.0505 P.3     1  UNL1        0.2208
     26 O          23.4980   70.2648   -0.7878 O.2     1  UNL1       -0.5170
     27 O          21.6632   69.5098    0.7711 O.3     1  UNL1       -0.4371
     28 O          22.7338   71.9011    0.9745 O.3     1  UNL1       -0.2865
     29 C          21.5393   72.5984    1.3325 C.3     1  UNL1        0.2611
     30 C          21.6879   74.0760    0.9657 C.3     1  UNL1        0.1582
     31 C          22.8968   74.6574    1.7073 C.3     1  UNL1        0.1625
     32 C          22.7384   74.3699    3.2041 C.3     1  UNL1        0.1686
     33 C          22.5136   72.8694    3.4023 C.3     1  UNL1        0.1760
     34 O          22.9579   76.0685    1.4913 O.3     1  UNL1       -0.3801
     35 O          23.9218   74.7728    3.8961 O.3     1  UNL1       -0.3794
     36 O          21.3173   72.4689    2.7351 O.3     1  UNL1       -0.3263
     37 H          23.7310   76.3918    1.9740 H       1  UNL1        0.2105
     38 H          23.7798   74.5737    4.8324 H       1  UNL1        0.2105
     39 C          23.1362   74.3205   -0.9777 C.2     1  UNL1        0.2231
     40 C          23.3441   74.4530   -2.4648 C.3     1  UNL1        0.0946
     41 N          21.8904   74.2042   -0.4789 N.am    1  UNL1       -0.2994
     42 O          24.0906   74.3193   -0.2299 O.2     1  UNL1       -0.2751
     43 H          21.1265   74.2055   -1.0772 H       1  UNL1        0.1496
     44 C          22.3865   72.5670    4.8968 C.3     1  UNL1        0.1693
     45 O          21.0950   72.9704    5.3566 O.3     1  UNL1       -0.3794
     46 H          21.0566   72.7632    6.3002 H       1  UNL1        0.2105
@<TRIPOS>BOND
     1    29    30    1
     2    29    28    1
     3    29    36    1
     4    30    31    1
     5    30    41    1
     6    31    32    1
     7    31    34    1
     8    32    33    1
     9    32    35    1
    10    33    44    1
    11    33    36    1
    12    44    45    1
    13    39    40    1
    14    39    41   am
    15    39    42    2
    16    41    43    1
    17    28    25    1
    18    34    37    1
    19    35    38    1
    20    45    46    1
    21    15    16   ar
    22    15    20   ar
    23    15     6    1
    24    16    17   ar
    25    16    21    2
    26    17    18   ar
    27    17    23    1
    28    18    19   ar
    29    18    22    2
    30    19    20   ar
    31     6     7    1
    32     6    11    1
    33     7     8    1
    34     7     9    1
    35     8    13    1
    36     9    10    1
    37     9    12    1
    38    10    11    1
    39    10     5    1
    40    12    14    1
    41     5     4    1
    42     4     1    1
    43     1     2    2
    44     1     3    1
    45     1    24    1
    46    24    25    1
    47    25    26    2
    48    25    27    1
@<TRIPOS>MOLECULE
UD1
 46 48 0 0 0
SMALL
GASTEIGER

@<TRIPOS>ATOM
      1 P          21.6159   71.0416   -0.9357 P.3     1  UNL1        0.2189
      2 O          21.2604   69.9417   -0.0123 O.2     1  UNL1       -0.5170
      3 O          22.8835   70.6051   -1.8275 O.3     1  UNL1       -0.4371
      4 O          21.9872   72.3572   -0.0847 O.3     1  UNL1       -0.3112
      5 C          20.9412   72.5411    0.8705 C.3     1  UNL1        0.1811
      6 C          23.1796   73.7189    3.4258 C.3     1  UNL1        0.2383
      7 C          21.8980   74.5696    3.6101 C.3     1  UNL1        0.1895
      8 O          21.7198   74.9354    4.9790 O.3     1  UNL1       -0.3779
      9 C          20.7876   73.5895    3.1502 C.3     1  UNL1        0.1713
     10 C          21.5340   72.5597    2.2802 C.3     1  UNL1        0.1764
     11 O          22.9131   72.9627    2.2254 O.3     1  UNL1       -0.3308
     12 O          20.1814   72.9552    4.2784 O.3     1  UNL1       -0.3794
     13 H          20.9093   75.4611    5.0252 H       1  UNL1        0.2106
     14 H          19.7842   73.6559    4.8127 H       1  UNL1        0.2105
     15 N          24.3512   74.5770    3.2458 N.ar    1  UNL1       -0.2551
     16 C          25.1536   74.8373    4.2926 C.ar    1  UNL1        0.3323
     17 N          26.2402   75.6200    4.1552 N.ar    1  UNL1       -0.2743
     18 C          26.5374   76.1661    2.9589 C.ar    1  UNL1        0.2626
     19 C          25.6979   75.9051    1.8498 C.ar    1  UNL1        0.0795
     20 C          24.6174   75.1123    2.0143 C.ar    1  UNL1        0.0869
     21 O          24.8988   74.3520    5.3780 O.2     1  UNL1       -0.2464
     22 O          27.5170   76.8778    2.8346 O.2     1  UNL1       -0.2670
     23 H          26.8105   75.7933    4.9200 H       1  UNL1        0.1734
     24 O          20.3660   71.3600   -1.8975 O.3     1  UNL1       -0.2703
     25 P          20.9038   72.3502   -3.0463 P.3     1  UNL1        0.2208
     26 O          22.1365   71.7903   -3.6426 O.2     1  UNL1       -0.5170
     27 O          21.2253   73.7919   -2.4057 O.3     1  UNL1       -0.4371
     28 O          19.7804   72.5103   -4.1877 O.3     1  UNL1       -0.2865
     29 C          20.1843   71.6893   -5.2849 C.3     1  UNL1        0.2611
     30 C          19.8234   72.3870   -6.5975 C.3     1  UNL1        0.1582
     31 C          18.3110   72.6339   -6.6345 C.3     1  UNL1        0.1625
     32 C          17.5911   71.3047   -6.3832 C.3     1  UNL1        0.1686
     33 C          18.1184   70.6901   -5.0849 C.3     1  UNL1        0.1760
     34 O          17.9409   73.1480   -7.9152 O.3     1  UNL1       -0.3801
     35 O          16.1860   71.5367   -6.2676 O.3     1  UNL1       -0.3794
     36 O          19.5166   70.4318   -5.2068 O.3     1  UNL1       -0.3263
     37 H          16.9843   73.2886   -7.8940 H       1  UNL1        0.2105
     38 H          15.7725   70.6761   -6.1095 H       1  UNL1        0.2105
     39 C          21.8607   73.6878   -6.9002 C.2     1  UNL1        0.2231
     40 C          22.5892   75.0046   -6.9880 C.3     1  UNL1        0.0946
     41 N          20.5315   73.6659   -6.6834 N.am    1  UNL1       -0.2994
     42 O          22.4713   72.6477   -7.0241 O.2     1  UNL1       -0.2751
     43 H          20.0426   74.4982   -6.5839 H       1  UNL1        0.1496
     44 C          17.3824   69.3776   -4.8077 C.3     1  UNL1        0.1693
     45 O          17.8509   68.8187   -3.5788 O.3     1  UNL1       -0.3794
     46 H          17.3633   67.9951   -3.4421 H       1  UNL1        0.2105
@<TRIPOS>BOND
     1    29    30    1
     2    29    28    1
     3    29    36    1
     4    30    31    1
     5    30    41    1
     6    31    32    1
     7    31    34    1
     8    32    33    1
     9    32    35    1
    10    33    44    1
    11    33    36    1
    12    44    45    1
    13    39    40    1
    14    39    41   am
    15    39    42    2
    16    41    43    1
    17    28    25    1
    18    34    37    1
    19    35    38    1
    20    45    46    1
    21    15    16   ar
    22    15    20   ar
    23    15     6    1
    24    16    17   ar
    25    16    21    2
    26    17    18   ar
    27    17    23    1
    28    18    19   ar
    29    18    22    2
    30    19    20   ar
    31     6     7    1
    32     6    11    1
    33     7     8    1
    34     7     9    1
    35     8    13    1
    36     9    10    1
    37     9    12    1
    38    10    11    1
    39    10     5    1
    40    12    14    1
    41     5     4    1
    42     4     1    1
    43     1     2    2
    44     1     3    1
    45     1    24    1
    46    24    25    1
    47    25    26    2
    48    25    27    1
@<TRIPOS>MOLECULE
UD1
 46 48 0 0 0
SMALL
GASTEIGER

@<TRIPOS>ATOM
      1 P          22.0607   70.3091   -0.3757 P.3     1  UNL1        0.2189
      2 O          22.7910   71.4281   -1.0106 O.2     1  UNL1       -0.5170
      3 O          23.1128   69.2017    0.1334 O.3     1  UNL1       -0.4371
      4 O          21.0604   69.6446   -1.4484 O.3     1  UNL1       -0.3112
      5 C          21.1720   70.4111   -2.6486 C.3     1  UNL1        0.1811
      6 C          18.5448   70.9005   -5.0539 C.3     1  UNL1        0.2383
      7 C          18.2385   69.5205   -4.4199 C.3     1  UNL1        0.1895
      8 O          16.8335   69.2655   -4.4047 O.3     1  UNL1       -0.3779
      9 C          18.7847   69.6956   -2.9790 C.3     1  UNL1        0.1713
     10 C          19.7816   70.8648   -3.0961 C.3     1  UNL1        0.1764
     11 O          19.8180   71.2616   -4.4776 O.3     1  UNL1       -0.3308
     12 O          17.7243   70.0222   -2.0782 O.3     1  UNL1       -0.3794
     13 H          16.7110   68.3955   -4.0002 H       1  UNL1        0.2106
     14 H          17.1055   69.2799   -2.0944 H       1  UNL1        0.2105
     15 N          18.6493   70.7917   -6.5095 N.ar    1  UNL1       -0.2551
     16 C          17.5333   70.7859   -7.2591 C.ar    1  UNL1        0.3323
     17 N          17.5997   70.6909   -8.6003 N.ar    1  UNL1       -0.2743
     18 C          18.7949   70.5901   -9.2160 C.ar    1  UNL1        0.2626
     19 C          19.9775   70.5889   -8.4386 C.ar    1  UNL1        0.0795
     20 C          19.8823   70.6907   -7.0955 C.ar    1  UNL1        0.0869
     21 O          16.4479   70.8762   -6.7183 O.2     1  UNL1       -0.2464
     22 O          18.8558   70.4993  -10.4282 O.2     1  UNL1       -0.2670
     23 H          16.7847   70.6931   -9.1256 H       1  UNL1        0.1734
     24 O          21.2143   70.8622    0.8760 O.3     1  UNL1       -0.2703
     25 P          21.5010   72.4428    0.9690 P.3     1  UNL1        0.2208
     26 O          20.5612   73.1673    0.0855 O.2     1  UNL1       -0.5170
     27 O          23.0130   72.7430    0.5042 O.3     1  UNL1       -0.4371
     28 O          21.2997   72.9376    2.4873 O.3     1  UNL1       -0.2865
     29 C          20.9867   74.3304    2.4313 C.3     1  UNL1        0.2611
     30 C          22.0313   75.1152    3.2267 C.3     1  UNL1        0.1582
     31 C          22.0338   74.6191    4.6770 C.3     1  UNL1        0.1625
     32 C          20.6044   74.6965    5.2239 C.3     1  UNL1        0.1686
     33 C          19.6677   73.9406    4.2792 C.3     1  UNL1        0.1760
     34 O          22.8962   75.4430    5.4636 O.3     1  UNL1       -0.3801
     35 O          20.5568   74.1028    6.5227 O.3     1  UNL1       -0.3794
     36 O          19.6921   74.5480    2.9881 O.3     1  UNL1       -0.3263
     37 H          22.8679   75.0959    6.3658 H       1  UNL1        0.2105
     38 H          19.6413   74.1721    6.8286 H       1  UNL1        0.2105
     39 C          23.9251   75.8820    1.9001 C.2     1  UNL1        0.2231
     40 C          25.2872   75.6681    1.2909 C.3     1  UNL1        0.0946
     41 N          23.3548   74.9081    2.6351 N.am    1  UNL1       -0.2994
     42 O          23.3420   76.9311    1.7279 O.2     1  UNL1       -0.2751
     43 H          23.8211   74.0683    2.7729 H       1  UNL1        0.1496
     44 C          18.2423   73.9843    4.8336 C.3     1  UNL1        0.1693
     45 O          18.0500   72.8971    5.7409 O.3     1  UNL1       -0.3794
     46 H          17.1418   72.9613    6.0660 H       1  UNL1        0.2105
@<TRIPOS>BOND
     1    29    30    1
     2    29    28    1
     3    29    36    1
     4    30    31    1
     5    30    41    1
     6    31    32    1
     7    31    34    1
     8    32    33    1
     9    32    35    1
    10    33    44    1
    11    33    36    1
    12    44    45    1
    13    39    40    1
    14    39    41   am
    15    39    42    2
    16    41    43    1
    17    28    25    1
    18    34    37    1
    19    35    38    1
    20    45    46    1
    21    15    16   ar
    22    15    20   ar
    23    15     6    1
    24    16    17   ar
    25    16    21    2
    26    17    18   ar
    27    17    23    1
    28    18    19   ar
    29    18    22    2
    30    19    20   ar
    31     6     7    1
    32     6    11    1
    33     7     8    1
    34     7     9    1
    35     8    13    1
    36     9    10    1
    37     9    12    1
    38    10    11    1
    39    10     5    1
    40    12    14    1
    41     5     4    1
    42     4     1    1
    43     1     2    2
    44     1     3    1
    45     1    24    1
    46    24    25    1
    47    25    26    2
    48    25    27    1
@<TRIPOS>MOLECULE
UD1
 46 48 0 0 0
SMALL
GASTEIGER

@<TRIPOS>ATOM
      1 P          21.7850   70.7634   -0.8445 P.3     1  UNL1        0.2189
      2 O          22.4346   70.2254   -2.0600 O.2     1  UNL1       -0.5170
      3 O          21.5661   69.5739    0.2183 O.3     1  UNL1       -0.4371
      4 O          20.3592   71.4009   -1.2361 O.3     1  UNL1       -0.3112
      5 C          20.4537   71.8211   -2.5981 C.3     1  UNL1        0.1811
      6 C          18.0864   71.2990   -5.2534 C.3     1  UNL1        0.2383
      7 C          18.0414   69.9876   -4.4298 C.3     1  UNL1        0.1895
      8 O          16.7442   69.3931   -4.4857 O.3     1  UNL1       -0.3779
      9 C          18.3579   70.4914   -2.9976 C.3     1  UNL1        0.1713
     10 C          19.0581   71.8454   -3.2233 C.3     1  UNL1        0.1764
     11 O          19.1620   72.0438   -4.6436 O.3     1  UNL1       -0.3308
     12 O          17.1521   70.6630   -2.2497 O.3     1  UNL1       -0.3794
     13 H          16.7833   68.5847   -3.9562 H       1  UNL1        0.2106
     14 H          16.7318   69.7944   -2.1944 H       1  UNL1        0.2105
     15 N          18.3838   71.0198   -6.6587 N.ar    1  UNL1       -0.2551
     16 C          17.3766   70.8082   -7.5237 C.ar    1  UNL1        0.3323
     17 N          17.6206   70.5532   -8.8228 N.ar    1  UNL1       -0.2743
     18 C          18.8886   70.4965   -9.2776 C.ar    1  UNL1        0.2626
     19 C          19.9587   70.7114   -8.3767 C.ar    1  UNL1        0.0795
     20 C          19.6854   70.9706   -7.0799 C.ar    1  UNL1        0.0869
     21 O          16.2276   70.8561   -7.1286 O.2     1  UNL1       -0.2464
     22 O          19.1105   70.2612  -10.4510 O.2     1  UNL1       -0.2670
     23 H          16.8818   70.4077   -9.4336 H       1  UNL1        0.1734
     24 O          22.7203   71.8998   -0.1944 O.3     1  UNL1       -0.2703
     25 P          21.8983   72.5302    1.0369 P.3     1  UNL1        0.2208
     26 O          21.1740   71.4543    1.7487 O.2     1  UNL1       -0.5170
     27 O          20.8417   73.6104    0.4808 O.3     1  UNL1       -0.4371
     28 O          22.9182   73.2524    2.0511 O.3     1  UNL1       -0.2865
     29 C          22.6312   74.6511    2.0017 C.3     1  UNL1        0.2611
     30 C          23.9361   75.4284    1.8204 C.3     1  UNL1        0.1582
     31 C          24.8758   75.1098    2.9888 C.3     1  UNL1        0.1625
     32 C          24.1335   75.3791    4.3021 C.3     1  UNL1        0.1686
     33 C          22.8149   74.6029    4.2974 C.3     1  UNL1        0.1760
     34 O          26.0353   75.9410    2.9112 O.3     1  UNL1       -0.3801
     35 O          24.9381   74.9504    5.4023 O.3     1  UNL1       -0.3794
     36 O          21.9973   75.0480    3.2158 O.3     1  UNL1       -0.3263
     37 H          26.5973   75.7075    3.6628 H       1  UNL1        0.2105
     38 H          24.4339   75.1371    6.2070 H       1  UNL1        0.2105
     39 C          24.3022   75.7161   -0.5707 C.2     1  UNL1        0.2231
     40 C          24.9542   75.3105   -1.8679 C.3     1  UNL1        0.0946
     41 N          24.5697   75.0350    0.5601 N.am    1  UNL1       -0.2994
     42 O          23.5361   76.6555   -0.5451 O.2     1  UNL1       -0.2751
     43 H          25.1826   74.2830    0.5398 H       1  UNL1        0.1496
     44 C          22.0807   74.8393    5.6189 C.3     1  UNL1        0.1693
     45 O          22.3037   73.7311    6.4930 O.3     1  UNL1       -0.3794
     46 H          21.8250   73.9196    7.3115 H       1  UNL1        0.2105
@<TRIPOS>BOND
     1    29    30    1
     2    29    28    1
     3    29    36    1
     4    30    31    1
     5    30    41    1
     6    31    32    1
     7    31    34    1
     8    32    33    1
     9    32    35    1
    10    33    44    1
    11    33    36    1
    12    44    45    1
    13    39    40    1
    14    39    41   am
    15    39    42    2
    16    41    43    1
    17    28    25    1
    18    34    37    1
    19    35    38    1
    20    45    46    1
    21    15    16   ar
    22    15    20   ar
    23    15     6    1
    24    16    17   ar
    25    16    21    2
    26    17    18   ar
    27    17    23    1
    28    18    19   ar
    29    18    22    2
    30    19    20   ar
    31     6     7    1
    32     6    11    1
    33     7     8    1
    34     7     9    1
    35     8    13    1
    36     9    10    1
    37     9    12    1
    38    10    11    1
    39    10     5    1
    40    12    14    1
    41     5     4    1
    42     4     1    1
    43     1     2    2
    44     1     3    1
    45     1    24    1
    46    24    25    1
    47    25    26    2
    48    25    27    1
@<TRIPOS>MOLECULE
UD1
 46 48 0 0 0
SMALL
GASTEIGER

@<TRIPOS>ATOM
      1 P          22.6795   73.1716   -3.0879 P.3     1  UNL1        0.2189
      2 O          22.7406   74.3172   -4.0219 O.2     1  UNL1       -0.5170
      3 O          23.0877   71.8223   -3.8660 O.3     1  UNL1       -0.4371
      4 O          21.1819   73.0269   -2.5143 O.3     1  UNL1       -0.3112
      5 C          20.7434   71.7048   -2.8306 C.3     1  UNL1        0.1811
      6 C          18.2519   71.2178   -5.3767 C.3     1  UNL1        0.2383
      7 C          18.2090   69.9162   -4.5376 C.3     1  UNL1        0.1895
      8 O          16.8960   69.3549   -4.5317 O.3     1  UNL1       -0.3779
      9 C          18.5994   70.4258   -3.1258 C.3     1  UNL1        0.1713
     10 C          19.3234   71.7589   -3.3960 C.3     1  UNL1        0.1764
     11 O          19.3712   71.9407   -4.8214 O.3     1  UNL1       -0.3308
     12 O          17.4315   70.6357   -2.3291 O.3     1  UNL1       -0.3794
     13 H          16.9373   68.5510   -3.9954 H       1  UNL1        0.2106
     14 H          16.9921   69.7789   -2.2464 H       1  UNL1        0.2105
     15 N          18.4816   70.9173   -6.7903 N.ar    1  UNL1       -0.2551
     16 C          17.4341   70.6916   -7.6022 C.ar    1  UNL1        0.3323
     17 N          17.6155   70.4167   -8.9075 N.ar    1  UNL1       -0.2743
     18 C          18.8602   70.3540   -9.4221 C.ar    1  UNL1        0.2626
     19 C          19.9721   70.5836   -8.5773 C.ar    1  UNL1        0.0795
     20 C          19.7613   70.8625   -7.2730 C.ar    1  UNL1        0.0869
     21 O          16.3054   70.7447   -7.1529 O.2     1  UNL1       -0.2464
     22 O          19.0255   70.1009  -10.6011 O.2     1  UNL1       -0.2670
     23 H          16.8483   70.2613   -9.4797 H       1  UNL1        0.1734
     24 O          23.6996   73.4184   -1.8683 O.3     1  UNL1       -0.2703
     25 P          23.0069   74.4952   -0.8936 P.3     1  UNL1        0.2208
     26 O          21.6000   74.6983   -1.3037 O.2     1  UNL1       -0.5170
     27 O          23.7997   75.8934   -0.9877 O.3     1  UNL1       -0.4371
     28 O          23.0514   73.9557    0.6221 O.3     1  UNL1       -0.2865
     29 C          21.7131   73.6021    0.9757 C.3     1  UNL1        0.2611
     30 C          21.6209   73.4276    2.4926 C.3     1  UNL1        0.1582
     31 C          22.6031   72.3360    2.9323 C.3     1  UNL1        0.1625
     32 C          22.3288   71.0708    2.1125 C.3     1  UNL1        0.1686
     33 C          22.3707   71.4226    0.6239 C.3     1  UNL1        0.1760
     34 O          22.4206   72.0591    4.3220 O.3     1  UNL1       -0.3801
     35 O          23.3257   70.0887    2.4012 O.3     1  UNL1       -0.3794
     36 O          21.3579   72.3830    0.3268 O.3     1  UNL1       -0.3263
     37 H          23.0569   71.3691    4.5553 H       1  UNL1        0.2105
     38 H          23.1159   69.3111    1.8648 H       1  UNL1        0.2105
     39 C          23.2329   74.9324    3.5276 C.2     1  UNL1        0.2231
     40 C          23.5837   76.2313    4.2074 C.3     1  UNL1        0.0946
     41 N          21.9622   74.6894    3.1526 N.am    1  UNL1       -0.2994
     42 O          24.0947   74.1054    3.3187 O.2     1  UNL1       -0.2751
     43 H          21.2724   75.3510    3.3199 H       1  UNL1        0.1496
     44 C          22.1300   70.1589   -0.2045 C.3     1  UNL1        0.1693
     45 O          22.9825   69.1121    0.2641 O.3     1  UNL1       -0.3794
     46 H          22.7999   68.3363   -0.2832 H       1  UNL1        0.2105
@<TRIPOS>BOND
     1    29    30    1
     2    29    28    1
     3    29    36    1
     4    30    31    1
     5    30    41    1
     6    31    32    1
     7    31    34    1
     8    32    33    1
     9    32    35    1
    10    33    44    1
    11    33    36    1
    12    44    45    1
    13    39    40    1
    14    39    41   am
    15    39    42    2
    16    41    43    1
    17    28    25    1
    18    34    37    1
    19    35    38    1
    20    45    46    1
    21    15    16   ar
    22    15    20   ar
    23    15     6    1
    24    16    17   ar
    25    16    21    2
    26    17    18   ar
    27    17    23    1
    28    18    19   ar
    29    18    22    2
    30    19    20   ar
    31     6     7    1
    32     6    11    1
    33     7     8    1
    34     7     9    1
    35     8    13    1
    36     9    10    1
    37     9    12    1
    38    10    11    1
    39    10     5    1
    40    12    14    1
    41     5     4    1
    42     4     1    1
    43     1     2    2
    44     1     3    1
    45     1    24    1
    46    24    25    1
    47    25    26    2
    48    25    27    1
@<TRIPOS>MOLECULE
UD1
 46 48 0 0 0
SMALL
GASTEIGER

@<TRIPOS>ATOM
      1 P          22.3772   70.9287   -2.5465 P.3     1  UNL1        0.2189
      2 O          21.5348   69.8288   -2.0277 O.2     1  UNL1       -0.5170
      3 O          23.6896   70.3145   -3.2485 O.3     1  UNL1       -0.4371
      4 O          22.8191   71.8854   -1.3290 O.3     1  UNL1       -0.3112
      5 C          22.1495   71.4061   -0.1619 C.3     1  UNL1        0.1811
      6 C          20.8076   73.7294    2.2316 C.3     1  UNL1        0.2383
      7 C          21.7685   74.5790    1.3626 C.3     1  UNL1        0.1895
      8 O          21.3159   75.9303    1.2719 O.3     1  UNL1       -0.3779
      9 C          21.6751   73.8705   -0.0138 C.3     1  UNL1        0.1713
     10 C          21.1544   72.4604    0.3255 C.3     1  UNL1        0.1764
     11 O          21.0220   72.3839    1.7552 O.3     1  UNL1       -0.3308
     12 O          20.7584   74.5571   -0.8687 O.3     1  UNL1       -0.3794
     13 H          21.9547   76.4034    0.7210 H       1  UNL1        0.2106
     14 H          21.1085   75.4491   -0.9946 H       1  UNL1        0.2105
     15 N          21.1566   73.8370    3.6487 N.ar    1  UNL1       -0.2551
     16 C          20.1816   73.8983    4.5722 C.ar    1  UNL1        0.3323
     17 N          20.4734   73.9936    5.8830 N.ar    1  UNL1       -0.2743
     18 C          21.7574   74.0385    6.2917 C.ar    1  UNL1        0.2626
     19 C          22.7937   73.9809    5.3296 C.ar    1  UNL1        0.0795
     20 C          22.4729   73.8801    4.0218 C.ar    1  UNL1        0.0869
     21 O          19.0186   73.8588    4.2192 O.2     1  UNL1       -0.2464
     22 O          22.0223   74.1295    7.4762 O.2     1  UNL1       -0.2670
     23 H          19.7574   74.0319    6.5358 H       1  UNL1        0.1734
     24 O          21.5412   71.7829   -3.6236 O.3     1  UNL1       -0.2703
     25 P          22.5312   72.9210   -4.1839 P.3     1  UNL1        0.2208
     26 O          23.9144   72.6301   -3.7470 O.2     1  UNL1       -0.5170
     27 O          22.0789   74.3562   -3.6111 O.3     1  UNL1       -0.4371
     28 O          22.4699   72.9432   -5.7921 O.3     1  UNL1       -0.2865
     29 C          21.4049   73.8239   -6.1542 C.3     1  UNL1        0.2611
     30 C          20.4322   73.0875   -7.0771 C.3     1  UNL1        0.1582
     31 C          21.1871   72.6104   -8.3229 C.3     1  UNL1        0.1625
     32 C          21.9014   73.8109   -8.9528 C.3     1  UNL1        0.1686
     33 C          22.7658   74.4910   -7.8890 C.3     1  UNL1        0.1760
     34 O          20.2625   72.0538   -9.2592 O.3     1  UNL1       -0.3801
     35 O          22.7287   73.3641  -10.0288 O.3     1  UNL1       -0.3794
     36 O          21.9393   74.9628   -6.8256 O.3     1  UNL1       -0.3263
     37 H          20.7789   71.7671  -10.0250 H       1  UNL1        0.2105
     38 H          23.1591   74.1495  -10.3954 H       1  UNL1        0.2105
     39 C          18.5581   71.6439   -6.4957 C.2     1  UNL1        0.2231
     40 C          17.9775   70.4565   -5.7710 C.3     1  UNL1        0.0946
     41 N          19.8678   71.9338   -6.3737 N.am    1  UNL1       -0.2994
     42 O          17.8459   72.3391   -7.1884 O.2     1  UNL1       -0.2751
     43 H          20.4379   71.3778   -5.8192 H       1  UNL1        0.1496
     44 C          23.5089   75.6722   -8.5163 C.3     1  UNL1        0.1693
     45 O          24.7086   75.9249   -7.7820 O.3     1  UNL1       -0.3794
     46 H          25.1452   76.6745   -8.2087 H       1  UNL1        0.2105
@<TRIPOS>BOND
     1    29    30    1
     2    29    28    1
     3    29    36    1
     4    30    31    1
     5    30    41    1
     6    31    32    1
     7    31    34    1
     8    32    33    1
     9    32    35    1
    10    33    44    1
    11    33    36    1
    12    44    45    1
    13    39    40    1
    14    39    41   am
    15    39    42    2
    16    41    43    1
    17    28    25    1
    18    34    37    1
    19    35    38    1
    20    45    46    1
    21    15    16   ar
    22    15    20   ar
    23    15     6    1
    24    16    17   ar
    25    16    21    2
    26    17    18   ar
    27    17    23    1
    28    18    19   ar
    29    18    22    2
    30    19    20   ar
    31     6     7    1
    32     6    11    1
    33     7     8    1
    34     7     9    1
    35     8    13    1
    36     9    10    1
    37     9    12    1
    38    10    11    1
    39    10     5    1
    40    12    14    1
    41     5     4    1
    42     4     1    1
    43     1     2    2
    44     1     3    1
    45     1    24    1
    46    24    25    1
    47    25    26    2
    48    25    27    1
@<TRIPOS>MOLECULE
UD1
 46 48 0 0 0
SMALL
GASTEIGER

@<TRIPOS>ATOM
      1 P          19.6952   74.5349   -2.7943 P.3     1  UNL1        0.2189
      2 O          19.7771   75.9358   -2.3256 O.2     1  UNL1       -0.5170
      3 O          18.1508   74.0885   -2.8842 O.3     1  UNL1       -0.4371
      4 O          20.4703   73.5767   -1.7580 O.3     1  UNL1       -0.3112
      5 C          21.6964   74.2307   -1.4273 C.3     1  UNL1        0.1811
      6 C          22.9608   72.5606    1.4949 C.3     1  UNL1        0.2383
      7 C          21.8626   71.6128    0.9508 C.3     1  UNL1        0.1895
      8 O          22.1710   70.2502    1.2465 O.3     1  UNL1       -0.3779
      9 C          21.9316   71.8771   -0.5758 C.3     1  UNL1        0.1713
     10 C          22.6124   73.2550   -0.6869 C.3     1  UNL1        0.1764
     11 O          22.8495   73.7261    0.6507 O.3     1  UNL1       -0.3308
     12 O          22.7145   70.8714   -1.2228 O.3     1  UNL1       -0.3794
     13 H          21.4518   69.7151    0.8833 H       1  UNL1        0.2106
     14 H          22.2694   70.0278   -1.0670 H       1  UNL1        0.2105
     15 N          22.7008   72.9087    2.8923 N.ar    1  UNL1       -0.2551
     16 C          21.4936   72.6576    3.4280 C.ar    1  UNL1        0.3323
     17 N          21.2277   72.9636    4.7117 N.ar    1  UNL1       -0.2743
     18 C          22.1722   73.5392    5.4827 C.ar    1  UNL1        0.2626
     19 C          23.4455   73.8146    4.9297 C.ar    1  UNL1        0.0795
     20 C          23.6871   73.4924    3.6408 C.ar    1  UNL1        0.0869
     21 O          20.6314   72.1387    2.7453 O.2     1  UNL1       -0.2464
     22 O          21.9314   73.8207    6.6420 O.2     1  UNL1       -0.2670
     23 H          20.3529   72.7711    5.0830 H       1  UNL1        0.1734
     24 O          20.3750   74.4146   -4.2476 O.3     1  UNL1       -0.2703
     25 P          20.3752   72.8523   -4.6329 P.3     1  UNL1        0.2208
     26 O          19.5877   72.0978   -3.6332 O.2     1  UNL1       -0.5170
     27 O          21.8885   72.3029   -4.6485 O.3     1  UNL1       -0.4371
     28 O          19.7201   72.6575   -6.0901 O.3     1  UNL1       -0.2865
     29 C          19.9534   71.3006   -6.4714 C.3     1  UNL1        0.2611
     30 C          20.0521   71.2141   -7.9954 C.3     1  UNL1        0.1582
     31 C          18.7484   71.7330   -8.6124 C.3     1  UNL1        0.1625
     32 C          17.5741   70.9698   -7.9907 C.3     1  UNL1        0.1686
     33 C          17.6606   71.0773   -6.4668 C.3     1  UNL1        0.1760
     34 O          18.7687   71.5192  -10.0249 O.3     1  UNL1       -0.3801
     35 O          16.3428   71.5371   -8.4421 O.3     1  UNL1       -0.3794
     36 O          18.8769   70.4870   -6.0101 O.3     1  UNL1       -0.3263
     37 H          17.9323   71.8596  -10.3711 H       1  UNL1        0.2105
     38 H          15.6317   71.0284   -8.0271 H       1  UNL1        0.2105
     39 C          20.9801   73.3256   -8.7793 C.2     1  UNL1        0.2231
     40 C          22.1357   74.1664   -9.2589 C.3     1  UNL1        0.0946
     41 N          21.1745   72.0314   -8.4608 N.am    1  UNL1       -0.2994
     42 O          19.8747   73.8141   -8.6808 O.2     1  UNL1       -0.2751
     43 H          22.0589   71.6401   -8.5399 H       1  UNL1        0.1496
     44 C          16.4738   70.3454   -5.8369 C.3     1  UNL1        0.1693
     45 O          16.1367   69.2088   -6.6347 O.3     1  UNL1       -0.3794
     46 H          15.3863   68.7773   -6.2041 H       1  UNL1        0.2105
@<TRIPOS>BOND
     1    29    30    1
     2    29    28    1
     3    29    36    1
     4    30    31    1
     5    30    41    1
     6    31    32    1
     7    31    34    1
     8    32    33    1
     9    32    35    1
    10    33    44    1
    11    33    36    1
    12    44    45    1
    13    39    40    1
    14    39    41   am
    15    39    42    2
    16    41    43    1
    17    28    25    1
    18    34    37    1
    19    35    38    1
    20    45    46    1
    21    15    16   ar
    22    15    20   ar
    23    15     6    1
    24    16    17   ar
    25    16    21    2
    26    17    18   ar
    27    17    23    1
    28    18    19   ar
    29    18    22    2
    30    19    20   ar
    31     6     7    1
    32     6    11    1
    33     7     8    1
    34     7     9    1
    35     8    13    1
    36     9    10    1
    37     9    12    1
    38    10    11    1
    39    10     5    1
    40    12    14    1
    41     5     4    1
    42     4     1    1
    43     1     2    2
    44     1     3    1
    45     1    24    1
    46    24    25    1
    47    25    26    2
    48    25    27    1
@<TRIPOS>MOLECULE
UD1
 46 48 0 0 0
SMALL
GASTEIGER

@<TRIPOS>ATOM
      1 P          20.6136   70.6675   -2.2520 P.3     1  UNL1        0.2189
      2 O          21.8917   69.9762   -2.5303 O.2     1  UNL1       -0.5170
      3 O          19.4237   69.5855   -2.1756 O.3     1  UNL1       -0.4371
      4 O          20.3057   71.7200   -3.4311 O.3     1  UNL1       -0.3112
      5 C          19.7332   70.9780   -4.5091 C.3     1  UNL1        0.1811
      6 C          19.7996   72.7278   -7.6494 C.3     1  UNL1        0.2383
      7 C          20.4432   73.7134   -6.6422 C.3     1  UNL1        0.1895
      8 O          21.4142   74.5399   -7.2852 O.3     1  UNL1       -0.3779
      9 C          21.1185   72.7509   -5.6309 C.3     1  UNL1        0.1713
     10 C          20.3719   71.4173   -5.8276 C.3     1  UNL1        0.1764
     11 O          19.3511   71.6381   -6.8157 O.3     1  UNL1       -0.3308
     12 O          22.5078   72.6030   -5.9319 O.3     1  UNL1       -0.3794
     13 H          21.7749   75.1277   -6.6071 H       1  UNL1        0.2106
     14 H          22.9062   73.4797   -5.8494 H       1  UNL1        0.2105
     15 N          18.6681   73.3519   -8.3361 N.ar    1  UNL1       -0.2551
     16 C          18.4005   73.0249   -9.6123 C.ar    1  UNL1        0.3323
     17 N          17.3639   73.5803  -10.2674 N.ar    1  UNL1       -0.2743
     18 C          16.5780   74.4865   -9.6518 C.ar    1  UNL1        0.2626
     19 C          16.8520   74.8444   -8.3103 C.ar    1  UNL1        0.0795
     20 C          17.8949   74.2680   -7.6751 C.ar    1  UNL1        0.0869
     21 O          19.1002   72.2091  -10.1811 O.2     1  UNL1       -0.2464
     22 O          15.6433   74.9928  -10.2447 O.2     1  UNL1       -0.2670
     23 H          17.1826   73.3291  -11.1862 H       1  UNL1        0.1734
     24 O          20.7205   71.4491   -0.8497 O.3     1  UNL1       -0.2703
     25 P          22.0201   70.8741   -0.0949 P.3     1  UNL1        0.2208
     26 O          23.1330   70.7415   -1.0607 O.2     1  UNL1       -0.5170
     27 O          21.6817   69.4312    0.5342 O.3     1  UNL1       -0.4371
     28 O          22.4491   71.8840    1.0826 O.3     1  UNL1       -0.2865
     29 C          21.7432   73.1057    0.8585 C.3     1  UNL1        0.2611
     30 C          22.7483   74.2301    0.6027 C.3     1  UNL1        0.1582
     31 C          23.6778   74.3569    1.8149 C.3     1  UNL1        0.1625
     32 C          22.8209   74.5223    3.0745 C.3     1  UNL1        0.1686
     33 C          21.8122   73.3739    3.1454 C.3     1  UNL1        0.1760
     34 O          24.5227   75.4977    1.6533 O.3     1  UNL1       -0.3801
     35 O          23.6602   74.4950    4.2305 O.3     1  UNL1       -0.3794
     36 O          20.9544   73.4146    2.0056 O.3     1  UNL1       -0.3263
     37 H          25.0893   75.5388    2.4360 H       1  UNL1        0.2105
     38 H          23.0816   74.6013    4.9989 H       1  UNL1        0.2105
     39 C          23.0283   74.1503   -1.8158 C.2     1  UNL1        0.2231
     40 C          23.8414   73.8297   -3.0440 C.3     1  UNL1        0.0946
     41 N          23.5380   73.9193   -0.5906 N.am    1  UNL1       -0.2994
     42 O          21.9146   74.6158   -1.9306 O.2     1  UNL1       -0.2751
     43 H          24.4291   73.5466   -0.4986 H       1  UNL1        0.1496
     44 C          20.9727   73.5119    4.4171 C.3     1  UNL1        0.1693
     45 O          21.6281   72.8420    5.4959 O.3     1  UNL1       -0.3794
     46 H          21.0675   72.9526    6.2758 H       1  UNL1        0.2105
@<TRIPOS>BOND
     1    29    30    1
     2    29    28    1
     3    29    36    1
     4    30    31    1
     5    30    41    1
     6    31    32    1
     7    31    34    1
     8    32    33    1
     9    32    35    1
    10    33    44    1
    11    33    36    1
    12    44    45    1
    13    39    40    1
    14    39    41   am
    15    39    42    2
    16    41    43    1
    17    28    25    1
    18    34    37    1
    19    35    38    1
    20    45    46    1
    21    15    16   ar
    22    15    20   ar
    23    15     6    1
    24    16    17   ar
    25    16    21    2
    26    17    18   ar
    27    17    23    1
    28    18    19   ar
    29    18    22    2
    30    19    20   ar
    31     6     7    1
    32     6    11    1
    33     7     8    1
    34     7     9    1
    35     8    13    1
    36     9    10    1
    37     9    12    1
    38    10    11    1
    39    10     5    1
    40    12    14    1
    41     5     4    1
    42     4     1    1
    43     1     2    2
    44     1     3    1
    45     1    24    1
    46    24    25    1
    47    25    26    2
    48    25    27    1
@<TRIPOS>MOLECULE
UD1
 46 48 0 0 0
SMALL
GASTEIGER

@<TRIPOS>ATOM
      1 P          22.9322   71.9300   -3.1723 P.3     1  UNL1        0.2189
      2 O          23.3832   70.5255   -3.0595 O.2     1  UNL1       -0.5170
      3 O          22.8533   72.5880   -1.7049 O.3     1  UNL1       -0.4371
      4 O          21.4754   71.9719   -3.8571 O.3     1  UNL1       -0.3112
      5 C          20.5207   71.7881   -2.8107 C.3     1  UNL1        0.1811
      6 C          18.1092   71.1853   -5.4084 C.3     1  UNL1        0.2383
      7 C          18.1237   69.8758   -4.5808 C.3     1  UNL1        0.1895
      8 O          16.8444   69.2417   -4.6048 O.3     1  UNL1       -0.3779
      9 C          18.4580   70.3937   -3.1577 C.3     1  UNL1        0.1713
     10 C          19.1108   71.7677   -3.4031 C.3     1  UNL1        0.1764
     11 O          19.1754   71.9647   -4.8258 O.3     1  UNL1       -0.3308
     12 O          17.2653   70.5306   -2.3821 O.3     1  UNL1       -0.3794
     13 H          16.9208   68.4366   -4.0743 H       1  UNL1        0.2106
     14 H          16.8733   69.6497   -2.3148 H       1  UNL1        0.2105
     15 N          18.3822   70.9109   -6.8197 N.ar    1  UNL1       -0.2551
     16 C          17.3599   70.7086   -7.6690 C.ar    1  UNL1        0.3323
     17 N          17.5813   70.4581   -8.9730 N.ar    1  UNL1       -0.2743
     18 C          18.8414   70.3967   -9.4487 C.ar    1  UNL1        0.2626
     19 C          19.9271   70.6019   -8.5644 C.ar    1  UNL1        0.0795
     20 C          19.6764   70.8567   -7.2623 C.ar    1  UNL1        0.0869
     21 O          16.2177   70.7608   -7.2550 O.2     1  UNL1       -0.2464
     22 O          19.0428   70.1656  -10.6266 O.2     1  UNL1       -0.2670
     23 H          16.8318   70.3193   -9.5723 H       1  UNL1        0.1734
     24 O          23.9743   72.7572   -4.0771 O.3     1  UNL1       -0.2703
     25 P          23.3096   74.1964   -4.3535 P.3     1  UNL1        0.2208
     26 O          22.3384   74.5052   -3.2810 O.2     1  UNL1       -0.5170
     27 O          22.5509   74.1741   -5.7734 O.3     1  UNL1       -0.4371
     28 O          24.4583   75.3235   -4.3781 O.3     1  UNL1       -0.2865
     29 C          25.4479   74.9277   -3.4267 C.3     1  UNL1        0.2611
     30 C          25.5525   75.9929   -2.3339 C.3     1  UNL1        0.1582
     31 C          25.9246   77.3344   -2.9754 C.3     1  UNL1        0.1625
     32 C          27.1887   77.1400   -3.8196 C.3     1  UNL1        0.1686
     33 C          26.9594   75.9900   -4.8026 C.3     1  UNL1        0.1760
     34 O          26.1715   78.3018   -1.9534 O.3     1  UNL1       -0.3801
     35 O          27.4696   78.3399   -4.5427 O.3     1  UNL1       -0.3794
     36 O          26.7056   74.7840   -4.0831 O.3     1  UNL1       -0.3263
     37 H          26.4011   79.1281   -2.4005 H       1  UNL1        0.2105
     38 H          28.2704   78.1737   -5.0601 H       1  UNL1        0.2105
     39 C          24.1236   75.6549   -0.3900 C.2     1  UNL1        0.2231
     40 C          22.7983   75.7834    0.3165 C.3     1  UNL1        0.0946
     41 N          24.2653   76.1180   -1.6469 N.am    1  UNL1       -0.2994
     42 O          25.0627   75.1337    0.1728 O.2     1  UNL1       -0.2751
     43 H          23.5139   76.5349   -2.0976 H       1  UNL1        0.1496
     44 C          28.2048   75.8089   -5.6730 C.3     1  UNL1        0.1693
     45 O          28.3420   74.4315   -6.0281 O.3     1  UNL1       -0.3794
     46 H          29.1365   74.3612   -6.5744 H       1  UNL1        0.2105
@<TRIPOS>BOND
     1    29    30    1
     2    29    28    1
     3    29    36    1
     4    30    31    1
     5    30    41    1
     6    31    32    1
     7    31    34    1
     8    32    33    1
     9    32    35    1
    10    33    44    1
    11    33    36    1
    12    44    45    1
    13    39    40    1
    14    39    41   am
    15    39    42    2
    16    41    43    1
    17    28    25    1
    18    34    37    1
    19    35    38    1
    20    45    46    1
    21    15    16   ar
    22    15    20   ar
    23    15     6    1
    24    16    17   ar
    25    16    21    2
    26    17    18   ar
    27    17    23    1
    28    18    19   ar
    29    18    22    2
    30    19    20   ar
    31     6     7    1
    32     6    11    1
    33     7     8    1
    34     7     9    1
    35     8    13    1
    36     9    10    1
    37     9    12    1
    38    10    11    1
    39    10     5    1
    40    12    14    1
    41     5     4    1
    42     4     1    1
    43     1     2    2
    44     1     3    1
    45     1    24    1
    46    24    25    1
    47    25    26    2
    48    25    27    1
@<TRIPOS>MOLECULE
UD1
 46 48 0 0 0
SMALL
GASTEIGER

@<TRIPOS>ATOM
      1 P          18.7103   70.0996   -3.2355 P.3     1  UNL1        0.2189
      2 O          19.6565   69.9735   -4.3659 O.2     1  UNL1       -0.5170
      3 O          18.3998   68.6402   -2.6302 O.3     1  UNL1       -0.4371
      4 O          17.3400   70.7665   -3.7553 O.3     1  UNL1       -0.3112
      5 C          17.2808   72.0797   -3.1965 C.3     1  UNL1        0.1811
      6 C          17.4988   73.1441   -6.6238 C.3     1  UNL1        0.2383
      7 C          15.9944   72.8458   -6.4050 C.3     1  UNL1        0.1895
      8 O          15.1820   73.6859   -7.2256 O.3     1  UNL1       -0.3779
      9 C          15.8088   73.1913   -4.9045 C.3     1  UNL1        0.1713
     10 C          17.2337   73.1129   -4.3233 C.3     1  UNL1        0.1764
     11 O          18.1114   72.7135   -5.3898 O.3     1  UNL1       -0.3308
     12 O          15.2731   74.5082   -4.7569 O.3     1  UNL1       -0.3794
     13 H          14.2618   73.4507   -7.0429 H       1  UNL1        0.2106
     14 H          14.4098   74.5088   -5.1913 H       1  UNL1        0.2105
     15 N          18.0213   72.3765   -7.7549 N.ar    1  UNL1       -0.2551
     16 C          18.3608   73.0108   -8.8906 C.ar    1  UNL1        0.3323
     17 N          18.8477   72.3307   -9.9454 N.ar    1  UNL1       -0.2743
     18 C          18.9947   70.9919   -9.8815 C.ar    1  UNL1        0.2626
     19 C          18.6356   70.3108   -8.6940 C.ar    1  UNL1        0.0795
     20 C          18.1547   71.0183   -7.6492 C.ar    1  UNL1        0.0869
     21 O          18.2341   74.2179   -8.9635 O.2     1  UNL1       -0.2464
     22 O          19.4303   70.3754  -10.8362 O.2     1  UNL1       -0.2670
     23 H          19.0920   72.8050  -10.7550 H       1  UNL1        0.1734
     24 O          19.3595   71.0284   -2.0933 O.3     1  UNL1       -0.2703
     25 P          20.8994   70.5835   -1.9518 P.3     1  UNL1        0.2208
     26 O          21.1744   69.4588   -2.8729 O.2     1  UNL1       -0.5170
     27 O          21.1875   70.1186   -0.4375 O.3     1  UNL1       -0.4371
     28 O          21.8543   71.8253   -2.3212 O.3     1  UNL1       -0.2865
     29 C          21.1016   73.0145   -2.0750 C.3     1  UNL1        0.2611
     30 C          21.3995   74.0371   -3.1730 C.3     1  UNL1        0.1582
     31 C          22.9021   74.3399   -3.1816 C.3     1  UNL1        0.1625
     32 C          23.3261   74.7571   -1.7695 C.3     1  UNL1        0.1686
     33 C          22.8855   73.6785   -0.7777 C.3     1  UNL1        0.1760
     34 O          23.1714   75.4013   -4.0993 O.3     1  UNL1       -0.3801
     35 O          24.7468   74.9020   -1.7203 O.3     1  UNL1       -0.3794
     36 O          21.4645   73.5505   -0.8044 O.3     1  UNL1       -0.3263
     37 H          24.1254   75.5581   -4.0730 H       1  UNL1        0.2105
     38 H          24.9701   75.1639   -0.8158 H       1  UNL1        0.2105
     39 C          21.9164   72.8989   -5.2638 C.2     1  UNL1        0.2231
     40 C          21.5064   72.3374   -6.6013 C.3     1  UNL1        0.0946
     41 N          21.0016   73.4910   -4.4721 N.am    1  UNL1       -0.2994
     42 O          23.0704   72.8184   -4.9004 O.2     1  UNL1       -0.2751
     43 H          20.0781   73.5558   -4.7628 H       1  UNL1        0.1496
     44 C          23.3330   74.0703    0.6321 C.3     1  UNL1        0.1693
     45 O          22.7828   73.1525    1.5792 O.3     1  UNL1       -0.3794
     46 H          23.0880   73.4346    2.4521 H       1  UNL1        0.2105
@<TRIPOS>BOND
     1    29    30    1
     2    29    28    1
     3    29    36    1
     4    30    31    1
     5    30    41    1
     6    31    32    1
     7    31    34    1
     8    32    33    1
     9    32    35    1
    10    33    44    1
    11    33    36    1
    12    44    45    1
    13    39    40    1
    14    39    41   am
    15    39    42    2
    16    41    43    1
    17    28    25    1
    18    34    37    1
    19    35    38    1
    20    45    46    1
    21    15    16   ar
    22    15    20   ar
    23    15     6    1
    24    16    17   ar
    25    16    21    2
    26    17    18   ar
    27    17    23    1
    28    18    19   ar
    29    18    22    2
    30    19    20   ar
    31     6     7    1
    32     6    11    1
    33     7     8    1
    34     7     9    1
    35     8    13    1
    36     9    10    1
    37     9    12    1
    38    10    11    1
    39    10     5    1
    40    12    14    1
    41     5     4    1
    42     4     1    1
    43     1     2    2
    44     1     3    1
    45     1    24    1
    46    24    25    1
    47    25    26    2
    48    25    27    1
@<TRIPOS>MOLECULE
UD1
 46 48 0 0 0
SMALL
GASTEIGER

@<TRIPOS>ATOM
      1 P          20.4449   70.1121   -1.9742 P.3     1  UNL1        0.2189
      2 O          21.5537   69.4361   -2.6831 O.2     1  UNL1       -0.5170
      3 O          19.0897   69.2637   -2.1647 O.3     1  UNL1       -0.4371
      4 O          20.2418   71.5894   -2.5817 O.3     1  UNL1       -0.3112
      5 C          18.8851   71.9579   -2.3290 C.3     1  UNL1        0.1811
      6 C          19.0176   73.2299   -5.6894 C.3     1  UNL1        0.2383
      7 C          18.5205   71.7710   -5.8459 C.3     1  UNL1        0.1895
      8 O          17.6607   71.6427   -6.9788 O.3     1  UNL1       -0.3779
      9 C          17.7347   71.5514   -4.5270 C.3     1  UNL1        0.1713
     10 C          18.2963   72.6239   -3.5736 C.3     1  UNL1        0.1764
     11 O          19.3269   73.3321   -4.2831 O.3     1  UNL1       -0.3308
     12 O          16.3349   71.7460   -4.7404 O.3     1  UNL1       -0.3794
     13 H          17.3879   70.7157   -7.0200 H       1  UNL1        0.2106
     14 H          16.0567   71.0854   -5.3887 H       1  UNL1        0.2105
     15 N          20.2144   73.4606   -6.4992 N.ar    1  UNL1       -0.2551
     16 C          20.8177   72.4241   -7.1068 C.ar    1  UNL1        0.3323
     17 N          21.9177   72.6074   -7.8609 N.ar    1  UNL1       -0.2743
     18 C          22.4402   73.8412   -8.0119 C.ar    1  UNL1        0.2626
     19 C          21.8186   74.9403   -7.3730 C.ar    1  UNL1        0.0795
     20 C          20.7133   74.7289   -6.6267 C.ar    1  UNL1        0.0869
     21 O          20.3584   71.3054   -6.9802 O.2     1  UNL1       -0.2464
     22 O          23.4374   74.0073   -8.6896 O.2     1  UNL1       -0.2670
     23 H          22.3372   71.8491   -8.2958 H       1  UNL1        0.1734
     24 O          20.7960   70.2198   -0.4077 O.3     1  UNL1       -0.2703
     25 P          22.3695   70.5403   -0.3049 P.3     1  UNL1        0.2208
     26 O          22.9269   70.7158   -1.6641 O.2     1  UNL1       -0.5170
     27 O          23.1199   69.3191    0.4284 O.3     1  UNL1       -0.4371
     28 O          22.5892   71.8903    0.5435 O.3     1  UNL1       -0.2865
     29 C          21.3281   72.5600    0.5908 C.3     1  UNL1        0.2611
     30 C          21.4736   73.9546   -0.0207 C.3     1  UNL1        0.1582
     31 C          22.5320   74.7380    0.7639 C.3     1  UNL1        0.1625
     32 C          22.1586   74.7133    2.2498 C.3     1  UNL1        0.1686
     33 C          21.9644   73.2610    2.6908 C.3     1  UNL1        0.1760
     34 O          22.5707   76.0884    0.2988 O.3     1  UNL1       -0.3801
     35 O          23.2063   75.3108    3.0159 O.3     1  UNL1       -0.3794
     36 O          20.9001   72.6694    1.9466 O.3     1  UNL1       -0.3263
     37 H          23.2481   76.5433    0.8179 H       1  UNL1        0.2105
     38 H          22.9311   75.2737    3.9429 H       1  UNL1        0.2105
     39 C          23.1875   73.9670   -1.7518 C.2     1  UNL1        0.2231
     40 C          23.6143   73.8445   -3.1924 C.3     1  UNL1        0.0946
     41 N          21.8888   73.8351   -1.4199 N.am    1  UNL1       -0.2994
     42 O          24.0134   74.1851   -0.8913 O.2     1  UNL1       -0.2751
     43 H          21.2276   73.6608   -2.1084 H       1  UNL1        0.1496
     44 C          21.6228   73.2234    4.1818 C.3     1  UNL1        0.1693
     45 O          22.0612   71.9832    4.7402 O.3     1  UNL1       -0.3794
     46 H          21.8271   72.0003    5.6780 H       1  UNL1        0.2105
@<TRIPOS>BOND
     1    29    30    1
     2    29    28    1
     3    29    36    1
     4    30    31    1
     5    30    41    1
     6    31    32    1
     7    31    34    1
     8    32    33    1
     9    32    35    1
    10    33    44    1
    11    33    36    1
    12    44    45    1
    13    39    40    1
    14    39    41   am
    15    39    42    2
    16    41    43    1
    17    28    25    1
    18    34    37    1
    19    35    38    1
    20    45    46    1
    21    15    16   ar
    22    15    20   ar
    23    15     6    1
    24    16    17   ar
    25    16    21    2
    26    17    18   ar
    27    17    23    1
    28    18    19   ar
    29    18    22    2
    30    19    20   ar
    31     6     7    1
    32     6    11    1
    33     7     8    1
    34     7     9    1
    35     8    13    1
    36     9    10    1
    37     9    12    1
    38    10    11    1
    39    10     5    1
    40    12    14    1
    41     5     4    1
    42     4     1    1
    43     1     2    2
    44     1     3    1
    45     1    24    1
    46    24    25    1
    47    25    26    2
    48    25    27    1
@<TRIPOS>MOLECULE
UD1
 46 48 0 0 0
SMALL
GASTEIGER

@<TRIPOS>ATOM
      1 P          19.6801   69.7417   -3.2447 P.3     1  UNL1        0.2189
      2 O          18.8177   68.8515   -2.4369 O.2     1  UNL1       -0.5170
      3 O          21.2043   69.2290   -3.1655 O.3     1  UNL1       -0.4371
      4 O          19.5894   71.2428   -2.6690 O.3     1  UNL1       -0.3112
      5 C          20.2061   71.2300   -1.3807 C.3     1  UNL1        0.1811
      6 C          21.6308   73.7189    0.7880 C.3     1  UNL1        0.2383
      7 C          22.8378   73.1587   -0.0055 C.3     1  UNL1        0.1895
      8 O          23.8403   74.1596   -0.1852 O.3     1  UNL1       -0.3779
      9 C          22.1876   72.7771   -1.3608 C.3     1  UNL1        0.1713
     10 C          20.6887   72.6387   -1.0312 C.3     1  UNL1        0.1764
     11 O          20.5357   72.8720    0.3792 O.3     1  UNL1       -0.3308
     12 O          22.4009   73.8092   -2.3263 O.3     1  UNL1       -0.3794
     13 H          24.5605   73.7485   -0.6832 H       1  UNL1        0.2106
     14 H          23.3569   73.8878   -2.4444 H       1  UNL1        0.2105
     15 N          21.8596   73.6073    2.2290 N.ar    1  UNL1       -0.2551
     16 C          21.7398   72.4117    2.8320 C.ar    1  UNL1        0.3323
     17 N          21.9483   72.2788    4.1553 N.ar    1  UNL1       -0.2743
     18 C          22.2740   73.3525    4.9030 C.ar    1  UNL1        0.2626
     19 C          22.3976   74.6182    4.2821 C.ar    1  UNL1        0.0795
     20 C          22.1882   74.7221    2.9522 C.ar    1  UNL1        0.0869
     21 O          21.4467   71.4340    2.1711 O.2     1  UNL1       -0.2464
     22 O          22.4580   73.2343    6.1004 O.2     1  UNL1       -0.2670
     23 H          21.8622   71.4080    4.5729 H       1  UNL1        0.1734
     24 O          19.1855   69.7235   -4.7757 O.3     1  UNL1       -0.2703
     25 P          17.6730   70.2725   -4.7821 P.3     1  UNL1        0.2208
     26 O          17.2610   70.5993   -3.3993 O.2     1  UNL1       -0.5170
     27 O          16.6939   69.1430   -5.3802 O.3     1  UNL1       -0.4371
     28 O          17.5847   71.5952   -5.6950 O.3     1  UNL1       -0.2865
     29 C          16.2742   71.6198   -6.2634 C.3     1  UNL1        0.2611
     30 C          16.3783   71.9198   -7.7598 C.3     1  UNL1        0.1582
     31 C          17.0773   73.2702   -7.9528 C.3     1  UNL1        0.1625
     32 C          16.3380   74.3274   -7.1258 C.3     1  UNL1        0.1686
     33 C          16.2397   73.8470   -5.6764 C.3     1  UNL1        0.1760
     34 O          17.0475   73.6316   -9.3348 O.3     1  UNL1       -0.3801
     35 O          17.0574   75.5610   -7.1742 O.3     1  UNL1       -0.3794
     36 O          15.4980   72.6291   -5.6214 O.3     1  UNL1       -0.3263
     37 H          17.4969   74.4846   -9.4103 H       1  UNL1        0.2105
     38 H          16.5589   76.1966   -6.6413 H       1  UNL1        0.2105
     39 C          18.4796   71.0230   -8.6053 C.2     1  UNL1        0.2231
     40 C          19.2785   69.9392   -9.2830 C.3     1  UNL1        0.0946
     41 N          17.1549   70.8669   -8.4177 N.am    1  UNL1       -0.2994
     42 O          19.0292   72.0363   -8.2294 O.2     1  UNL1       -0.2751
     43 H          16.7148   70.0562   -8.7186 H       1  UNL1        0.1496
     44 C          15.5314   74.9107   -4.8349 C.3     1  UNL1        0.1693
     45 O          16.3525   75.2604   -3.7188 O.3     1  UNL1       -0.3794
     46 H          15.8706   75.9309   -3.2160 H       1  UNL1        0.2105
@<TRIPOS>BOND
     1    29    30    1
     2    29    28    1
     3    29    36    1
     4    30    31    1
     5    30    41    1
     6    31    32    1
     7    31    34    1
     8    32    33    1
     9    32    35    1
    10    33    44    1
    11    33    36    1
    12    44    45    1
    13    39    40    1
    14    39    41   am
    15    39    42    2
    16    41    43    1
    17    28    25    1
    18    34    37    1
    19    35    38    1
    20    45    46    1
    21    15    16   ar
    22    15    20   ar
    23    15     6    1
    24    16    17   ar
    25    16    21    2
    26    17    18   ar
    27    17    23    1
    28    18    19   ar
    29    18    22    2
    30    19    20   ar
    31     6     7    1
    32     6    11    1
    33     7     8    1
    34     7     9    1
    35     8    13    1
    36     9    10    1
    37     9    12    1
    38    10    11    1
    39    10     5    1
    40    12    14    1
    41     5     4    1
    42     4     1    1
    43     1     2    2
    44     1     3    1
    45     1    24    1
    46    24    25    1
    47    25    26    2
    48    25    27    1
@<TRIPOS>MOLECULE
UD1
 46 48 0 0 0
SMALL
GASTEIGER

@<TRIPOS>ATOM
      1 P          20.7485   70.6129   -2.6535 P.3     1  UNL1        0.2189
      2 O          21.4873   69.4595   -3.2128 O.2     1  UNL1       -0.5170
      3 O          20.9446   70.6522   -1.0558 O.3     1  UNL1       -0.4371
      4 O          19.1825   70.4641   -2.9974 O.3     1  UNL1       -0.3112
      5 C          19.0951   70.0753   -4.3691 C.3     1  UNL1        0.1811
      6 C          18.8610   72.6121   -6.9063 C.3     1  UNL1        0.2383
      7 C          18.3458   71.3243   -7.5963 C.3     1  UNL1        0.1895
      8 O          17.3663   71.6329   -8.5886 O.3     1  UNL1       -0.3779
      9 C          17.7090   70.5524   -6.4114 C.3     1  UNL1        0.1713
     10 C          18.3749   71.1654   -5.1643 C.3     1  UNL1        0.1764
     11 O          19.3232   72.1447   -5.6212 O.3     1  UNL1       -0.3308
     12 O          16.2948   70.7573   -6.3831 O.3     1  UNL1       -0.3794
     13 H          17.0882   70.7926   -8.9786 H       1  UNL1        0.2106
     14 H          15.9453   70.4075   -7.2136 H       1  UNL1        0.2105
     15 N          19.9622   73.2039   -7.6669 N.ar    1  UNL1       -0.2551
     16 C          20.8083   72.4077   -8.3433 C.ar    1  UNL1        0.3323
     17 N          21.8276   72.9248   -9.0546 N.ar    1  UNL1       -0.2743
     18 C          22.0223   74.2584   -9.0920 C.ar    1  UNL1        0.2626
     19 C          21.1427   75.1079   -8.3796 C.ar    1  UNL1        0.0795
     20 C          20.1253   74.5630   -7.6787 C.ar    1  UNL1        0.0869
     21 O          20.6457   71.2029   -8.3193 O.2     1  UNL1       -0.2464
     22 O          22.9465   74.7267   -9.7309 O.2     1  UNL1       -0.2670
     23 H          22.4254   72.3359   -9.5404 H       1  UNL1        0.1734
     24 O          21.3123   71.9750   -3.2980 O.3     1  UNL1       -0.2703
     25 P          22.9040   71.9774   -3.0614 P.3     1  UNL1        0.2208
     26 O          23.5666   72.6963   -4.1718 O.2     1  UNL1       -0.5170
     27 O          23.4416   70.4607   -3.0085 O.3     1  UNL1       -0.4371
     28 O          23.2398   72.7131   -1.6698 O.3     1  UNL1       -0.2865
     29 C          22.4142   73.8774   -1.6067 C.3     1  UNL1        0.2611
     30 C          23.2959   75.1115   -1.4079 C.3     1  UNL1        0.1582
     31 C          24.1016   74.9487   -0.1141 C.3     1  UNL1        0.1625
     32 C          23.1311   74.6490    1.0333 C.3     1  UNL1        0.1686
     33 C          22.2638   73.4476    0.6514 C.3     1  UNL1        0.1760
     34 O          24.8151   76.1557    0.1608 O.3     1  UNL1       -0.3801
     35 O          23.8705   74.3490    2.2186 O.3     1  UNL1       -0.3794
     36 O          21.5033   73.7539   -0.5166 O.3     1  UNL1       -0.3263
     37 H          25.3070   76.0090    0.9805 H       1  UNL1        0.2105
     38 H          23.2225   74.1662    2.9137 H       1  UNL1        0.2105
     39 C          24.4452   76.4602   -3.0795 C.2     1  UNL1        0.2231
     40 C          25.3877   76.5993   -4.2477 C.3     1  UNL1        0.0946
     41 N          24.2118   75.2472   -2.5424 N.am    1  UNL1       -0.2994
     42 O          23.8963   77.4403   -2.6234 O.2     1  UNL1       -0.2751
     43 H          24.6508   74.4626   -2.9074 H       1  UNL1        0.1496
     44 C          21.3129   73.1197    1.8044 C.3     1  UNL1        0.1693
     45 O          21.1374   71.7041    1.8897 O.3     1  UNL1       -0.3794
     46 H          20.5329   71.5409    2.6263 H       1  UNL1        0.2105
@<TRIPOS>BOND
     1    29    30    1
     2    29    28    1
     3    29    36    1
     4    30    31    1
     5    30    41    1
     6    31    32    1
     7    31    34    1
     8    32    33    1
     9    32    35    1
    10    33    44    1
    11    33    36    1
    12    44    45    1
    13    39    40    1
    14    39    41   am
    15    39    42    2
    16    41    43    1
    17    28    25    1
    18    34    37    1
    19    35    38    1
    20    45    46    1
    21    15    16   ar
    22    15    20   ar
    23    15     6    1
    24    16    17   ar
    25    16    21    2
    26    17    18   ar
    27    17    23    1
    28    18    19   ar
    29    18    22    2
    30    19    20   ar
    31     6     7    1
    32     6    11    1
    33     7     8    1
    34     7     9    1
    35     8    13    1
    36     9    10    1
    37     9    12    1
    38    10    11    1
    39    10     5    1
    40    12    14    1
    41     5     4    1
    42     4     1    1
    43     1     2    2
    44     1     3    1
    45     1    24    1
    46    24    25    1
    47    25    26    2
    48    25    27    1
@<TRIPOS>MOLECULE
UD1
 46 48 0 0 0
SMALL
GASTEIGER

@<TRIPOS>ATOM
      1 P          21.9187   70.8850   -2.9129 P.3     1  UNL1        0.2189
      2 O          21.4548   69.5795   -2.3940 O.2     1  UNL1       -0.5170
      3 O          23.4904   70.8000   -3.2521 O.3     1  UNL1       -0.4371
      4 O          21.6716   72.0225   -1.8003 O.3     1  UNL1       -0.3112
      5 C          21.9513   71.4284   -0.5318 C.3     1  UNL1        0.1811
      6 C          21.9437   73.7023    2.2533 C.3     1  UNL1        0.2383
      7 C          21.7244   74.6058    1.0139 C.3     1  UNL1        0.1895
      8 O          20.9339   75.7474    1.3471 O.3     1  UNL1       -0.3779
      9 C          20.9552   73.6610    0.0543 C.3     1  UNL1        0.1713
     10 C          21.2860   72.2487    0.5745 C.3     1  UNL1        0.1764
     11 O          22.1902   72.3998    1.6822 O.3     1  UNL1       -0.3308
     12 O          19.5498   73.9111    0.1259 O.3     1  UNL1       -0.3794
     13 H          20.8353   76.2661    0.5366 H       1  UNL1        0.2106
     14 H          19.4144   74.8261   -0.1542 H       1  UNL1        0.2105
     15 N          23.1007   74.1540    3.0271 N.ar    1  UNL1       -0.2551
     16 C          24.1223   74.7655    2.4027 C.ar    1  UNL1        0.3323
     17 N          25.1974   75.1948    3.0898 N.ar    1  UNL1       -0.2743
     18 C          25.2705   75.0084    4.4231 C.ar    1  UNL1        0.2626
     19 C          24.2048   74.3608    5.0922 C.ar    1  UNL1        0.0795
     20 C          23.1359   73.9449    4.3794 C.ar    1  UNL1        0.0869
     21 O          24.0710   74.9410    1.2006 O.2     1  UNL1       -0.2464
     22 O          26.2442   75.3919    5.0446 O.2     1  UNL1       -0.2670
     23 H          25.9230   75.6382    2.6239 H       1  UNL1        0.1734
     24 O          21.0997   71.2536   -4.2479 O.3     1  UNL1       -0.2703
     25 P          19.5788   70.7882   -4.0037 P.3     1  UNL1        0.2208
     26 O          19.1967   71.0676   -2.6020 O.2     1  UNL1       -0.5170
     27 O          19.4473   69.2094   -4.2906 O.3     1  UNL1       -0.4371
     28 O          18.6032   71.5957   -4.9969 O.3     1  UNL1       -0.2865
     29 C          17.5210   70.7198   -5.3176 C.3     1  UNL1        0.2611
     30 C          17.1379   70.9072   -6.7867 C.3     1  UNL1        0.1582
     31 C          16.7379   72.3687   -7.0179 C.3     1  UNL1        0.1625
     32 C          15.6492   72.7447   -6.0072 C.3     1  UNL1        0.1686
     33 C          16.1459   72.4215   -4.5964 C.3     1  UNL1        0.1760
     34 O          16.2362   72.5234   -8.3468 O.3     1  UNL1       -0.3801
     35 O          15.3660   74.1416   -6.1073 O.3     1  UNL1       -0.3794
     36 O          16.4037   71.0224   -4.4848 O.3     1  UNL1       -0.3263
     37 H          15.9976   73.4550   -8.4486 H       1  UNL1        0.2105
     38 H          14.6779   74.3350   -5.4549 H       1  UNL1        0.2105
     39 C          19.1542   71.5289   -8.0042 C.2     1  UNL1        0.2231
     40 C          20.3306   71.1824   -8.8808 C.3     1  UNL1        0.0946
     41 N          18.2811   70.5709   -7.6378 N.am    1  UNL1       -0.2994
     42 O          18.9931   72.6707   -7.6291 O.2     1  UNL1       -0.2751
     43 H          18.4097   69.6572   -7.9380 H       1  UNL1        0.1496
     44 C          15.0784   72.8235   -3.5767 C.3     1  UNL1        0.1693
     45 O          14.8601   71.7452   -2.6647 O.3     1  UNL1       -0.3794
     46 H          14.1823   72.0390   -2.0411 H       1  UNL1        0.2105
@<TRIPOS>BOND
     1    29    30    1
     2    29    28    1
     3    29    36    1
     4    30    31    1
     5    30    41    1
     6    31    32    1
     7    31    34    1
     8    32    33    1
     9    32    35    1
    10    33    44    1
    11    33    36    1
    12    44    45    1
    13    39    40    1
    14    39    41   am
    15    39    42    2
    16    41    43    1
    17    28    25    1
    18    34    37    1
    19    35    38    1
    20    45    46    1
    21    15    16   ar
    22    15    20   ar
    23    15     6    1
    24    16    17   ar
    25    16    21    2
    26    17    18   ar
    27    17    23    1
    28    18    19   ar
    29    18    22    2
    30    19    20   ar
    31     6     7    1
    32     6    11    1
    33     7     8    1
    34     7     9    1
    35     8    13    1
    36     9    10    1
    37     9    12    1
    38    10    11    1
    39    10     5    1
    40    12    14    1
    41     5     4    1
    42     4     1    1
    43     1     2    2
    44     1     3    1
    45     1    24    1
    46    24    25    1
    47    25    26    2
    48    25    27    1
@<TRIPOS>MOLECULE
UD1
 46 48 0 0 0
SMALL
GASTEIGER

@<TRIPOS>ATOM
      1 P          22.5024   73.9977   -4.9122 P.3     1  UNL1        0.2189
      2 O          23.1386   75.0226   -5.7687 O.2     1  UNL1       -0.5170
      3 O          23.4952   72.7401   -4.7526 O.3     1  UNL1       -0.4371
      4 O          21.1260   73.5107   -5.5913 O.3     1  UNL1       -0.3112
      5 C          21.4812   72.6608   -6.6830 C.3     1  UNL1        0.1811
      6 C          18.1506   71.9935   -7.8615 C.3     1  UNL1        0.2383
      7 C          19.0442   71.8441   -9.1182 C.3     1  UNL1        0.1895
      8 O          18.4969   70.8848  -10.0235 O.3     1  UNL1       -0.3779
      9 C          20.3772   71.3345   -8.5112 C.3     1  UNL1        0.1713
     10 C          20.2992   71.7546   -7.0307 C.3     1  UNL1        0.1764
     11 O          19.0651   72.4704   -6.8517 O.3     1  UNL1       -0.3308
     12 O          20.4703   69.9133   -8.6304 O.3     1  UNL1       -0.3794
     13 H          19.0972   70.8397  -10.7806 H       1  UNL1        0.2106
     14 H          20.4545   69.7106   -9.5752 H       1  UNL1        0.2105
     15 N          17.0850   72.9689   -8.0949 N.ar    1  UNL1       -0.2551
     16 C          17.2412   73.9134   -9.0388 C.ar    1  UNL1        0.3323
     17 N          16.2761   74.8209   -9.2777 N.ar    1  UNL1       -0.2743
     18 C          15.1334   74.8020   -8.5623 C.ar    1  UNL1        0.2626
     19 C          14.9583   73.8168   -7.5615 C.ar    1  UNL1        0.0795
     20 C          15.9402   72.9153   -7.3462 C.ar    1  UNL1        0.0869
     21 O          18.2662   73.9434   -9.6924 O.2     1  UNL1       -0.2464
     22 O          14.2621   75.6250   -8.7742 O.2     1  UNL1       -0.2670
     23 H          16.4037   75.4922   -9.9657 H       1  UNL1        0.1734
     24 O          22.1930   74.6257   -3.4635 O.3     1  UNL1       -0.2703
     25 P          21.3645   73.5165   -2.6433 P.3     1  UNL1        0.2208
     26 O          21.7196   72.1688   -3.1397 O.2     1  UNL1       -0.5170
     27 O          19.7868   73.7643   -2.8476 O.3     1  UNL1       -0.4371
     28 O          21.7249   73.6241   -1.0784 O.3     1  UNL1       -0.2865
     29 C          20.6018   73.1128   -0.3583 C.3     1  UNL1        0.2611
     30 C          20.2810   74.0491    0.8081 C.3     1  UNL1        0.1582
     31 C          21.5081   74.1512    1.7209 C.3     1  UNL1        0.1625
     32 C          21.9409   72.7366    2.1204 C.3     1  UNL1        0.1686
     33 C          22.1395   71.9001    0.8546 C.3     1  UNL1        0.1760
     34 O          21.1740   74.9014    2.8901 O.3     1  UNL1       -0.3801
     35 O          23.1677   72.8003    2.8502 O.3     1  UNL1       -0.3794
     36 O          20.9090   71.8116    0.1373 O.3     1  UNL1       -0.3263
     37 H          21.9724   74.9409    3.4344 H       1  UNL1        0.2105
     38 H          23.4036   71.8905    3.0806 H       1  UNL1        0.2105
     39 C          18.6672   75.6700   -0.0302 C.2     1  UNL1        0.2231
     40 C          18.3187   77.0367   -0.5622 C.3     1  UNL1        0.0946
     41 N          19.9418   75.3767    0.2916 N.am    1  UNL1       -0.2994
     42 O          17.8000   74.8339    0.1077 O.2     1  UNL1       -0.2751
     43 H          20.6361   76.0456    0.1811 H       1  UNL1        0.1496
     44 C          22.6035   70.4943    1.2414 C.3     1  UNL1        0.1693
     45 O          21.7418   69.5257    0.6403 O.3     1  UNL1       -0.3794
     46 H          22.0680   68.6561    0.9088 H       1  UNL1        0.2105
@<TRIPOS>BOND
     1    29    30    1
     2    29    28    1
     3    29    36    1
     4    30    31    1
     5    30    41    1
     6    31    32    1
     7    31    34    1
     8    32    33    1
     9    32    35    1
    10    33    44    1
    11    33    36    1
    12    44    45    1
    13    39    40    1
    14    39    41   am
    15    39    42    2
    16    41    43    1
    17    28    25    1
    18    34    37    1
    19    35    38    1
    20    45    46    1
    21    15    16   ar
    22    15    20   ar
    23    15     6    1
    24    16    17   ar
    25    16    21    2
    26    17    18   ar
    27    17    23    1
    28    18    19   ar
    29    18    22    2
    30    19    20   ar
    31     6     7    1
    32     6    11    1
    33     7     8    1
    34     7     9    1
    35     8    13    1
    36     9    10    1
    37     9    12    1
    38    10    11    1
    39    10     5    1
    40    12    14    1
    41     5     4    1
    42     4     1    1
    43     1     2    2
    44     1     3    1
    45     1    24    1
    46    24    25    1
    47    25    26    2
    48    25    27    1
@<TRIPOS>MOLECULE
UD1
 46 48 0 0 0
SMALL
GASTEIGER

@<TRIPOS>ATOM
      1 P          19.0109   74.2516   -2.4427 P.3     1  UNL1        0.2189
      2 O          19.5797   75.1762   -3.4479 O.2     1  UNL1       -0.5170
      3 O          17.6694   74.8914   -1.8234 O.3     1  UNL1       -0.4371
      4 O          20.0837   74.0137   -1.2656 O.3     1  UNL1       -0.3112
      5 C          20.3558   72.6118   -1.2308 C.3     1  UNL1        0.1811
      6 C          22.7486   72.3624    1.4411 C.3     1  UNL1        0.2383
      7 C          22.2418   70.9126    1.2373 C.3     1  UNL1        0.1895
      8 O          23.2613   69.9651    1.5569 O.3     1  UNL1       -0.3779
      9 C          21.9213   70.8900   -0.2800 C.3     1  UNL1        0.1713
     10 C          21.7503   72.3764   -0.6487 C.3     1  UNL1        0.1764
     11 O          21.9114   73.1398    0.5590 O.3     1  UNL1       -0.3308
     12 O          23.0026   70.3077   -1.0111 O.3     1  UNL1       -0.3794
     13 H          22.8835   69.0869    1.4102 H       1  UNL1        0.2106
     14 H          23.0973   69.3997   -0.6937 H       1  UNL1        0.2105
     15 N          22.5677   72.7854    2.8303 N.ar    1  UNL1       -0.2551
     16 C          21.3843   72.5901    3.4374 C.ar    1  UNL1        0.3323
     17 N          21.1907   72.9656    4.7156 N.ar    1  UNL1       -0.2743
     18 C          22.1854   73.5559    5.4085 C.ar    1  UNL1        0.2626
     19 C          23.4345   73.7729    4.7796 C.ar    1  UNL1        0.0795
     20 C          23.6031   73.3816    3.4982 C.ar    1  UNL1        0.0869
     21 O          20.4775   72.0589    2.8258 O.2     1  UNL1       -0.2464
     22 O          22.0101   73.9001    6.5627 O.2     1  UNL1       -0.2670
     23 H          20.3321   72.8127    5.1394 H       1  UNL1        0.1734
     24 O          18.6624   72.8456   -3.1431 O.3     1  UNL1       -0.2703
     25 P          17.9387   73.1884   -4.5388 P.3     1  UNL1        0.2208
     26 O          17.3844   74.5590   -4.4834 O.2     1  UNL1       -0.5170
     27 O          16.7462   72.1382   -4.7979 O.3     1  UNL1       -0.4371
     28 O          19.0081   73.0902   -5.7376 O.3     1  UNL1       -0.2865
     29 C          19.8333   71.9562   -5.4650 C.3     1  UNL1        0.2611
     30 C          21.3003   72.3382   -5.6702 C.3     1  UNL1        0.1582
     31 C          21.4968   72.8160   -7.1134 C.3     1  UNL1        0.1625
     32 C          20.9647   71.7377   -8.0633 C.3     1  UNL1        0.1686
     33 C          19.5218   71.4033   -7.6795 C.3     1  UNL1        0.1760
     34 O          22.8871   73.0332   -7.3608 O.3     1  UNL1       -0.3801
     35 O          21.0031   72.2231   -9.4067 O.3     1  UNL1       -0.3794
     36 O          19.4833   70.8923   -6.3476 O.3     1  UNL1       -0.3263
     37 H          22.9644   73.3322   -8.2773 H       1  UNL1        0.2105
     38 H          20.6597   71.5150   -9.9699 H       1  UNL1        0.2105
     39 C          22.8500   73.3895   -4.1122 C.2     1  UNL1        0.2231
     40 C          23.2202   74.4966   -3.1585 C.3     1  UNL1        0.0946
     41 N          21.6607   73.4137   -4.7440 N.am    1  UNL1       -0.2994
     42 O          23.6226   72.4763   -4.3103 O.2     1  UNL1       -0.2751
     43 H          21.0421   74.1443   -4.5854 H       1  UNL1        0.1496
     44 C          18.9701   70.3503   -8.6428 C.3     1  UNL1        0.1693
     45 O          17.6565   70.7278   -9.0603 O.3     1  UNL1       -0.3794
     46 H          17.3463   70.0395   -9.6642 H       1  UNL1        0.2105
@<TRIPOS>BOND
     1    29    30    1
     2    29    28    1
     3    29    36    1
     4    30    31    1
     5    30    41    1
     6    31    32    1
     7    31    34    1
     8    32    33    1
     9    32    35    1
    10    33    44    1
    11    33    36    1
    12    44    45    1
    13    39    40    1
    14    39    41   am
    15    39    42    2
    16    41    43    1
    17    28    25    1
    18    34    37    1
    19    35    38    1
    20    45    46    1
    21    15    16   ar
    22    15    20   ar
    23    15     6    1
    24    16    17   ar
    25    16    21    2
    26    17    18   ar
    27    17    23    1
    28    18    19   ar
    29    18    22    2
    30    19    20   ar
    31     6     7    1
    32     6    11    1
    33     7     8    1
    34     7     9    1
    35     8    13    1
    36     9    10    1
    37     9    12    1
    38    10    11    1
    39    10     5    1
    40    12    14    1
    41     5     4    1
    42     4     1    1
    43     1     2    2
    44     1     3    1
    45     1    24    1
    46    24    25    1
    47    25    26    2
    48    25    27    1
@<TRIPOS>MOLECULE
UD1
 46 48 0 0 0
SMALL
GASTEIGER

@<TRIPOS>ATOM
      1 P          21.9423   70.8622   -2.9286 P.3     1  UNL1        0.2189
      2 O          21.4172   69.5896   -2.3868 O.2     1  UNL1       -0.5170
      3 O          23.5140   70.7047   -3.2409 O.3     1  UNL1       -0.4371
      4 O          21.7260   72.0352   -1.8469 O.3     1  UNL1       -0.3112
      5 C          22.0598   71.4878   -0.5705 C.3     1  UNL1        0.1811
      6 C          22.0141   73.7528    2.2215 C.3     1  UNL1        0.2383
      7 C          21.8109   74.6601    0.9822 C.3     1  UNL1        0.1895
      8 O          21.0155   75.8003    1.3084 O.3     1  UNL1       -0.3779
      9 C          21.0550   73.7181    0.0094 C.3     1  UNL1        0.1713
     10 C          21.3795   72.3043    0.5294 C.3     1  UNL1        0.1764
     11 O          22.2687   72.4522    1.6495 O.3     1  UNL1       -0.3308
     12 O          19.6487   73.9673    0.0631 O.3     1  UNL1       -0.3794
     13 H          20.9275   76.3215    0.4984 H       1  UNL1        0.2106
     14 H          19.5166   74.8832   -0.2160 H       1  UNL1        0.2105
     15 N          23.1605   74.2025    3.0120 N.ar    1  UNL1       -0.2551
     16 C          24.1781   74.8397    2.4073 C.ar    1  UNL1        0.3323
     17 N          25.2434   75.2679    3.1102 N.ar    1  UNL1       -0.2743
     18 C          25.3106   75.0543    4.4398 C.ar    1  UNL1        0.2626
     19 C          24.2490   74.3794    5.0882 C.ar    1  UNL1        0.0795
     20 C          23.1900   73.9654    4.3599 C.ar    1  UNL1        0.0869
     21 O          24.1320   75.0398    1.2088 O.2     1  UNL1       -0.2464
     22 O          26.2755   75.4367    5.0755 O.2     1  UNL1       -0.2670
     23 H          25.9662   75.7300    2.6584 H       1  UNL1        0.1734
     24 O          21.1592   71.2319   -4.2847 O.3     1  UNL1       -0.2703
     25 P          19.6711   70.6373   -4.1390 P.3     1  UNL1        0.2208
     26 O          18.9584   71.3514   -3.0569 O.2     1  UNL1       -0.5170
     27 O          19.7514   69.0690   -3.7837 O.3     1  UNL1       -0.4371
     28 O          18.8759   70.8320   -5.5247 O.3     1  UNL1       -0.2865
     29 C          18.8093   72.2378   -5.7704 C.3     1  UNL1        0.2611
     30 C          17.4336   72.5862   -6.3415 C.3     1  UNL1        0.1582
     31 C          17.2155   71.7992   -7.6387 C.3     1  UNL1        0.1625
     32 C          18.3973   72.0644   -8.5774 C.3     1  UNL1        0.1686
     33 C          19.7004   71.7524   -7.8385 C.3     1  UNL1        0.1760
     34 O          16.0015   72.2262   -8.2594 O.3     1  UNL1       -0.3801
     35 O          18.2884   71.2282   -9.7309 O.3     1  UNL1       -0.3794
     36 O          19.8256   72.6050   -6.7009 O.3     1  UNL1       -0.3263
     37 H          15.9040   71.7066   -9.0692 H       1  UNL1        0.2105
     38 H          19.0507   71.4265  -10.2931 H       1  UNL1        0.2105
     39 C          15.7555   73.1953   -4.6840 C.2     1  UNL1        0.2231
     40 C          14.6879   72.8283   -3.6851 C.3     1  UNL1        0.0946
     41 N          16.3961   72.2302   -5.3714 N.am    1  UNL1       -0.2994
     42 O          16.0386   74.3598   -4.8686 O.2     1  UNL1       -0.2751
     43 H          16.1699   71.2982   -5.2237 H       1  UNL1        0.1496
     44 C          20.8858   71.9830   -8.7781 C.3     1  UNL1        0.1693
     45 O          21.9777   72.5367   -8.0410 O.3     1  UNL1       -0.3794
     46 H          22.7017   72.6665   -8.6684 H       1  UNL1        0.2105
@<TRIPOS>BOND
     1    29    30    1
     2    29    28    1
     3    29    36    1
     4    30    31    1
     5    30    41    1
     6    31    32    1
     7    31    34    1
     8    32    33    1
     9    32    35    1
    10    33    44    1
    11    33    36    1
    12    44    45    1
    13    39    40    1
    14    39    41   am
    15    39    42    2
    16    41    43    1
    17    28    25    1
    18    34    37    1
    19    35    38    1
    20    45    46    1
    21    15    16   ar
    22    15    20   ar
    23    15     6    1
    24    16    17   ar
    25    16    21    2
    26    17    18   ar
    27    17    23    1
    28    18    19   ar
    29    18    22    2
    30    19    20   ar
    31     6     7    1
    32     6    11    1
    33     7     8    1
    34     7     9    1
    35     8    13    1
    36     9    10    1
    37     9    12    1
    38    10    11    1
    39    10     5    1
    40    12    14    1
    41     5     4    1
    42     4     1    1
    43     1     2    2
    44     1     3    1
    45     1    24    1
    46    24    25    1
    47    25    26    2
    48    25    27    1
@<TRIPOS>MOLECULE
UD1
 46 48 0 0 0
SMALL
GASTEIGER

@<TRIPOS>ATOM
      1 P          22.3180   70.9420   -2.5672 P.3     1  UNL1        0.2189
      2 O          21.7825   69.7820   -1.8212 O.2     1  UNL1       -0.5170
      3 O          23.7314   70.5476   -3.2301 O.3     1  UNL1       -0.4371
      4 O          22.5265   72.1788   -1.5575 O.3     1  UNL1       -0.3112
      5 C          22.4964   71.6423   -0.2340 C.3     1  UNL1        0.1811
      6 C          20.5163   73.0047    2.4400 C.3     1  UNL1        0.2383
      7 C          20.7414   74.1973    1.4771 C.3     1  UNL1        0.1895
      8 O          19.6382   75.1031    1.5187 O.3     1  UNL1       -0.3779
      9 C          20.8262   73.4915    0.0988 C.3     1  UNL1        0.1713
     10 C          21.1835   72.0334    0.4462 C.3     1  UNL1        0.1764
     11 O          21.3307   71.9558    1.8743 O.3     1  UNL1       -0.3308
     12 O          19.5678   73.5579   -0.5756 O.3     1  UNL1       -0.3794
     13 H          19.8402   75.8192    0.9007 H       1  UNL1        0.2106
     14 H          19.3725   74.4948   -0.7108 H       1  UNL1        0.2105
     15 N          20.9676   73.3363    3.7919 N.ar    1  UNL1       -0.2551
     16 C          20.0866   73.8067    4.6919 C.ar    1  UNL1        0.3323
     17 N          20.4729   74.1162    5.9438 N.ar    1  UNL1       -0.2743
     18 C          21.7607   73.9668    6.3140 C.ar    1  UNL1        0.2626
     19 C          22.6999   73.4782    5.3748 C.ar    1  UNL1        0.0795
     20 C          22.2843   73.1704    4.1275 C.ar    1  UNL1        0.0869
     21 O          18.9215   73.9470    4.3730 O.2     1  UNL1       -0.2464
     22 O          22.1120   74.2508    7.4442 O.2     1  UNL1       -0.2670
     23 H          19.8230   74.4498    6.5814 H       1  UNL1        0.1734
     24 O          21.2806   71.3621   -3.7231 O.3     1  UNL1       -0.2703
     25 P          19.9082   70.5773   -3.4237 P.3     1  UNL1        0.2208
     26 O          19.2953   71.1098   -2.1869 O.2     1  UNL1       -0.5170
     27 O          20.2163   69.0081   -3.2364 O.3     1  UNL1       -0.4371
     28 O          18.8928   70.7799   -4.6559 O.3     1  UNL1       -0.2865
     29 C          19.1859   72.0554   -5.2290 C.3     1  UNL1        0.2611
     30 C          17.9002   72.8805   -5.3092 C.3     1  UNL1        0.1582
     31 C          16.8735   72.1270   -6.1623 C.3     1  UNL1        0.1625
     32 C          17.5140   71.7849   -7.5117 C.3     1  UNL1        0.1686
     33 C          18.8274   71.0396   -7.2652 C.3     1  UNL1        0.1760
     34 O          15.7251   72.9516   -6.3689 O.3     1  UNL1       -0.3801
     35 O          16.6268   70.9563   -8.2654 O.3     1  UNL1       -0.3794
     36 O          19.7261   71.8747   -6.5362 O.3     1  UNL1       -0.3263
     37 H          15.1069   72.4396   -6.9083 H       1  UNL1        0.2105
     38 H          17.0685   70.7646   -9.1048 H       1  UNL1        0.2105
     39 C          16.4207   72.2527   -3.4786 C.2     1  UNL1        0.2231
     40 C          15.8686   72.4630   -2.0918 C.3     1  UNL1        0.0946
     41 N          17.3639   73.0840   -3.9619 N.am    1  UNL1       -0.2994
     42 O          16.0154   71.3352   -4.1599 O.2     1  UNL1       -0.2751
     43 H          17.6883   73.8185   -3.4170 H       1  UNL1        0.1496
     44 C          19.4592   70.6646   -8.6074 C.3     1  UNL1        0.1693
     45 O          20.8340   71.0545   -8.6127 O.3     1  UNL1       -0.3794
     46 H          21.1933   70.8012   -9.4737 H       1  UNL1        0.2105
@<TRIPOS>BOND
     1    29    30    1
     2    29    28    1
     3    29    36    1
     4    30    31    1
     5    30    41    1
     6    31    32    1
     7    31    34    1
     8    32    33    1
     9    32    35    1
    10    33    44    1
    11    33    36    1
    12    44    45    1
    13    39    40    1
    14    39    41   am
    15    39    42    2
    16    41    43    1
    17    28    25    1
    18    34    37    1
    19    35    38    1
    20    45    46    1
    21    15    16   ar
    22    15    20   ar
    23    15     6    1
    24    16    17   ar
    25    16    21    2
    26    17    18   ar
    27    17    23    1
    28    18    19   ar
    29    18    22    2
    30    19    20   ar
    31     6     7    1
    32     6    11    1
    33     7     8    1
    34     7     9    1
    35     8    13    1
    36     9    10    1
    37     9    12    1
    38    10    11    1
    39    10     5    1
    40    12    14    1
    41     5     4    1
    42     4     1    1
    43     1     2    2
    44     1     3    1
    45     1    24    1
    46    24    25    1
    47    25    26    2
    48    25    27    1
@<TRIPOS>MOLECULE
UD1
 46 48 0 0 0
SMALL
GASTEIGER

@<TRIPOS>ATOM
      1 P          17.4555   71.1005   -3.1888 P.3     1  UNL1        0.2189
      2 O          16.8192   70.4621   -4.3619 O.2     1  UNL1       -0.5170
      3 O          16.3283   71.4627   -2.0975 O.3     1  UNL1       -0.4371
      4 O          18.2046   72.4483   -3.6526 O.3     1  UNL1       -0.3112
      5 C          17.2836   73.5223   -3.4563 C.3     1  UNL1        0.1811
      6 C          17.2201   73.7285   -7.0452 C.3     1  UNL1        0.2383
      7 C          15.8004   73.2431   -6.6592 C.3     1  UNL1        0.1895
      8 O          14.8293   73.7045   -7.5990 O.3     1  UNL1       -0.3779
      9 C          15.5927   73.9118   -5.2754 C.3     1  UNL1        0.1713
     10 C          17.0223   74.2218   -4.7910 C.3     1  UNL1        0.1764
     11 O          17.9310   73.7261   -5.7889 O.3     1  UNL1       -0.3308
     12 O          14.8314   75.1140   -5.4099 O.3     1  UNL1       -0.3794
     13 H          13.9717   73.3693   -7.3030 H       1  UNL1        0.2106
     14 H          13.9717   74.8610   -5.7719 H       1  UNL1        0.2105
     15 N          17.8447   72.8054   -7.9935 N.ar    1  UNL1       -0.2551
     16 C          18.0922   73.2091   -9.2517 C.ar    1  UNL1        0.3323
     17 N          18.6693   72.3826  -10.1440 N.ar    1  UNL1       -0.2743
     18 C          19.0018   71.1251   -9.7892 C.ar    1  UNL1        0.2626
     19 C          18.7414   70.6851   -8.4696 C.ar    1  UNL1        0.0795
     20 C          18.1665   71.5365   -7.5933 C.ar    1  UNL1        0.0869
     21 O          17.7981   74.3404   -9.5867 O.2     1  UNL1       -0.2464
     22 O          19.5192   70.3754  -10.5965 O.2     1  UNL1       -0.2670
     23 H          18.8449   72.6921  -11.0460 H       1  UNL1        0.1734
     24 O          18.5252   70.0880   -2.5411 O.3     1  UNL1       -0.2703
     25 P          19.8746   70.2204   -3.4077 P.3     1  UNL1        0.2208
     26 O          19.5790   69.9299   -4.8280 O.2     1  UNL1       -0.5170
     27 O          20.9683   69.1722   -2.8627 O.3     1  UNL1       -0.4371
     28 O          20.4542   71.7161   -3.2754 O.3     1  UNL1       -0.2865
     29 C          21.8752   71.6215   -3.3894 C.3     1  UNL1        0.2611
     30 C          22.5272   72.5522   -2.3654 C.3     1  UNL1        0.1582
     31 C          22.0580   73.9885   -2.6234 C.3     1  UNL1        0.1625
     32 C          22.3329   74.3379   -4.0899 C.3     1  UNL1        0.1686
     33 C          21.6929   73.2739   -4.9841 C.3     1  UNL1        0.1760
     34 O          22.7728   74.8860   -1.7718 O.3     1  UNL1       -0.3801
     35 O          21.7713   75.6170   -4.3898 O.3     1  UNL1       -0.3794
     36 O          22.2712   71.9992   -4.7062 O.3     1  UNL1       -0.3263
     37 H          22.4468   75.7754   -1.9668 H       1  UNL1        0.2105
     38 H          21.9662   75.7969   -5.3205 H       1  UNL1        0.2105
     39 C          22.6912   71.0521   -0.4530 C.2     1  UNL1        0.2231
     40 C          22.2890   70.6320    0.9376 C.3     1  UNL1        0.0946
     41 N          22.1371   72.1440   -1.0142 N.am    1  UNL1       -0.2994
     42 O          23.5135   70.4066   -1.0673 O.2     1  UNL1       -0.2751
     43 H          21.4788   72.6606   -0.5229 H       1  UNL1        0.1496
     44 C          21.9339   73.6311   -6.4522 C.3     1  UNL1        0.1693
     45 O          22.7868   72.6512   -7.0475 O.3     1  UNL1       -0.3794
     46 H          22.9133   72.9132   -7.9694 H       1  UNL1        0.2105
@<TRIPOS>BOND
     1    29    30    1
     2    29    28    1
     3    29    36    1
     4    30    31    1
     5    30    41    1
     6    31    32    1
     7    31    34    1
     8    32    33    1
     9    32    35    1
    10    33    44    1
    11    33    36    1
    12    44    45    1
    13    39    40    1
    14    39    41   am
    15    39    42    2
    16    41    43    1
    17    28    25    1
    18    34    37    1
    19    35    38    1
    20    45    46    1
    21    15    16   ar
    22    15    20   ar
    23    15     6    1
    24    16    17   ar
    25    16    21    2
    26    17    18   ar
    27    17    23    1
    28    18    19   ar
    29    18    22    2
    30    19    20   ar
    31     6     7    1
    32     6    11    1
    33     7     8    1
    34     7     9    1
    35     8    13    1
    36     9    10    1
    37     9    12    1
    38    10    11    1
    39    10     5    1
    40    12    14    1
    41     5     4    1
    42     4     1    1
    43     1     2    2
    44     1     3    1
    45     1    24    1
    46    24    25    1
    47    25    26    2
    48    25    27    1
@<TRIPOS>MOLECULE
UD1
 46 48 0 0 0
SMALL
GASTEIGER

@<TRIPOS>ATOM
      1 P          22.6057   73.2030   -4.5527 P.3     1  UNL1        0.2189
      2 O          23.7923   72.4856   -4.0370 O.2     1  UNL1       -0.5170
      3 O          22.9176   74.7814   -4.6146 O.3     1  UNL1       -0.4371
      4 O          21.3541   72.9423   -3.5737 O.3     1  UNL1       -0.3112
      5 C          21.6200   73.6535   -2.3638 C.3     1  UNL1        0.1811
      6 C          22.4050   72.2430    0.8489 C.3     1  UNL1        0.2383
      7 C          21.4207   71.2311    0.2107 C.3     1  UNL1        0.1895
      8 O          21.6903   69.9028    0.6604 O.3     1  UNL1       -0.3779
      9 C          21.7364   71.3785   -1.3005 C.3     1  UNL1        0.1713
     10 C          22.4121   72.7592   -1.4088 C.3     1  UNL1        0.1764
     11 O          22.4218   73.3372   -0.0924 O.3     1  UNL1       -0.3308
     12 O          22.6251   70.3444   -1.7292 O.3     1  UNL1       -0.3794
     13 H          21.0460   69.3247    0.2288 H       1  UNL1        0.2106
     14 H          22.1691   69.5052   -1.5811 H       1  UNL1        0.2105
     15 N          21.9159   72.6916    2.1531 N.ar    1  UNL1       -0.2551
     16 C          20.8493   73.5072    2.2201 C.ar    1  UNL1        0.3323
     17 N          20.3752   73.9323    3.4062 N.ar    1  UNL1       -0.2743
     18 C          20.9731   73.5511    4.5530 C.ar    1  UNL1        0.2626
     19 C          22.1004   72.6974    4.4967 C.ar    1  UNL1        0.0795
     20 C          22.5518   72.2817    3.2939 C.ar    1  UNL1        0.0869
     21 O          20.2992   73.8598    1.1946 O.2     1  UNL1       -0.2464
     22 O          20.5482   73.9387    5.6257 O.2     1  UNL1       -0.2670
     23 H          19.6020   74.5166    3.4361 H       1  UNL1        0.1734
     24 O          22.2534   72.6664   -6.0281 O.3     1  UNL1       -0.2703
     25 P          20.8704   73.3668   -6.4596 P.3     1  UNL1        0.2208
     26 O          20.7995   73.4509   -7.9350 O.2     1  UNL1       -0.5170
     27 O          20.8006   74.8488   -5.8343 O.3     1  UNL1       -0.4371
     28 O          19.6326   72.4959   -5.9118 O.3     1  UNL1       -0.2865
     29 C          19.7264   71.2097   -6.5267 C.3     1  UNL1        0.2611
     30 C          18.4067   70.8890   -7.2306 C.3     1  UNL1        0.1582
     31 C          17.2706   70.9154   -6.2019 C.3     1  UNL1        0.1625
     32 C          17.6360   69.9806   -5.0441 C.3     1  UNL1        0.1686
     33 C          19.0128   70.3719   -4.5031 C.3     1  UNL1        0.1760
     34 O          16.0588   70.4722   -6.8154 O.3     1  UNL1       -0.3801
     35 O          16.6612   70.1014   -4.0064 O.3     1  UNL1       -0.3794
     36 O          19.9934   70.2261   -5.5295 O.3     1  UNL1       -0.3263
     37 H          15.3727   70.5049   -6.1345 H       1  UNL1        0.2105
     38 H          16.9296   69.4981   -3.2989 H       1  UNL1        0.2105
     39 C          17.3697   72.9530   -8.0046 C.2     1  UNL1        0.2231
     40 C          17.1059   73.9809   -9.0752 C.3     1  UNL1        0.0946
     41 N          18.1505   71.8881   -8.2702 N.am    1  UNL1       -0.2994
     42 O          16.8785   73.0843   -6.9038 O.2     1  UNL1       -0.2751
     43 H          18.5436   71.7827   -9.1510 H       1  UNL1        0.1496
     44 C          19.3731   69.4647   -3.3248 C.3     1  UNL1        0.1693
     45 O          20.6949   68.9522   -3.5045 O.3     1  UNL1       -0.3794
     46 H          20.8818   68.3870   -2.7427 H       1  UNL1        0.2105
@<TRIPOS>BOND
     1    29    30    1
     2    29    28    1
     3    29    36    1
     4    30    31    1
     5    30    41    1
     6    31    32    1
     7    31    34    1
     8    32    33    1
     9    32    35    1
    10    33    44    1
    11    33    36    1
    12    44    45    1
    13    39    40    1
    14    39    41   am
    15    39    42    2
    16    41    43    1
    17    28    25    1
    18    34    37    1
    19    35    38    1
    20    45    46    1
    21    15    16   ar
    22    15    20   ar
    23    15     6    1
    24    16    17   ar
    25    16    21    2
    26    17    18   ar
    27    17    23    1
    28    18    19   ar
    29    18    22    2
    30    19    20   ar
    31     6     7    1
    32     6    11    1
    33     7     8    1
    34     7     9    1
    35     8    13    1
    36     9    10    1
    37     9    12    1
    38    10    11    1
    39    10     5    1
    40    12    14    1
    41     5     4    1
    42     4     1    1
    43     1     2    2
    44     1     3    1
    45     1    24    1
    46    24    25    1
    47    25    26    2
    48    25    27    1
