@<TRIPOS>MOLECULE
UD2
 46 48 0 0 0
SMALL
GASTEIGER

@<TRIPOS>ATOM
      1 P          21.0547   72.2462   -2.3216 P.3     1  UNL1        0.2189
      2 O          21.8531   71.3244   -3.3725 O.3     1  UNL1       -0.4371
      3 O          20.7890   73.5695   -2.9277 O.2     1  UNL1       -0.5170
      4 O          19.6583   71.5399   -1.9412 O.3     1  UNL1       -0.3112
      5 C          19.2276   70.3071   -2.5210 C.3     1  UNL1        0.1811
      6 C          17.3321   70.4886   -5.5723 C.3     1  UNL1        0.2383
      7 C          17.1130   69.0413   -5.0629 C.3     1  UNL1        0.1895
      8 O          15.8270   68.5535   -5.4502 O.3     1  UNL1       -0.3779
      9 C          17.1961   69.2209   -3.5273 C.3     1  UNL1        0.1713
     10 C          17.9594   70.5465   -3.3440 C.3     1  UNL1        0.1764
     11 O          18.3091   71.0235   -4.6530 O.3     1  UNL1       -0.3308
     12 O          15.8865   69.3152   -2.9644 O.3     1  UNL1       -0.3794
     13 H          15.6431   67.6514   -5.1553 H       1  UNL1        0.2106
     14 H          15.3408   68.5294   -3.1023 H       1  UNL1        0.2105
     15 N          17.8591   70.4803   -6.9387 N.ar    1  UNL1       -0.2551
     16 C          17.0097   70.4320   -7.9803 C.ar    1  UNL1        0.3323
     17 N          17.4661   70.4230   -9.2467 N.ar    1  UNL1       -0.2743
     18 C          18.7918   70.4646   -9.4907 C.ar    1  UNL1        0.2626
     19 C          19.6973   70.5167   -8.4037 C.ar    1  UNL1        0.0795
     20 C          19.2116   70.5288   -7.1445 C.ar    1  UNL1        0.0869
     21 O          15.8118   70.3944   -7.7753 O.2     1  UNL1       -0.2464
     22 O          19.2062   70.4569  -10.6364 O.2     1  UNL1       -0.2670
     23 H          16.8400   70.3868   -9.9861 H       1  UNL1        0.1734
     24 O          21.9409   72.4335   -0.9901 O.3     1  UNL1       -0.2703
     25 P          22.1643   71.5500    0.3374 P.3     1  UNL1        0.2208
     26 O          21.1082   70.3342    0.3564 O.3     1  UNL1       -0.4371
     27 O          23.5404   71.0073    0.3434 O.2     1  UNL1       -0.5170
     28 O          21.9450   72.4723    1.6390 O.3     1  UNL1       -0.2865
     29 C          22.4385   73.8094    1.7377 C.3     1  UNL1        0.2611
     30 C          23.3897   73.9164    2.9320 C.3     1  UNL1        0.1582
     31 C          22.6167   73.6098    4.2184 C.3     1  UNL1        0.1625
     32 C          21.4323   74.5735    4.3315 C.3     1  UNL1        0.1686
     33 C          20.5563   74.4411    3.0829 C.3     1  UNL1        0.1760
     34 O          23.4795   73.7791    5.3454 O.3     1  UNL1       -0.3801
     35 O          21.9156   75.9139    4.4366 O.3     1  UNL1       -0.3794
     36 O          21.3431   74.7088    1.9205 O.3     1  UNL1       -0.3263
     37 H          23.0550   73.6001    6.1957 H       1  UNL1        0.2105
     38 H          21.2176   76.5797    4.5111 H       1  UNL1        0.2105
     39 C          25.7421   73.3032    3.0997 C.2     1  UNL1        0.2231
     40 C          26.8655   72.3128    2.9394 C.3     1  UNL1        0.0946
     41 N          24.4819   72.9525    2.7755 N.am    1  UNL1       -0.2994
     42 O          25.9713   74.4177    3.5210 O.2     1  UNL1       -0.2751
     43 H          24.2984   72.0619    2.4377 H       1  UNL1        0.1496
     44 C          19.4032   75.4434    3.1607 C.3     1  UNL1        0.1693
     45 O          18.5494   75.2773    2.0267 O.3     1  UNL1       -0.3794
     46 H          17.7948   75.8817    2.0099 H       1  UNL1        0.2105
@<TRIPOS>BOND
     1    29    30    1
     2    30    41    1
     3    30    31    1
     4    31    34    1
     5    31    32    1
     6    32    35    1
     7    32    33    1
     8    33    36    1
     9    33    44    1
    10    39    40    1
    11    39    42    2
    12    39    41   am
    13    41    43    1
    14    29    28    1
    15    34    37    1
    16    35    38    1
    17    29    36    1
    18    44    45    1
    19    45    46    1
    20    15     6    1
    21    15    16   ar
    22    16    21    2
    23    16    17   ar
    24    17    23    1
    25    17    18   ar
    26    18    19   ar
    27    19    20   ar
    28    15    20   ar
    29    18    22    2
    30     6     7    1
    31     6    11    1
    32     7     9    1
    33     7     8    1
    34     8    13    1
    35     9    10    1
    36     9    12    1
    37    10     5    1
    38    10    11    1
    39    12    14    1
    40     5     4    1
    41     4     1    1
    42     1     2    1
    43     1    24    1
    44     1     3    2
    45    24    25    1
    46    28    25    1
    47    25    26    1
    48    25    27    2
@<TRIPOS>MOLECULE
UD2
 46 48 0 0 0
SMALL
GASTEIGER

@<TRIPOS>ATOM
      1 P          20.6054   71.8266   -3.4514 P.3     1  UNL1        0.2189
      2 O          20.8273   70.2331   -3.3971 O.3     1  UNL1       -0.4371
      3 O          20.9456   72.3270   -4.8015 O.2     1  UNL1       -0.5170
      4 O          19.0649   72.1651   -3.1259 O.3     1  UNL1       -0.3112
      5 C          18.1522   71.2011   -2.5976 C.3     1  UNL1        0.1811
      6 C          16.7893   70.5056   -5.8526 C.3     1  UNL1        0.2383
      7 C          16.8930   69.1185   -5.1691 C.3     1  UNL1        0.1895
      8 O          15.8664   68.2415   -5.6365 O.3     1  UNL1       -0.3779
      9 C          16.6789   69.4741   -3.6774 C.3     1  UNL1        0.1713
     10 C          17.0144   70.9756   -3.5963 C.3     1  UNL1        0.1764
     11 O          17.4252   71.3936   -4.9078 O.3     1  UNL1       -0.3308
     12 O          15.3206   69.2436   -3.2996 O.3     1  UNL1       -0.3794
     13 H          15.8897   67.3608   -5.2384 H       1  UNL1        0.2106
     14 H          15.0377   68.3234   -3.3879 H       1  UNL1        0.2105
     15 N          17.5093   70.5073   -7.1280 N.ar    1  UNL1       -0.2551
     16 C          16.8208   70.5663   -8.2818 C.ar    1  UNL1        0.3323
     17 N          17.4565   70.5692   -9.4685 N.ar    1  UNL1       -0.2743
     18 C          18.8030   70.5144   -9.5173 C.ar    1  UNL1        0.2626
     19 C          19.5404   70.4530   -8.3104 C.ar    1  UNL1        0.0795
     20 C          18.8773   70.4559   -7.1349 C.ar    1  UNL1        0.0869
     21 O          15.6063   70.6163   -8.2530 O.2     1  UNL1       -0.2464
     22 O          19.3796   70.5173  -10.5907 O.2     1  UNL1       -0.2670
     23 H          16.9447   70.6108  -10.2910 H       1  UNL1        0.1734
     24 O          21.5526   72.5381   -2.3606 O.3     1  UNL1       -0.2703
     25 P          23.0517   72.2702   -1.8373 P.3     1  UNL1        0.2208
     26 O          23.0633   70.9706   -0.8861 O.3     1  UNL1       -0.4371
     27 O          23.9449   72.0421   -2.9941 O.2     1  UNL1       -0.5170
     28 O          23.5662   73.5493   -1.0054 O.3     1  UNL1       -0.2865
     29 C          23.0931   73.8675    0.3047 C.3     1  UNL1        0.2611
     30 C          22.8698   72.5761    1.0953 C.3     1  UNL1        0.1582
     31 C          21.7889   71.7425    0.4002 C.3     1  UNL1        0.1625
     32 C          20.5118   72.5787    0.2818 C.3     1  UNL1        0.1686
     33 C          20.8260   73.8703   -0.4777 C.3     1  UNL1        0.1760
     34 O          21.5217   70.5690    1.1716 O.3     1  UNL1       -0.3801
     35 O          20.0270   72.8977    1.5874 O.3     1  UNL1       -0.3794
     36 O          21.8599   74.5828    0.2046 O.3     1  UNL1       -0.3263
     37 H          20.8459   69.9928    0.7889 H       1  UNL1        0.2105
     38 H          19.2180   73.4283    1.5885 H       1  UNL1        0.2105
     39 C          24.9179   71.9003    2.2296 C.2     1  UNL1        0.2231
     40 C          26.2021   71.1153    2.2845 C.3     1  UNL1        0.0946
     41 N          24.1190   71.8124    1.1478 N.am    1  UNL1       -0.2994
     42 O          24.6018   72.6125    3.1597 O.2     1  UNL1       -0.2751
     43 H          24.3718   71.2439    0.4035 H       1  UNL1        0.1496
     44 C          19.5687   74.7389   -0.5483 C.3     1  UNL1        0.1693
     45 O          18.4165   73.9017   -0.6669 O.3     1  UNL1       -0.3794
     46 H          17.5812   74.3861   -0.7169 H       1  UNL1        0.2105
@<TRIPOS>BOND
     1    29    30    1
     2    30    41    1
     3    30    31    1
     4    31    34    1
     5    31    32    1
     6    32    35    1
     7    32    33    1
     8    33    36    1
     9    33    44    1
    10    39    40    1
    11    39    42    2
    12    39    41   am
    13    41    43    1
    14    29    28    1
    15    34    37    1
    16    35    38    1
    17    29    36    1
    18    44    45    1
    19    45    46    1
    20    15     6    1
    21    15    16   ar
    22    16    21    2
    23    16    17   ar
    24    17    23    1
    25    17    18   ar
    26    18    19   ar
    27    19    20   ar
    28    15    20   ar
    29    18    22    2
    30     6     7    1
    31     6    11    1
    32     7     9    1
    33     7     8    1
    34     8    13    1
    35     9    10    1
    36     9    12    1
    37    10     5    1
    38    10    11    1
    39    12    14    1
    40     5     4    1
    41     4     1    1
    42     1     2    1
    43     1    24    1
    44     1     3    2
    45    24    25    1
    46    28    25    1
    47    25    26    1
    48    25    27    2
@<TRIPOS>MOLECULE
UD2
 46 48 0 0 0
SMALL
GASTEIGER

@<TRIPOS>ATOM
      1 P          20.4124   71.3431   -3.0260 P.3     1  UNL1        0.2189
      2 O          21.1622   70.0466   -3.6161 O.3     1  UNL1       -0.4371
      3 O          20.3041   72.3741   -4.0816 O.2     1  UNL1       -0.5170
      4 O          18.9382   70.9294   -2.5266 O.3     1  UNL1       -0.3112
      5 C          17.8138   71.8068   -2.6124 C.3     1  UNL1        0.1811
      6 C          16.7303   70.5031   -5.7847 C.3     1  UNL1        0.2383
      7 C          17.1439   69.2514   -4.9697 C.3     1  UNL1        0.1895
      8 O          16.3654   68.1151   -5.3498 O.3     1  UNL1       -0.3779
      9 C          16.8171   69.6848   -3.5196 C.3     1  UNL1        0.1713
     10 C          16.7853   71.2237   -3.5846 C.3     1  UNL1        0.1764
     11 O          17.1157   71.6020   -4.9305 O.3     1  UNL1       -0.3308
     12 O          15.5437   69.1742   -3.1213 O.3     1  UNL1       -0.3794
     13 H          16.5875   67.3069   -4.8681 H       1  UNL1        0.2106
     14 H          15.4890   68.2091   -3.1198 H       1  UNL1        0.2105
     15 N          17.4588   70.5560   -7.0541 N.ar    1  UNL1       -0.2551
     16 C          16.7777   70.5531   -8.2139 C.ar    1  UNL1        0.3323
     17 N          17.4212   70.6007   -9.3953 N.ar    1  UNL1       -0.2743
     18 C          18.7682   70.6543   -9.4328 C.ar    1  UNL1        0.2626
     19 C          19.4977   70.6590   -8.2196 C.ar    1  UNL1        0.0795
     20 C          18.8265   70.6148   -7.0496 C.ar    1  UNL1        0.0869
     21 O          15.5629   70.5053   -8.1952 O.2     1  UNL1       -0.2464
     22 O          19.3518   70.6979  -10.5015 O.2     1  UNL1       -0.2670
     23 H          16.9149   70.5967  -10.2222 H       1  UNL1        0.1734
     24 O          21.2532   71.9313   -1.7850 O.3     1  UNL1       -0.2703
     25 P          21.0167   71.9702   -0.1926 P.3     1  UNL1        0.2208
     26 O          19.6713   72.7947    0.1296 O.3     1  UNL1       -0.4371
     27 O          20.8829   70.5891    0.3204 O.2     1  UNL1       -0.5170
     28 O          22.2701   72.6884    0.5186 O.3     1  UNL1       -0.2865
     29 C          22.4116   72.7817    1.9373 C.3     1  UNL1        0.2611
     30 C          22.7673   74.2198    2.3221 C.3     1  UNL1        0.1582
     31 C          24.1153   74.5885    1.6949 C.3     1  UNL1        0.1625
     32 C          25.1740   73.5846    2.1595 C.3     1  UNL1        0.1686
     33 C          24.7254   72.1706    1.7807 C.3     1  UNL1        0.1760
     34 O          24.4904   75.9042    2.1091 O.3     1  UNL1       -0.3801
     35 O          25.3274   73.6739    3.5771 O.3     1  UNL1       -0.3794
     36 O          23.4518   71.9026    2.3706 O.3     1  UNL1       -0.3263
     37 H          25.3359   76.2037    1.7479 H       1  UNL1        0.2105
     38 H          25.9838   73.0637    3.9416 H       1  UNL1        0.2105
     39 C          20.6546   75.4043    2.5885 C.2     1  UNL1        0.2231
     40 C          19.5892   76.3396    2.0796 C.3     1  UNL1        0.0946
     41 N          21.7313   75.1294    1.8262 N.am    1  UNL1       -0.2994
     42 O          20.5437   74.8978    3.6855 O.2     1  UNL1       -0.2751
     43 H          21.8199   75.5334    0.9487 H       1  UNL1        0.1496
     44 C          25.7492   71.1564    2.2942 C.3     1  UNL1        0.1693
     45 O          25.0689   70.0043    2.7964 O.3     1  UNL1       -0.3794
     46 H          25.6572   69.3178    3.1394 H       1  UNL1        0.2105
@<TRIPOS>BOND
     1    29    30    1
     2    30    41    1
     3    30    31    1
     4    31    34    1
     5    31    32    1
     6    32    35    1
     7    32    33    1
     8    33    36    1
     9    33    44    1
    10    39    40    1
    11    39    42    2
    12    39    41   am
    13    41    43    1
    14    29    28    1
    15    34    37    1
    16    35    38    1
    17    29    36    1
    18    44    45    1
    19    45    46    1
    20    15     6    1
    21    15    16   ar
    22    16    21    2
    23    16    17   ar
    24    17    23    1
    25    17    18   ar
    26    18    19   ar
    27    19    20   ar
    28    15    20   ar
    29    18    22    2
    30     6     7    1
    31     6    11    1
    32     7     9    1
    33     7     8    1
    34     8    13    1
    35     9    10    1
    36     9    12    1
    37    10     5    1
    38    10    11    1
    39    12    14    1
    40     5     4    1
    41     4     1    1
    42     1     2    1
    43     1    24    1
    44     1     3    2
    45    24    25    1
    46    28    25    1
    47    25    26    1
    48    25    27    2
@<TRIPOS>MOLECULE
UD2
 46 48 0 0 0
SMALL
GASTEIGER

@<TRIPOS>ATOM
      1 P          20.7878   71.0653   -3.0541 P.3     1  UNL1        0.2189
      2 O          20.9852   70.4463   -1.5813 O.3     1  UNL1       -0.4371
      3 O          20.8783   69.9846   -4.0603 O.2     1  UNL1       -0.5170
      4 O          19.3424   71.7692   -3.1508 O.3     1  UNL1       -0.3112
      5 C          18.1926   71.2817   -2.4568 C.3     1  UNL1        0.1811
      6 C          16.8064   70.6439   -5.7139 C.3     1  UNL1        0.2383
      7 C          16.9169   69.2447   -5.0566 C.3     1  UNL1        0.1895
      8 O          15.8879   68.3749   -5.5324 O.3     1  UNL1       -0.3779
      9 C          16.7134   69.5727   -3.5571 C.3     1  UNL1        0.1713
     10 C          17.0477   71.0729   -3.4511 C.3     1  UNL1        0.1764
     11 O          17.4483   71.5153   -4.7577 O.3     1  UNL1       -0.3308
     12 O          15.3582   69.3335   -3.1736 O.3     1  UNL1       -0.3794
     13 H          15.9153   67.4871   -5.1506 H       1  UNL1        0.2106
     14 H          15.0758   68.4147   -3.2766 H       1  UNL1        0.2105
     15 N          17.5170   70.6699   -6.9943 N.ar    1  UNL1       -0.2551
     16 C          16.8336   70.4946   -8.1393 C.ar    1  UNL1        0.3323
     17 N          17.4608   70.5135   -9.3303 N.ar    1  UNL1       -0.2743
     18 C          18.7932   70.7118   -9.3926 C.ar    1  UNL1        0.2626
     19 C          19.5249   70.8987   -8.1952 C.ar    1  UNL1        0.0795
     20 C          18.8697   70.8791   -7.0155 C.ar    1  UNL1        0.0869
     21 O          15.6317   70.3150   -8.0983 O.2     1  UNL1       -0.2464
     22 O          19.3620   70.7295  -10.4700 O.2     1  UNL1       -0.2670
     23 H          16.9531   70.3843  -10.1462 H       1  UNL1        0.1734
     24 O          21.9362   72.1586   -3.3354 O.3     1  UNL1       -0.2703
     25 P          23.5322   72.1833   -3.1232 P.3     1  UNL1        0.2208
     26 O          24.0905   70.6733   -3.0785 O.3     1  UNL1       -0.4371
     27 O          24.1680   72.9106   -4.2436 O.2     1  UNL1       -0.5170
     28 O          23.8777   72.9249   -1.7364 O.3     1  UNL1       -0.2865
     29 C          22.9781   73.8283   -1.0916 C.3     1  UNL1        0.2611
     30 C          23.7766   74.8679   -0.3014 C.3     1  UNL1        0.1582
     31 C          24.5839   74.1577    0.7895 C.3     1  UNL1        0.1625
     32 C          23.6271   73.3607    1.6805 C.3     1  UNL1        0.1686
     33 C          22.8343   72.3789    0.8136 C.3     1  UNL1        0.1760
     34 O          25.2756   75.1278    1.5793 O.3     1  UNL1       -0.3801
     35 O          22.7263   74.2560    2.3348 O.3     1  UNL1       -0.3794
     36 O          22.1312   73.1009   -0.1995 O.3     1  UNL1       -0.3263
     37 H          25.8090   74.7473    2.2906 H       1  UNL1        0.2105
     38 H          22.0892   73.8184    2.9167 H       1  UNL1        0.2105
     39 C          24.3276   76.7578   -1.7376 C.2     1  UNL1        0.2231
     40 C          25.2651   77.4844   -2.6658 C.3     1  UNL1        0.0946
     41 N          24.6890   75.5740   -1.2044 N.am    1  UNL1       -0.2994
     42 O          23.2461   77.2380   -1.4693 O.2     1  UNL1       -0.2751
     43 H          25.5531   75.1892   -1.4194 H       1  UNL1        0.1496
     44 C          21.8335   71.6205    1.6875 C.3     1  UNL1        0.1693
     45 O          21.6712   70.2927    1.1847 O.3     1  UNL1       -0.3794
     46 H          21.0491   69.7530    1.6913 H       1  UNL1        0.2105
@<TRIPOS>BOND
     1    29    30    1
     2    30    41    1
     3    30    31    1
     4    31    34    1
     5    31    32    1
     6    32    35    1
     7    32    33    1
     8    33    36    1
     9    33    44    1
    10    39    40    1
    11    39    42    2
    12    39    41   am
    13    41    43    1
    14    29    28    1
    15    34    37    1
    16    35    38    1
    17    29    36    1
    18    44    45    1
    19    45    46    1
    20    15     6    1
    21    15    16   ar
    22    16    21    2
    23    16    17   ar
    24    17    23    1
    25    17    18   ar
    26    18    19   ar
    27    19    20   ar
    28    15    20   ar
    29    18    22    2
    30     6     7    1
    31     6    11    1
    32     7     9    1
    33     7     8    1
    34     8    13    1
    35     9    10    1
    36     9    12    1
    37    10     5    1
    38    10    11    1
    39    12    14    1
    40     5     4    1
    41     4     1    1
    42     1     2    1
    43     1    24    1
    44     1     3    2
    45    24    25    1
    46    28    25    1
    47    25    26    1
    48    25    27    2
@<TRIPOS>MOLECULE
UD2
 46 48 0 0 0
SMALL
GASTEIGER

@<TRIPOS>ATOM
      1 P          22.4886   73.1749   -4.5126 P.3     1  UNL1        0.2189
      2 O          23.5714   74.2807   -4.0696 O.3     1  UNL1       -0.4371
      3 O          23.0763   72.2944   -5.5462 O.2     1  UNL1       -0.5170
      4 O          22.0678   72.2930   -3.2324 O.3     1  UNL1       -0.3112
      5 C          22.0073   72.8255   -1.9079 C.3     1  UNL1        0.1811
      6 C          23.8472   71.7015    0.9711 C.3     1  UNL1        0.2383
      7 C          22.4275   72.0091    1.5116 C.3     1  UNL1        0.1895
      8 O          22.1045   71.1560    2.6113 O.3     1  UNL1       -0.3779
      9 C          21.5368   71.6912    0.2856 C.3     1  UNL1        0.1713
     10 C          22.5020   71.7731   -0.9124 C.3     1  UNL1        0.1764
     11 O          23.7892   72.1522   -0.3997 O.3     1  UNL1       -0.3308
     12 O          20.9864   70.3775    0.3961 O.3     1  UNL1       -0.3794
     13 H          21.2262   71.3105    2.9846 H       1  UNL1        0.2106
     14 H          20.4170   70.2525    1.1672 H       1  UNL1        0.2105
     15 N          24.8578   72.4526    1.7192 N.ar    1  UNL1       -0.2551
     16 C          25.7824   71.7917    2.4383 C.ar    1  UNL1        0.3323
     17 N          26.7229   72.4562    3.1355 N.ar    1  UNL1       -0.2743
     18 C          26.7525   73.8043    3.1212 C.ar    1  UNL1        0.2626
     19 C          25.7859   74.5128    2.3676 C.ar    1  UNL1        0.0795
     20 C          24.8572   73.8208    1.6747 C.ar    1  UNL1        0.0869
     21 O          25.7679   70.5760    2.4602 O.2     1  UNL1       -0.2464
     22 O          27.6034   74.4069    3.7515 O.2     1  UNL1       -0.2670
     23 H          27.3814   71.9641    3.6497 H       1  UNL1        0.1734
     24 O          21.1854   73.9085   -5.1098 O.3     1  UNL1       -0.2703
     25 P          20.1434   73.5544   -6.2853 P.3     1  UNL1        0.2208
     26 O          19.3978   74.8992   -6.7640 O.3     1  UNL1       -0.4371
     27 O          20.8716   72.9613   -7.4283 O.2     1  UNL1       -0.5170
     28 O          19.0544   72.5022   -5.7380 O.3     1  UNL1       -0.2865
     29 C          19.2957   71.0955   -5.6718 C.3     1  UNL1        0.2611
     30 C          18.2744   70.3600   -6.5427 C.3     1  UNL1        0.1582
     31 C          16.8680   70.6170   -5.9926 C.3     1  UNL1        0.1625
     32 C          16.8138   70.1681   -4.5298 C.3     1  UNL1        0.1686
     33 C          17.8918   70.9113   -3.7363 C.3     1  UNL1        0.1760
     34 O          15.9141   69.8747   -6.7557 O.3     1  UNL1       -0.3801
     35 O          17.0484   68.7608   -4.4530 O.3     1  UNL1       -0.3794
     36 O          19.1714   70.6545   -4.3182 O.3     1  UNL1       -0.3263
     37 H          15.0001   69.9910   -6.4623 H       1  UNL1        0.2105
     38 H          17.0291   68.4067   -3.5529 H       1  UNL1        0.2105
     39 C          19.1337   70.2145   -8.8183 C.2     1  UNL1        0.2231
     40 C          19.2215   70.7214  -10.2339 C.3     1  UNL1        0.0946
     41 N          18.3594   70.8539   -7.9195 N.am    1  UNL1       -0.2994
     42 O          19.7603   69.2299   -8.4864 O.2     1  UNL1       -0.2751
     43 H          17.8590   71.6416   -8.1842 H       1  UNL1        0.1496
     44 C          17.8837   70.4245   -2.2859 C.3     1  UNL1        0.1693
     45 O          19.2162   70.0997   -1.8843 O.3     1  UNL1       -0.3794
     46 H          19.2869   69.7831   -0.9734 H       1  UNL1        0.2105
@<TRIPOS>BOND
     1    29    30    1
     2    30    41    1
     3    30    31    1
     4    31    34    1
     5    31    32    1
     6    32    35    1
     7    32    33    1
     8    33    36    1
     9    33    44    1
    10    39    40    1
    11    39    42    2
    12    39    41   am
    13    41    43    1
    14    29    28    1
    15    34    37    1
    16    35    38    1
    17    29    36    1
    18    44    45    1
    19    45    46    1
    20    15     6    1
    21    15    16   ar
    22    16    21    2
    23    16    17   ar
    24    17    23    1
    25    17    18   ar
    26    18    19   ar
    27    19    20   ar
    28    15    20   ar
    29    18    22    2
    30     6     7    1
    31     6    11    1
    32     7     9    1
    33     7     8    1
    34     8    13    1
    35     9    10    1
    36     9    12    1
    37    10     5    1
    38    10    11    1
    39    12    14    1
    40     5     4    1
    41     4     1    1
    42     1     2    1
    43     1    24    1
    44     1     3    2
    45    24    25    1
    46    28    25    1
    47    25    26    1
    48    25    27    2
@<TRIPOS>MOLECULE
UD2
 46 48 0 0 0
SMALL
GASTEIGER

@<TRIPOS>ATOM
      1 P          21.9987   72.7577   -6.2229 P.3     1  UNL1        0.2189
      2 O          23.0217   72.9787   -7.4460 O.3     1  UNL1       -0.4371
      3 O          21.3482   74.0428   -5.8847 O.2     1  UNL1       -0.5170
      4 O          20.8766   71.6840   -6.6493 O.3     1  UNL1       -0.3112
      5 C          20.5979   71.3501   -8.0103 C.3     1  UNL1        0.1811
      6 C          17.4104   70.1186   -6.8881 C.3     1  UNL1        0.2383
      7 C          17.0619   71.1767   -7.9656 C.3     1  UNL1        0.1895
      8 O          15.8479   70.8383   -8.6390 O.3     1  UNL1       -0.3779
      9 C          18.2728   71.0746   -8.9252 C.3     1  UNL1        0.1713
     10 C          19.3781   70.4273   -8.0692 C.3     1  UNL1        0.1764
     11 O          18.8427   70.2401   -6.7495 O.3     1  UNL1       -0.3308
     12 O          17.9546   70.2442  -10.0433 O.3     1  UNL1       -0.3794
     13 H          15.5874   71.4707   -9.3222 H       1  UNL1        0.2106
     14 H          17.2247   70.5744  -10.5843 H       1  UNL1        0.2105
     15 N          16.7410   70.4306   -5.6233 N.ar    1  UNL1       -0.2551
     16 C          16.4203   69.4365   -4.7761 C.ar    1  UNL1        0.3323
     17 N          15.8045   69.6941   -3.6071 N.ar    1  UNL1       -0.2743
     18 C          15.4999   70.9627   -3.2655 C.ar    1  UNL1        0.2626
     19 C          15.8326   72.0190   -4.1474 C.ar    1  UNL1        0.0795
     20 C          16.4535   71.7320   -5.3109 C.ar    1  UNL1        0.0869
     21 O          16.6891   68.2879   -5.0710 O.2     1  UNL1       -0.2464
     22 O          14.9430   71.1972   -2.2075 O.2     1  UNL1       -0.2670
     23 H          15.5793   68.9655   -3.0084 H       1  UNL1        0.1734
     24 O          22.8048   72.2100   -4.9409 O.3     1  UNL1       -0.2703
     25 P          23.5163   72.9179   -3.6817 P.3     1  UNL1        0.2208
     26 O          23.8288   71.8136   -2.5518 O.3     1  UNL1       -0.4371
     27 O          24.7817   73.5470   -4.1192 O.2     1  UNL1       -0.5170
     28 O          22.5379   74.0442   -3.0759 O.3     1  UNL1       -0.2865
     29 C          21.6903   73.8145   -1.9488 C.3     1  UNL1        0.2611
     30 C          22.4610   73.0361   -0.8798 C.3     1  UNL1        0.1582
     31 C          22.8630   71.6705   -1.4453 C.3     1  UNL1        0.1625
     32 C          21.6046   70.9309   -1.9077 C.3     1  UNL1        0.1686
     33 C          20.8668   71.7907   -2.9375 C.3     1  UNL1        0.1760
     34 O          23.5191   70.9079   -0.4298 O.3     1  UNL1       -0.3801
     35 O          20.7523   70.6911   -0.7864 O.3     1  UNL1       -0.3794
     36 O          20.5492   73.0577   -2.3579 O.3     1  UNL1       -0.3263
     37 H          23.8026   70.0298   -0.7193 H       1  UNL1        0.2105
     38 H          19.9333   70.2254   -1.0065 H       1  UNL1        0.2105
     39 C          23.8273   74.1989    0.7691 C.2     1  UNL1        0.2231
     40 C          25.0634   74.9666    1.1581 C.3     1  UNL1        0.0946
     41 N          23.6635   73.7830   -0.5022 N.am    1  UNL1       -0.2994
     42 O          22.9781   73.9545    1.6006 O.2     1  UNL1       -0.2751
     43 H          24.3417   73.9791   -1.1675 H       1  UNL1        0.1496
     44 C          19.5769   71.0852   -3.3603 C.3     1  UNL1        0.1693
     45 O          19.8887   70.0210   -4.2618 O.3     1  UNL1       -0.3794
     46 H          19.1165   69.5285   -4.5719 H       1  UNL1        0.2105
@<TRIPOS>BOND
     1    29    30    1
     2    30    41    1
     3    30    31    1
     4    31    34    1
     5    31    32    1
     6    32    35    1
     7    32    33    1
     8    33    36    1
     9    33    44    1
    10    39    40    1
    11    39    42    2
    12    39    41   am
    13    41    43    1
    14    29    28    1
    15    34    37    1
    16    35    38    1
    17    29    36    1
    18    44    45    1
    19    45    46    1
    20    15     6    1
    21    15    16   ar
    22    16    21    2
    23    16    17   ar
    24    17    23    1
    25    17    18   ar
    26    18    19   ar
    27    19    20   ar
    28    15    20   ar
    29    18    22    2
    30     6     7    1
    31     6    11    1
    32     7     9    1
    33     7     8    1
    34     8    13    1
    35     9    10    1
    36     9    12    1
    37    10     5    1
    38    10    11    1
    39    12    14    1
    40     5     4    1
    41     4     1    1
    42     1     2    1
    43     1    24    1
    44     1     3    2
    45    24    25    1
    46    28    25    1
    47    25    26    1
    48    25    27    2
@<TRIPOS>MOLECULE
UD2
 46 48 0 0 0
SMALL
GASTEIGER

@<TRIPOS>ATOM
      1 P          20.2172   71.1645   -2.0710 P.3     1  UNL1        0.2189
      2 O          21.2868   70.3898   -2.9915 O.3     1  UNL1       -0.4371
      3 O          20.3526   72.6232   -2.2775 O.2     1  UNL1       -0.5170
      4 O          18.7281   70.7013   -2.4734 O.3     1  UNL1       -0.3112
      5 C          17.6263   71.6077   -2.5498 C.3     1  UNL1        0.1811
      6 C          16.6369   70.4719   -5.8159 C.3     1  UNL1        0.2383
      7 C          16.9704   69.1744   -5.0366 C.3     1  UNL1        0.1895
      8 O          16.1698   68.0836   -5.4957 O.3     1  UNL1       -0.3779
      9 C          16.5961   69.5616   -3.5849 C.3     1  UNL1        0.1713
     10 C          16.6213   71.1021   -3.5876 C.3     1  UNL1        0.1764
     11 O          17.0230   71.5210   -4.9016 O.3     1  UNL1       -0.3308
     12 O          15.2895   69.0829   -3.2620 O.3     1  UNL1       -0.3794
     13 H          16.3422   67.2492   -5.0388 H       1  UNL1        0.2106
     14 H          15.2009   68.1211   -3.3026 H       1  UNL1        0.2105
     15 N          17.4213   70.5483   -7.0503 N.ar    1  UNL1       -0.2551
     16 C          16.7919   70.6039   -8.2376 C.ar    1  UNL1        0.3323
     17 N          17.4875   70.6743   -9.3879 N.ar    1  UNL1       -0.2743
     18 C          18.8358   70.6922   -9.3658 C.ar    1  UNL1        0.2626
     19 C          19.5114   70.6353   -8.1230 C.ar    1  UNL1        0.0795
     20 C          18.7886   70.5694   -6.9851 C.ar    1  UNL1        0.0869
     21 O          15.5766   70.5888   -8.2726 O.2     1  UNL1       -0.2464
     22 O          19.4665   70.7564  -10.4062 O.2     1  UNL1       -0.2670
     23 H          17.0179   70.7125  -10.2353 H       1  UNL1        0.1734
     24 O          20.4875   70.8138   -0.5227 O.3     1  UNL1       -0.2703
     25 P          21.4706   71.4118    0.6037 P.3     1  UNL1        0.2208
     26 O          20.6143   71.8008    1.9110 O.3     1  UNL1       -0.4371
     27 O          22.4848   70.3966    0.9631 O.2     1  UNL1       -0.5170
     28 O          22.2050   72.7258    0.0322 O.3     1  UNL1       -0.2865
     29 C          23.6039   72.7731   -0.2546 C.3     1  UNL1        0.2611
     30 C          24.2004   74.0600    0.3204 C.3     1  UNL1        0.1582
     31 C          23.5449   75.2653   -0.3608 C.3     1  UNL1        0.1625
     32 C          23.7496   75.1563   -1.8743 C.3     1  UNL1        0.1686
     33 C          23.1703   73.8268   -2.3649 C.3     1  UNL1        0.1760
     34 O          24.1480   76.4699    0.1172 O.3     1  UNL1       -0.3801
     35 O          25.1459   75.2085   -2.1724 O.3     1  UNL1       -0.3794
     36 O          23.8006   72.7490   -1.6699 O.3     1  UNL1       -0.3263
     37 H          23.7800   77.2749   -0.2724 H       1  UNL1        0.2105
     38 H          25.3500   75.1440   -3.1159 H       1  UNL1        0.2105
     39 C          24.9784   74.0858    2.6295 C.2     1  UNL1        0.2231
     40 C          24.7188   74.1426    4.1121 C.3     1  UNL1        0.0946
     41 N          23.9471   74.1150    1.7624 N.am    1  UNL1       -0.2994
     42 O          26.1164   74.0136    2.2151 O.2     1  UNL1       -0.2751
     43 H          23.0370   74.1717    2.0934 H       1  UNL1        0.1496
     44 C          23.4239   73.6834   -3.8667 C.3     1  UNL1        0.1693
     45 O          24.4757   72.7409   -4.0850 O.3     1  UNL1       -0.3794
     46 H          24.6908   72.5996   -5.0171 H       1  UNL1        0.2105
@<TRIPOS>BOND
     1    29    30    1
     2    30    41    1
     3    30    31    1
     4    31    34    1
     5    31    32    1
     6    32    35    1
     7    32    33    1
     8    33    36    1
     9    33    44    1
    10    39    40    1
    11    39    42    2
    12    39    41   am
    13    41    43    1
    14    29    28    1
    15    34    37    1
    16    35    38    1
    17    29    36    1
    18    44    45    1
    19    45    46    1
    20    15     6    1
    21    15    16   ar
    22    16    21    2
    23    16    17   ar
    24    17    23    1
    25    17    18   ar
    26    18    19   ar
    27    19    20   ar
    28    15    20   ar
    29    18    22    2
    30     6     7    1
    31     6    11    1
    32     7     9    1
    33     7     8    1
    34     8    13    1
    35     9    10    1
    36     9    12    1
    37    10     5    1
    38    10    11    1
    39    12    14    1
    40     5     4    1
    41     4     1    1
    42     1     2    1
    43     1    24    1
    44     1     3    2
    45    24    25    1
    46    28    25    1
    47    25    26    1
    48    25    27    2
@<TRIPOS>MOLECULE
UD2
 46 48 0 0 0
SMALL
GASTEIGER

@<TRIPOS>ATOM
      1 P          20.8839   71.2093   -3.0207 P.3     1  UNL1        0.2189
      2 O          21.0094   70.0882   -4.1691 O.3     1  UNL1       -0.4371
      3 O          21.7557   72.3573   -3.3537 O.2     1  UNL1       -0.5170
      4 O          19.3554   71.7070   -2.9216 O.3     1  UNL1       -0.3112
      5 C          18.3080   70.8979   -2.3832 C.3     1  UNL1        0.1811
      6 C          16.8564   70.5667   -5.6573 C.3     1  UNL1        0.2383
      7 C          16.8522   69.1276   -5.0817 C.3     1  UNL1        0.1895
      8 O          15.7512   68.3758   -5.5959 O.3     1  UNL1       -0.3779
      9 C          16.6847   69.3848   -3.5640 C.3     1  UNL1        0.1713
     10 C          17.1445   70.8432   -3.3763 C.3     1  UNL1        0.1764
     11 O          17.5742   71.3249   -4.6595 O.3     1  UNL1       -0.3308
     12 O          15.3162   69.2382   -3.1813 O.3     1  UNL1       -0.3794
     13 H          15.7057   67.4684   -5.2655 H       1  UNL1        0.2106
     14 H          14.9570   68.3537   -3.3335 H       1  UNL1        0.2105
     15 N          17.5600   70.6066   -6.9411 N.ar    1  UNL1       -0.2551
     16 C          16.8611   70.5211   -8.0870 C.ar    1  UNL1        0.3323
     17 N          17.4816   70.5550   -9.2812 N.ar    1  UNL1       -0.2743
     18 C          18.8230   70.6779   -9.3458 C.ar    1  UNL1        0.2626
     19 C          19.5711   70.7700   -8.1475 C.ar    1  UNL1        0.0795
     20 C          18.9225   70.7376   -6.9643 C.ar    1  UNL1        0.0869
     21 O          15.6510   70.4101   -8.0439 O.2     1  UNL1       -0.2464
     22 O          19.3858   70.7091  -10.4260 O.2     1  UNL1       -0.2670
     23 H          16.9627   70.4909  -10.0977 H       1  UNL1        0.1734
     24 O          21.3364   70.5834   -1.6076 O.3     1  UNL1       -0.2703
     25 P          21.6633   71.2102   -0.1608 P.3     1  UNL1        0.2208
     26 O          21.6341   70.0427    0.9483 O.3     1  UNL1       -0.4371
     27 O          23.0046   71.8337   -0.1846 O.2     1  UNL1       -0.5170
     28 O          20.5594   72.3244    0.2031 O.3     1  UNL1       -0.2865
     29 C          20.7498   73.7187   -0.0439 C.3     1  UNL1        0.2611
     30 C          20.7350   74.4798    1.2840 C.3     1  UNL1        0.1582
     31 C          19.3644   74.3077    1.9459 C.3     1  UNL1        0.1625
     32 C          18.2794   74.7984    0.9835 C.3     1  UNL1        0.1686
     33 C          18.3889   74.0248   -0.3331 C.3     1  UNL1        0.1760
     34 O          19.3167   75.0753    3.1509 O.3     1  UNL1       -0.3801
     35 O          18.4575   76.1939    0.7343 O.3     1  UNL1       -0.3794
     36 O          19.6969   74.2020   -0.8805 O.3     1  UNL1       -0.3263
     37 H          18.4755   75.0122    3.6238 H       1  UNL1        0.2105
     38 H          17.8036   76.5729    0.1303 H       1  UNL1        0.2105
     39 C          21.4856   72.9442    3.0207 C.2     1  UNL1        0.2231
     40 C          22.5547   72.3938    3.9277 C.3     1  UNL1        0.0946
     41 N          21.7754   73.9451    2.1661 N.am    1  UNL1       -0.2994
     42 O          20.3626   72.4866    3.0591 O.2     1  UNL1       -0.2751
     43 H          22.6729   74.3120    2.1357 H       1  UNL1        0.1496
     44 C          17.3463   74.5506   -1.3216 C.3     1  UNL1        0.1693
     45 O          17.8259   74.3793   -2.6569 O.3     1  UNL1       -0.3794
     46 H          17.2148   74.6917   -3.3380 H       1  UNL1        0.2105
@<TRIPOS>BOND
     1    29    30    1
     2    30    41    1
     3    30    31    1
     4    31    34    1
     5    31    32    1
     6    32    35    1
     7    32    33    1
     8    33    36    1
     9    33    44    1
    10    39    40    1
    11    39    42    2
    12    39    41   am
    13    41    43    1
    14    29    28    1
    15    34    37    1
    16    35    38    1
    17    29    36    1
    18    44    45    1
    19    45    46    1
    20    15     6    1
    21    15    16   ar
    22    16    21    2
    23    16    17   ar
    24    17    23    1
    25    17    18   ar
    26    18    19   ar
    27    19    20   ar
    28    15    20   ar
    29    18    22    2
    30     6     7    1
    31     6    11    1
    32     7     9    1
    33     7     8    1
    34     8    13    1
    35     9    10    1
    36     9    12    1
    37    10     5    1
    38    10    11    1
    39    12    14    1
    40     5     4    1
    41     4     1    1
    42     1     2    1
    43     1    24    1
    44     1     3    2
    45    24    25    1
    46    28    25    1
    47    25    26    1
    48    25    27    2
@<TRIPOS>MOLECULE
UD2
 46 48 0 0 0
SMALL
GASTEIGER

@<TRIPOS>ATOM
      1 P          21.9514   72.9954   -6.1497 P.3     1  UNL1        0.2189
      2 O          23.0963   73.1772   -7.2666 O.3     1  UNL1       -0.4371
      3 O          21.5784   74.3193   -5.6046 O.2     1  UNL1       -0.5170
      4 O          20.6574   72.3051   -6.8152 O.3     1  UNL1       -0.3112
      5 C          20.7198   71.5319   -8.0151 C.3     1  UNL1        0.1811
      6 C          17.6158   70.1463   -6.8396 C.3     1  UNL1        0.2383
      7 C          17.1999   71.1579   -7.9377 C.3     1  UNL1        0.1895
      8 O          16.0027   70.7354   -8.5933 O.3     1  UNL1       -0.3779
      9 C          18.4080   71.1033   -8.9046 C.3     1  UNL1        0.1713
     10 C          19.5545   70.5399   -8.0434 C.3     1  UNL1        0.1764
     11 O          19.0398   70.3525   -6.7154 O.3     1  UNL1       -0.3308
     12 O          18.1303   70.2308  -10.0012 O.3     1  UNL1       -0.3794
     13 H          15.7017   71.3361   -9.2884 H       1  UNL1        0.2106
     14 H          17.3790   70.5063  -10.5435 H       1  UNL1        0.2105
     15 N          16.9383   70.4483   -5.5767 N.ar    1  UNL1       -0.2551
     16 C          16.4542   69.4447   -4.8236 C.ar    1  UNL1        0.3323
     17 N          15.8269   69.6931   -3.6586 N.ar    1  UNL1       -0.2743
     18 C          15.6757   70.9614   -3.2262 C.ar    1  UNL1        0.2626
     19 C          16.1814   72.0275   -4.0084 C.ar    1  UNL1        0.0795
     20 C          16.8096   71.7491   -5.1700 C.ar    1  UNL1        0.0869
     21 O          16.5835   68.2961   -5.2010 O.2     1  UNL1       -0.2464
     22 O          15.1085   71.1875   -2.1718 O.2     1  UNL1       -0.2670
     23 H          15.4828   68.9578   -3.1285 H       1  UNL1        0.1734
     24 O          22.5050   72.0615   -4.9603 O.3     1  UNL1       -0.2703
     25 P          23.4702   72.3154   -3.6967 P.3     1  UNL1        0.2208
     26 O          24.1388   70.9219   -3.2441 O.3     1  UNL1       -0.4371
     27 O          24.5334   73.2729   -4.0722 O.2     1  UNL1       -0.5170
     28 O          22.6098   72.9194   -2.4770 O.3     1  UNL1       -0.2865
     29 C          23.0538   74.0195   -1.6808 C.3     1  UNL1        0.2611
     30 C          22.8334   73.7007   -0.2001 C.3     1  UNL1        0.1582
     31 C          21.3345   73.5163    0.0560 C.3     1  UNL1        0.1625
     32 C          20.5932   74.7825   -0.3817 C.3     1  UNL1        0.1686
     33 C          20.9000   75.0596   -1.8559 C.3     1  UNL1        0.1760
     34 O          21.1127   73.2909    1.4500 O.3     1  UNL1       -0.3801
     35 O          21.0261   75.8882    0.4128 O.3     1  UNL1       -0.3794
     36 O          22.3122   75.1900   -2.0305 O.3     1  UNL1       -0.3263
     37 H          20.1831   73.1646    1.6846 H       1  UNL1        0.2105
     38 H          20.5971   76.7260    0.1890 H       1  UNL1        0.2105
     39 C          24.2170   72.3814    1.3108 C.2     1  UNL1        0.2231
     40 C          24.9483   71.1139    1.6675 C.3     1  UNL1        0.0946
     41 N          23.5447   72.4675    0.1460 N.am    1  UNL1       -0.2994
     42 O          24.2330   73.3259    2.0722 O.2     1  UNL1       -0.2751
     43 H          23.5324   71.7129   -0.4635 H       1  UNL1        0.1496
     44 C          20.2108   76.3562   -2.2850 C.3     1  UNL1        0.1693
     45 O          20.2026   77.2766   -1.1917 O.3     1  UNL1       -0.3794
     46 H          19.7800   78.1228   -1.3924 H       1  UNL1        0.2105
@<TRIPOS>BOND
     1    29    30    1
     2    30    41    1
     3    30    31    1
     4    31    34    1
     5    31    32    1
     6    32    35    1
     7    32    33    1
     8    33    36    1
     9    33    44    1
    10    39    40    1
    11    39    42    2
    12    39    41   am
    13    41    43    1
    14    29    28    1
    15    34    37    1
    16    35    38    1
    17    29    36    1
    18    44    45    1
    19    45    46    1
    20    15     6    1
    21    15    16   ar
    22    16    21    2
    23    16    17   ar
    24    17    23    1
    25    17    18   ar
    26    18    19   ar
    27    19    20   ar
    28    15    20   ar
    29    18    22    2
    30     6     7    1
    31     6    11    1
    32     7     9    1
    33     7     8    1
    34     8    13    1
    35     9    10    1
    36     9    12    1
    37    10     5    1
    38    10    11    1
    39    12    14    1
    40     5     4    1
    41     4     1    1
    42     1     2    1
    43     1    24    1
    44     1     3    2
    45    24    25    1
    46    28    25    1
    47    25    26    1
    48    25    27    2
@<TRIPOS>MOLECULE
UD2
 46 48 0 0 0
SMALL
GASTEIGER

@<TRIPOS>ATOM
      1 P          23.2124   71.9171   -3.4113 P.3     1  UNL1        0.2189
      2 O          23.5917   72.6238   -4.8070 O.3     1  UNL1       -0.4371
      3 O          24.2279   70.8921   -3.0846 O.2     1  UNL1       -0.5170
      4 O          23.1723   73.0246   -2.2427 O.3     1  UNL1       -0.3112
      5 C          21.9795   73.3621   -1.5323 C.3     1  UNL1        0.1811
      6 C          23.2397   72.0717    1.5795 C.3     1  UNL1        0.2383
      7 C          22.4531   73.3467    1.9764 C.3     1  UNL1        0.1895
      8 O          21.8910   73.2132    3.2833 O.3     1  UNL1       -0.3779
      9 C          21.3418   73.3919    0.8991 C.3     1  UNL1        0.1713
     10 C          21.8967   72.5294   -0.2506 C.3     1  UNL1        0.1764
     11 O          23.2103   72.0952    0.1358 O.3     1  UNL1       -0.3308
     12 O          20.1310   72.8294    1.4075 O.3     1  UNL1       -0.3794
     13 H          21.3896   73.9858    3.5769 H       1  UNL1        0.2106
     14 H          19.7685   73.2988    2.1708 H       1  UNL1        0.2105
     15 N          24.6182   72.1428    2.0690 N.ar    1  UNL1       -0.2551
     16 C          25.3409   71.0151    2.1913 C.ar    1  UNL1        0.3323
     17 N          26.6100   71.0508    2.6388 N.ar    1  UNL1       -0.2743
     18 C          27.1796   72.2270    2.9716 C.ar    1  UNL1        0.2626
     19 C          26.4307   73.4219    2.8468 C.ar    1  UNL1        0.0795
     20 C          25.1619   73.3570    2.3915 C.ar    1  UNL1        0.0869
     21 O          24.8403   69.9475    1.8948 O.2     1  UNL1       -0.2464
     22 O          28.3283   72.2607    3.3764 O.2     1  UNL1       -0.2670
     23 H          27.1166   70.2282    2.7222 H       1  UNL1        0.1734
     24 O          21.7666   71.2194   -3.5381 O.3     1  UNL1       -0.2703
     25 P          20.5162   71.4113   -4.5345 P.3     1  UNL1        0.2208
     26 O          19.4266   70.2587   -4.2557 O.3     1  UNL1       -0.4371
     27 O          19.9010   72.7369   -4.3048 O.2     1  UNL1       -0.5170
     28 O          21.0249   71.3122   -6.0590 O.3     1  UNL1       -0.2865
     29 C          20.6863   72.2769   -7.0569 C.3     1  UNL1        0.2611
     30 C          19.8232   73.3763   -6.4332 C.3     1  UNL1        0.1582
     31 C          18.5180   72.7596   -5.9206 C.3     1  UNL1        0.1625
     32 C          17.8099   72.0533   -7.0800 C.3     1  UNL1        0.1686
     33 C          18.7509   71.0047   -7.6789 C.3     1  UNL1        0.1760
     34 O          17.6743   73.7907   -5.4026 O.3     1  UNL1       -0.3801
     35 O          17.4616   73.0109   -8.0815 O.3     1  UNL1       -0.3794
     36 O          19.9574   71.6391   -8.1077 O.3     1  UNL1       -0.3263
     37 H          16.8287   73.4709   -5.0592 H       1  UNL1        0.2105
     38 H          17.0090   72.6323   -8.8482 H       1  UNL1        0.2105
     39 C          21.2051   75.1525   -5.4986 C.2     1  UNL1        0.2231
     40 C          21.9479   75.7855   -4.3514 C.3     1  UNL1        0.0946
     41 N          20.5457   73.9914   -5.3168 N.am    1  UNL1       -0.2994
     42 O          21.2002   75.6878   -6.5875 O.2     1  UNL1       -0.2751
     43 H          20.5502   73.5625   -4.4467 H       1  UNL1        0.1496
     44 C          18.0727   70.3357   -8.8760 C.3     1  UNL1        0.1693
     45 O          18.3172   71.1060  -10.0546 O.3     1  UNL1       -0.3794
     46 H          17.9157   70.7401  -10.8546 H       1  UNL1        0.2105
@<TRIPOS>BOND
     1    29    30    1
     2    30    41    1
     3    30    31    1
     4    31    34    1
     5    31    32    1
     6    32    35    1
     7    32    33    1
     8    33    36    1
     9    33    44    1
    10    39    40    1
    11    39    42    2
    12    39    41   am
    13    41    43    1
    14    29    28    1
    15    34    37    1
    16    35    38    1
    17    29    36    1
    18    44    45    1
    19    45    46    1
    20    15     6    1
    21    15    16   ar
    22    16    21    2
    23    16    17   ar
    24    17    23    1
    25    17    18   ar
    26    18    19   ar
    27    19    20   ar
    28    15    20   ar
    29    18    22    2
    30     6     7    1
    31     6    11    1
    32     7     9    1
    33     7     8    1
    34     8    13    1
    35     9    10    1
    36     9    12    1
    37    10     5    1
    38    10    11    1
    39    12    14    1
    40     5     4    1
    41     4     1    1
    42     1     2    1
    43     1    24    1
    44     1     3    2
    45    24    25    1
    46    28    25    1
    47    25    26    1
    48    25    27    2
@<TRIPOS>MOLECULE
UD2
 46 48 0 0 0
SMALL
GASTEIGER

@<TRIPOS>ATOM
      1 P          20.4234   71.2051   -2.3038 P.3     1  UNL1        0.2189
      2 O          19.9329   70.4310   -0.9803 O.3     1  UNL1       -0.4371
      3 O          21.3115   70.3224   -3.0918 O.2     1  UNL1       -0.5170
      4 O          19.1435   71.6109   -3.1932 O.3     1  UNL1       -0.3112
      5 C          17.8335   71.7661   -2.6445 C.3     1  UNL1        0.1811
      6 C          16.7449   70.4903   -5.8263 C.3     1  UNL1        0.2383
      7 C          17.1361   69.2296   -5.0141 C.3     1  UNL1        0.1895
      8 O          16.3424   68.1064   -5.4019 O.3     1  UNL1       -0.3779
      9 C          16.8092   69.6625   -3.5639 C.3     1  UNL1        0.1713
     10 C          16.8008   71.2020   -3.6234 C.3     1  UNL1        0.1764
     11 O          17.1428   71.5801   -4.9664 O.3     1  UNL1       -0.3308
     12 O          15.5266   69.1696   -3.1732 O.3     1  UNL1       -0.3794
     13 H          16.5502   67.2932   -4.9222 H       1  UNL1        0.2106
     14 H          15.4575   68.2054   -3.1755 H       1  UNL1        0.2105
     15 N          17.4797   70.5368   -7.0924 N.ar    1  UNL1       -0.2551
     16 C          16.8036   70.5655   -8.2546 C.ar    1  UNL1        0.3323
     17 N          17.4531   70.6082   -9.4330 N.ar    1  UNL1       -0.2743
     18 C          18.8012   70.6248   -9.4648 C.ar    1  UNL1        0.2626
     19 C          19.5255   70.5961   -8.2489 C.ar    1  UNL1        0.0795
     20 C          18.8485   70.5577   -7.0820 C.ar    1  UNL1        0.0869
     21 O          15.5879   70.5511   -8.2411 O.2     1  UNL1       -0.2464
     22 O          19.3902   70.6639  -10.5307 O.2     1  UNL1       -0.2670
     23 H          16.9502   70.6272  -10.2618 H       1  UNL1        0.1734
     24 O          21.2260   72.5356   -1.8813 O.3     1  UNL1       -0.2703
     25 P          22.7878   72.9160   -1.7853 P.3     1  UNL1        0.2208
     26 O          23.1205   73.4455   -0.3011 O.3     1  UNL1       -0.4371
     27 O          23.6062   71.7185   -2.0761 O.2     1  UNL1       -0.5170
     28 O          23.1257   74.0704   -2.8557 O.3     1  UNL1       -0.2865
     29 C          24.1525   73.9421   -3.8409 C.3     1  UNL1        0.2611
     30 C          24.5878   75.3326   -4.3096 C.3     1  UNL1        0.1582
     31 C          23.3969   76.0361   -4.9679 C.3     1  UNL1        0.1625
     32 C          22.8797   75.1706   -6.1202 C.3     1  UNL1        0.1686
     33 C          22.5101   73.7860   -5.5815 C.3     1  UNL1        0.1760
     34 O          23.8133   77.3063   -5.4742 O.3     1  UNL1       -0.3801
     35 O          23.8978   75.0408   -7.1142 O.3     1  UNL1       -0.3794
     36 O          23.6529   73.1997   -4.9551 O.3     1  UNL1       -0.3263
     37 H          23.1076   77.8082   -5.9046 H       1  UNL1        0.2105
     38 H          23.6387   74.5029   -7.8755 H       1  UNL1        0.2105
     39 C          24.1775   76.9047   -2.4936 C.2     1  UNL1        0.2231
     40 C          24.6460   77.7103   -1.3104 C.3     1  UNL1        0.0946
     41 N          25.0444   76.1161   -3.1589 N.am    1  UNL1       -0.2994
     42 O          23.0187   76.9654   -2.8484 O.2     1  UNL1       -0.2751
     43 H          25.9711   76.0681   -2.8762 H       1  UNL1        0.1496
     44 C          22.0487   72.8960   -6.7371 C.3     1  UNL1        0.1693
     45 O          21.2909   73.6743   -7.6656 O.3     1  UNL1       -0.3794
     46 H          20.9652   73.1735   -8.4259 H       1  UNL1        0.2105
@<TRIPOS>BOND
     1    29    30    1
     2    30    41    1
     3    30    31    1
     4    31    34    1
     5    31    32    1
     6    32    35    1
     7    32    33    1
     8    33    36    1
     9    33    44    1
    10    39    40    1
    11    39    42    2
    12    39    41   am
    13    41    43    1
    14    29    28    1
    15    34    37    1
    16    35    38    1
    17    29    36    1
    18    44    45    1
    19    45    46    1
    20    15     6    1
    21    15    16   ar
    22    16    21    2
    23    16    17   ar
    24    17    23    1
    25    17    18   ar
    26    18    19   ar
    27    19    20   ar
    28    15    20   ar
    29    18    22    2
    30     6     7    1
    31     6    11    1
    32     7     9    1
    33     7     8    1
    34     8    13    1
    35     9    10    1
    36     9    12    1
    37    10     5    1
    38    10    11    1
    39    12    14    1
    40     5     4    1
    41     4     1    1
    42     1     2    1
    43     1    24    1
    44     1     3    2
    45    24    25    1
    46    28    25    1
    47    25    26    1
    48    25    27    2
@<TRIPOS>MOLECULE
UD2
 46 48 0 0 0
SMALL
GASTEIGER

@<TRIPOS>ATOM
      1 P          21.7827   73.0263   -6.5079 P.3     1  UNL1        0.2189
      2 O          23.1192   73.4407   -7.3037 O.3     1  UNL1       -0.4371
      3 O          20.7420   74.0563   -6.7200 O.2     1  UNL1       -0.5170
      4 O          21.2521   71.6068   -7.0531 O.3     1  UNL1       -0.3112
      5 C          20.7358   71.4250   -8.3729 C.3     1  UNL1        0.1811
      6 C          17.7232   70.0212   -6.9981 C.3     1  UNL1        0.2383
      7 C          17.2303   71.0495   -8.0478 C.3     1  UNL1        0.1895
      8 O          15.9885   70.6369   -8.6219 O.3     1  UNL1       -0.3779
      9 C          18.3655   71.0098   -9.1000 C.3     1  UNL1        0.1713
     10 C          19.5705   70.4334   -8.3323 C.3     1  UNL1        0.1764
     11 O          19.1526   70.2257   -6.9737 O.3     1  UNL1       -0.3308
     12 O          18.0087   70.1542  -10.1869 O.3     1  UNL1       -0.3794
     13 H          15.6388   71.2482   -9.2842 H       1  UNL1        0.2106
     14 H          17.2205   70.4379  -10.6694 H       1  UNL1        0.2105
     15 N          17.1388   70.3038   -5.6852 N.ar    1  UNL1       -0.2551
     16 C          16.4590   69.3411   -5.0372 C.ar    1  UNL1        0.3323
     17 N          15.9112   69.5730   -3.8296 N.ar    1  UNL1       -0.2743
     18 C          16.0389   70.7826   -3.2473 C.ar    1  UNL1        0.2626
     19 C          16.7528   71.8049   -3.9177 C.ar    1  UNL1        0.0795
     20 C          17.2952   71.5433   -5.1255 C.ar    1  UNL1        0.0869
     21 O          16.3360   68.2456   -5.5502 O.2     1  UNL1       -0.2464
     22 O          15.5439   70.9936   -2.1541 O.2     1  UNL1       -0.2670
     23 H          15.4232   68.8681   -3.3767 H       1  UNL1        0.1734
     24 O          22.1089   72.9083   -4.9353 O.3     1  UNL1       -0.2703
     25 P          23.0108   73.7657   -3.9133 P.3     1  UNL1        0.2208
     26 O          24.5657   73.4196   -4.1504 O.3     1  UNL1       -0.4371
     27 O          22.7860   75.2089   -4.1480 O.2     1  UNL1       -0.5170
     28 O          22.6033   73.3978   -2.3996 O.3     1  UNL1       -0.2865
     29 C          23.4359   72.6216   -1.5361 C.3     1  UNL1        0.2611
     30 C          22.6500   71.4150   -1.0172 C.3     1  UNL1        0.1582
     31 C          21.4577   71.9095   -0.1925 C.3     1  UNL1        0.1625
     32 C          21.9700   72.8003    0.9425 C.3     1  UNL1        0.1686
     33 C          22.7823   73.9538    0.3478 C.3     1  UNL1        0.1760
     34 O          20.7602   70.7894    0.3571 O.3     1  UNL1       -0.3801
     35 O          22.7996   72.0316    1.8156 O.3     1  UNL1       -0.3794
     36 O          23.8568   73.4253   -0.4320 O.3     1  UNL1       -0.3263
     37 H          19.9910   71.0293    0.8919 H       1  UNL1        0.2105
     38 H          23.1607   72.5339    2.5594 H       1  UNL1        0.2105
     39 C          20.9265   70.8272   -2.6364 C.2     1  UNL1        0.2231
     40 C          20.4288   70.0124   -3.8013 C.3     1  UNL1        0.0946
     41 N          22.1665   70.6219   -2.1502 N.am    1  UNL1       -0.2994
     42 O          20.2110   71.6690   -2.1349 O.2     1  UNL1       -0.2751
     43 H          22.7386   69.9483   -2.5502 H       1  UNL1        0.1496
     44 C          23.3479   74.8151    1.4787 C.3     1  UNL1        0.1693
     45 O          22.5397   75.9828    1.6390 O.3     1  UNL1       -0.3794
     46 H          22.8402   76.5765    2.3405 H       1  UNL1        0.2105
@<TRIPOS>BOND
     1    29    30    1
     2    30    41    1
     3    30    31    1
     4    31    34    1
     5    31    32    1
     6    32    35    1
     7    32    33    1
     8    33    36    1
     9    33    44    1
    10    39    40    1
    11    39    42    2
    12    39    41   am
    13    41    43    1
    14    29    28    1
    15    34    37    1
    16    35    38    1
    17    29    36    1
    18    44    45    1
    19    45    46    1
    20    15     6    1
    21    15    16   ar
    22    16    21    2
    23    16    17   ar
    24    17    23    1
    25    17    18   ar
    26    18    19   ar
    27    19    20   ar
    28    15    20   ar
    29    18    22    2
    30     6     7    1
    31     6    11    1
    32     7     9    1
    33     7     8    1
    34     8    13    1
    35     9    10    1
    36     9    12    1
    37    10     5    1
    38    10    11    1
    39    12    14    1
    40     5     4    1
    41     4     1    1
    42     1     2    1
    43     1    24    1
    44     1     3    2
    45    24    25    1
    46    28    25    1
    47    25    26    1
    48    25    27    2
@<TRIPOS>MOLECULE
UD2
 46 48 0 0 0
SMALL
GASTEIGER

@<TRIPOS>ATOM
      1 P          21.0411   71.5800   -3.1255 P.3     1  UNL1        0.2189
      2 O          21.9401   71.6198   -4.4601 O.3     1  UNL1       -0.4371
      3 O          20.3625   72.8827   -2.9480 O.2     1  UNL1       -0.5170
      4 O          19.9382   70.4137   -3.2561 O.3     1  UNL1       -0.3112
      5 C          18.7487   70.3768   -2.4655 C.3     1  UNL1        0.1811
      6 C          17.0624   70.4338   -5.6419 C.3     1  UNL1        0.2383
      7 C          16.9126   68.9726   -5.1474 C.3     1  UNL1        0.1895
      8 O          15.6951   68.3954   -5.6229 O.3     1  UNL1       -0.3779
      9 C          16.8754   69.1517   -3.6099 C.3     1  UNL1        0.1713
     10 C          17.5270   70.5279   -3.3753 C.3     1  UNL1        0.1764
     11 O          17.9320   71.0337   -4.6573 O.3     1  UNL1       -0.3308
     12 O          15.5264   69.1499   -3.1399 O.3     1  UNL1       -0.3794
     13 H          15.5562   67.4813   -5.3405 H       1  UNL1        0.2106
     14 H          15.0493   68.3275   -3.3146 H       1  UNL1        0.2105
     15 N          17.6826   70.4685   -6.9682 N.ar    1  UNL1       -0.2551
     16 C          16.9076   70.4461   -8.0671 C.ar    1  UNL1        0.3323
     17 N          17.4505   70.4768   -9.2986 N.ar    1  UNL1       -0.2743
     18 C          18.7895   70.5327   -9.4488 C.ar    1  UNL1        0.2626
     19 C          19.6173   70.5579   -8.3006 C.ar    1  UNL1        0.0795
     20 C          19.0457   70.5303   -7.0783 C.ar    1  UNL1        0.0869
     21 O          15.6987   70.3959   -7.9468 O.2     1  UNL1       -0.2464
     22 O          19.2822   70.5609  -10.5628 O.2     1  UNL1       -0.2670
     23 H          16.8772   70.4588  -10.0803 H       1  UNL1        0.1734
     24 O          21.9826   71.2871   -1.8523 O.3     1  UNL1       -0.2703
     25 P          22.9396   72.2019   -0.9356 P.3     1  UNL1        0.2208
     26 O          23.9951   71.2645   -0.1603 O.3     1  UNL1       -0.4371
     27 O          23.6696   73.1636   -1.7903 O.2     1  UNL1       -0.5170
     28 O          22.0468   73.0060    0.1364 O.3     1  UNL1       -0.2865
     29 C          20.9436   72.4180    0.8280 C.3     1  UNL1        0.2611
     30 C          19.9158   73.5009    1.1653 C.3     1  UNL1        0.1582
     31 C          20.5582   74.5281    2.1026 C.3     1  UNL1        0.1625
     32 C          21.0758   73.8098    3.3518 C.3     1  UNL1        0.1686
     33 C          22.0592   72.7148    2.9301 C.3     1  UNL1        0.1760
     34 O          19.5841   75.5032    2.4815 O.3     1  UNL1       -0.3801
     35 O          19.9789   73.2228    4.0542 O.3     1  UNL1       -0.3794
     36 O          21.4078   71.8107    2.0354 O.3     1  UNL1       -0.3263
     37 H          19.9230   76.1868    3.0757 H       1  UNL1        0.2105
     38 H          20.2340   72.7492    4.8584 H       1  UNL1        0.2105
     39 C          20.0929   75.2967   -0.4723 C.2     1  UNL1        0.2231
     40 C          19.6488   75.9804   -1.7387 C.3     1  UNL1        0.0946
     41 N          19.4831   74.1655   -0.0666 N.am    1  UNL1       -0.2994
     42 O          21.0003   75.7644    0.1836 O.2     1  UNL1       -0.2751
     43 H          18.7569   73.7918   -0.5902 H       1  UNL1        0.1496
     44 C          22.5355   71.9529    4.1683 C.3     1  UNL1        0.1693
     45 O          22.3218   72.7536    5.3326 O.3     1  UNL1       -0.3794
     46 H          22.6015   72.3326    6.1569 H       1  UNL1        0.2105
@<TRIPOS>BOND
     1    29    30    1
     2    30    41    1
     3    30    31    1
     4    31    34    1
     5    31    32    1
     6    32    35    1
     7    32    33    1
     8    33    36    1
     9    33    44    1
    10    39    40    1
    11    39    42    2
    12    39    41   am
    13    41    43    1
    14    29    28    1
    15    34    37    1
    16    35    38    1
    17    29    36    1
    18    44    45    1
    19    45    46    1
    20    15     6    1
    21    15    16   ar
    22    16    21    2
    23    16    17   ar
    24    17    23    1
    25    17    18   ar
    26    18    19   ar
    27    19    20   ar
    28    15    20   ar
    29    18    22    2
    30     6     7    1
    31     6    11    1
    32     7     9    1
    33     7     8    1
    34     8    13    1
    35     9    10    1
    36     9    12    1
    37    10     5    1
    38    10    11    1
    39    12    14    1
    40     5     4    1
    41     4     1    1
    42     1     2    1
    43     1    24    1
    44     1     3    2
    45    24    25    1
    46    28    25    1
    47    25    26    1
    48    25    27    2
@<TRIPOS>MOLECULE
UD2
 46 48 0 0 0
SMALL
GASTEIGER

@<TRIPOS>ATOM
      1 P          16.2210   69.6570   -2.7615 P.3     1  UNL1        0.2189
      2 O          16.1191   68.8800   -4.1676 O.3     1  UNL1       -0.4371
      3 O          15.5663   70.9786   -2.8789 O.2     1  UNL1       -0.5170
      4 O          15.4866   68.7940   -1.6171 O.3     1  UNL1       -0.3112
      5 C          14.9738   69.3730   -0.4158 C.3     1  UNL1        0.1811
      6 C          12.1152   67.9141    1.2080 C.3     1  UNL1        0.2383
      7 C          12.1611   69.3710    1.7346 C.3     1  UNL1        0.1895
      8 O          10.8466   69.8500    2.0252 O.3     1  UNL1       -0.3779
      9 C          12.7731   70.1321    0.5330 C.3     1  UNL1        0.1713
     10 C          13.4864   69.0368   -0.2825 C.3     1  UNL1        0.1764
     11 O          13.3269   67.8001    0.4306 O.3     1  UNL1       -0.3308
     12 O          11.7443   70.7457   -0.2452 O.3     1  UNL1       -0.3794
     13 H          10.8230   70.7572    2.3584 H       1  UNL1        0.2106
     14 H          11.2239   71.4023    0.2370 H       1  UNL1        0.2105
     15 N          12.1247   66.9627    2.3214 N.ar    1  UNL1       -0.2551
     16 C          13.2967   66.5105    2.8016 C.ar    1  UNL1        0.3323
     17 N          13.3353   65.6356    3.8240 N.ar    1  UNL1       -0.2743
     18 C          12.1904   65.1982    4.3865 C.ar    1  UNL1        0.2626
     19 C          10.9495   65.6667    3.8917 C.ar    1  UNL1        0.0795
     20 C          10.9407   66.5468    2.8686 C.ar    1  UNL1        0.0869
     21 O          14.3369   66.8965    2.3042 O.2     1  UNL1       -0.2464
     22 O          12.2239   64.4066    5.3122 O.2     1  UNL1       -0.2670
     23 H          14.1889   65.3187    4.1573 H       1  UNL1        0.1734
     24 O          17.7701   69.8580   -2.3700 O.3     1  UNL1       -0.2703
     25 P          18.8079   71.0817   -2.5065 P.3     1  UNL1        0.2208
     26 O          18.3064   72.3138   -1.5986 O.3     1  UNL1       -0.4371
     27 O          20.1464   70.6468   -2.0510 O.2     1  UNL1       -0.5170
     28 O          18.8893   71.5470   -4.0458 O.3     1  UNL1       -0.2865
     29 C          19.6619   70.8551   -5.0284 C.3     1  UNL1        0.2611
     30 C          20.4923   71.8620   -5.8280 C.3     1  UNL1        0.1582
     31 C          19.5489   72.8169   -6.5660 C.3     1  UNL1        0.1625
     32 C          18.6093   72.0010   -7.4581 C.3     1  UNL1        0.1686
     33 C          17.8513   70.9884   -6.5954 C.3     1  UNL1        0.1760
     34 O          20.3142   73.7146   -7.3733 O.3     1  UNL1       -0.3801
     35 O          19.3721   71.3092   -8.4485 O.3     1  UNL1       -0.3794
     36 O          18.7872   70.1516   -5.9129 O.3     1  UNL1       -0.3263
     37 H          19.7797   74.3497   -7.8695 H       1  UNL1        0.2105
     38 H          18.8398   70.7700   -9.0501 H       1  UNL1        0.2105
     39 C          22.6426   72.8341   -5.2207 C.2     1  UNL1        0.2231
     40 C          23.5216   73.6196   -4.2832 C.3     1  UNL1        0.0946
     41 N          21.3466   72.6260   -4.9153 N.am    1  UNL1       -0.2994
     42 O          23.1012   72.3882   -6.2518 O.2     1  UNL1       -0.2751
     43 H          20.9799   72.9815   -4.0907 H       1  UNL1        0.1496
     44 C          16.9543   70.1288   -7.4879 C.3     1  UNL1        0.1693
     45 O          16.5820   70.8739   -8.6492 O.3     1  UNL1       -0.3794
     46 H          16.0114   70.3897   -9.2617 H       1  UNL1        0.2105
@<TRIPOS>BOND
     1    29    30    1
     2    30    41    1
     3    30    31    1
     4    31    34    1
     5    31    32    1
     6    32    35    1
     7    32    33    1
     8    33    36    1
     9    33    44    1
    10    39    40    1
    11    39    42    2
    12    39    41   am
    13    41    43    1
    14    29    28    1
    15    34    37    1
    16    35    38    1
    17    29    36    1
    18    44    45    1
    19    45    46    1
    20    15     6    1
    21    15    16   ar
    22    16    21    2
    23    16    17   ar
    24    17    23    1
    25    17    18   ar
    26    18    19   ar
    27    19    20   ar
    28    15    20   ar
    29    18    22    2
    30     6     7    1
    31     6    11    1
    32     7     9    1
    33     7     8    1
    34     8    13    1
    35     9    10    1
    36     9    12    1
    37    10     5    1
    38    10    11    1
    39    12    14    1
    40     5     4    1
    41     4     1    1
    42     1     2    1
    43     1    24    1
    44     1     3    2
    45    24    25    1
    46    28    25    1
    47    25    26    1
    48    25    27    2
@<TRIPOS>MOLECULE
UD2
 46 48 0 0 0
SMALL
GASTEIGER

@<TRIPOS>ATOM
      1 P          22.4819   71.3420   -2.6526 P.3     1  UNL1        0.2189
      2 O          23.9495   71.0904   -3.2643 O.3     1  UNL1       -0.4371
      3 O          21.9949   72.6753   -3.0697 O.2     1  UNL1       -0.5170
      4 O          21.4735   70.2088   -3.1937 O.3     1  UNL1       -0.3112
      5 C          20.5969   70.4142   -4.3031 C.3     1  UNL1        0.1811
      6 C          17.1137   71.2333   -4.6683 C.3     1  UNL1        0.2383
      7 C          17.1705   69.6926   -4.8270 C.3     1  UNL1        0.1895
      8 O          15.9650   69.0866   -4.3566 O.3     1  UNL1       -0.3779
      9 C          18.3681   69.3161   -3.9208 C.3     1  UNL1        0.1713
     10 C          19.1695   70.6257   -3.7925 C.3     1  UNL1        0.1764
     11 O          18.5048   71.6144   -4.5950 O.3     1  UNL1       -0.3308
     12 O          17.9075   68.8835   -2.6395 O.3     1  UNL1       -0.3794
     13 H          15.9520   68.1232   -4.4355 H       1  UNL1        0.2106
     14 H          17.3483   68.0955   -2.6673 H       1  UNL1        0.2105
     15 N          16.4705   71.8483   -5.8315 N.ar    1  UNL1       -0.2551
     16 C          16.5713   71.2606   -7.0370 C.ar    1  UNL1        0.3323
     17 N          15.9905   71.8037   -8.1233 N.ar    1  UNL1       -0.2743
     18 C          15.2925   72.9526   -8.0167 C.ar    1  UNL1        0.2626
     19 C          15.1774   73.5815   -6.7536 C.ar    1  UNL1        0.0795
     20 C          15.7664   73.0126   -5.6808 C.ar    1  UNL1        0.0869
     21 O          17.1974   70.2243   -7.1479 O.2     1  UNL1       -0.2464
     22 O          14.7659   73.4450   -8.9990 O.2     1  UNL1       -0.2670
     23 H          16.0740   71.3676   -8.9852 H       1  UNL1        0.1734
     24 O          22.5513   71.2743   -1.0451 O.3     1  UNL1       -0.2703
     25 P          21.4427   71.1738    0.1184 P.3     1  UNL1        0.2208
     26 O          19.9936   70.9310   -0.5412 O.3     1  UNL1       -0.4371
     27 O          21.7706   70.0450    1.0165 O.2     1  UNL1       -0.5170
     28 O          21.4255   72.5446    0.9630 O.3     1  UNL1       -0.2865
     29 C          20.5206   72.7823    2.0428 C.3     1  UNL1        0.2611
     30 C          19.9381   74.1924    1.9207 C.3     1  UNL1        0.1582
     31 C          21.0728   75.2156    2.0308 C.3     1  UNL1        0.1625
     32 C          21.8091   75.0046    3.3566 C.3     1  UNL1        0.1686
     33 C          22.3197   73.5628    3.4234 C.3     1  UNL1        0.1760
     34 O          20.5292   76.5371    1.9914 O.3     1  UNL1       -0.3801
     35 O          20.9139   75.2456    4.4437 O.3     1  UNL1       -0.3794
     36 O          21.2188   72.6624    3.2840 O.3     1  UNL1       -0.3263
     37 H          21.1933   77.2371    2.0558 H       1  UNL1        0.2105
     38 H          21.3141   75.1293    5.3168 H       1  UNL1        0.2105
     39 C          17.9573   74.6221    0.5680 C.2     1  UNL1        0.2231
     40 C          17.2730   74.7706   -0.7655 C.3     1  UNL1        0.0946
     41 N          19.2732   74.3364    0.6231 N.am    1  UNL1       -0.2994
     42 O          17.3239   74.7597    1.5937 O.2     1  UNL1       -0.2751
     43 H          19.7798   74.2254   -0.1967 H       1  UNL1        0.1496
     44 C          23.0048   73.3265    4.7707 C.3     1  UNL1        0.1693
     45 O          22.0392   72.8807    5.7252 O.3     1  UNL1       -0.3794
     46 H          22.4039   72.7107    6.6045 H       1  UNL1        0.2105
@<TRIPOS>BOND
     1    29    30    1
     2    30    41    1
     3    30    31    1
     4    31    34    1
     5    31    32    1
     6    32    35    1
     7    32    33    1
     8    33    36    1
     9    33    44    1
    10    39    40    1
    11    39    42    2
    12    39    41   am
    13    41    43    1
    14    29    28    1
    15    34    37    1
    16    35    38    1
    17    29    36    1
    18    44    45    1
    19    45    46    1
    20    15     6    1
    21    15    16   ar
    22    16    21    2
    23    16    17   ar
    24    17    23    1
    25    17    18   ar
    26    18    19   ar
    27    19    20   ar
    28    15    20   ar
    29    18    22    2
    30     6     7    1
    31     6    11    1
    32     7     9    1
    33     7     8    1
    34     8    13    1
    35     9    10    1
    36     9    12    1
    37    10     5    1
    38    10    11    1
    39    12    14    1
    40     5     4    1
    41     4     1    1
    42     1     2    1
    43     1    24    1
    44     1     3    2
    45    24    25    1
    46    28    25    1
    47    25    26    1
    48    25    27    2
@<TRIPOS>MOLECULE
UD2
 46 48 0 0 0
SMALL
GASTEIGER

@<TRIPOS>ATOM
      1 P          20.0779   73.1839   -1.0773 P.3     1  UNL1        0.2189
      2 O          20.9407   74.5429   -1.0961 O.3     1  UNL1       -0.4371
      3 O          18.8515   73.3885   -0.2756 O.2     1  UNL1       -0.5170
      4 O          19.6737   72.7843   -2.5842 O.3     1  UNL1       -0.3112
      5 C          18.7260   73.5237   -3.3566 C.3     1  UNL1        0.1811
      6 C          17.4293   71.2260   -5.8012 C.3     1  UNL1        0.2383
      7 C          18.1494   70.3266   -4.7645 C.3     1  UNL1        0.1895
      8 O          17.5178   69.0482   -4.6722 O.3     1  UNL1       -0.3779
      9 C          17.9651   71.1297   -3.4535 C.3     1  UNL1        0.1713
     10 C          17.6777   72.5665   -3.9294 C.3     1  UNL1        0.1764
     11 O          17.7497   72.5646   -5.3640 O.3     1  UNL1       -0.3308
     12 O          16.8594   70.6190   -2.7069 O.3     1  UNL1       -0.3794
     13 H          17.9325   68.4493   -4.0367 H       1  UNL1        0.2106
     14 H          16.9613   69.6979   -2.4321 H       1  UNL1        0.2105
     15 N          17.9532   70.9830   -7.1470 N.ar    1  UNL1       -0.2551
     16 C          17.1191   70.5895   -8.1259 C.ar    1  UNL1        0.3323
     17 N          17.5732   70.3587   -9.3720 N.ar    1  UNL1       -0.2743
     18 C          18.8807   70.5220   -9.6590 C.ar    1  UNL1        0.2626
     19 C          19.7698   70.9369   -8.6384 C.ar    1  UNL1        0.0795
     20 C          19.2864   71.1651   -7.3992 C.ar    1  UNL1        0.0869
     21 O          15.9376   70.4384   -7.8816 O.2     1  UNL1       -0.2464
     22 O          19.2929   70.3140  -10.7865 O.2     1  UNL1       -0.2670
     23 H          16.9584   70.0743  -10.0657 H       1  UNL1        0.1734
     24 O          20.9543   72.0004   -0.4258 O.3     1  UNL1       -0.2703
     25 P          21.4694   71.6823    1.0663 P.3     1  UNL1        0.2208
     26 O          20.3155   72.0610    2.1241 O.3     1  UNL1       -0.4371
     27 O          21.7901   70.2428    1.1814 O.2     1  UNL1       -0.5170
     28 O          22.7882   72.5528    1.3757 O.3     1  UNL1       -0.2865
     29 C          22.7399   73.9222    1.7803 C.3     1  UNL1        0.2611
     30 C          24.1147   74.5639    1.5779 C.3     1  UNL1        0.1582
     31 C          25.1372   73.8515    2.4687 C.3     1  UNL1        0.1625
     32 C          24.6700   73.9271    3.9248 C.3     1  UNL1        0.1686
     33 C          23.2735   73.3097    4.0367 C.3     1  UNL1        0.1760
     34 O          26.4089   74.4915    2.3413 O.3     1  UNL1       -0.3801
     35 O          24.6237   75.2929    4.3414 O.3     1  UNL1       -0.3794
     36 O          22.3785   73.9980    3.1609 O.3     1  UNL1       -0.3263
     37 H          27.1060   74.0909    2.8787 H       1  UNL1        0.2105
     38 H          24.3344   75.4163    5.2563 H       1  UNL1        0.2105
     39 C          24.3859   75.4825   -0.6627 C.2     1  UNL1        0.2231
     40 C          24.7959   75.3498   -2.1059 C.3     1  UNL1        0.0946
     41 N          24.5135   74.4339    0.1741 N.am    1  UNL1       -0.2994
     42 O          23.9404   76.5340   -0.2527 O.2     1  UNL1       -0.2751
     43 H          24.8687   73.5928   -0.1534 H       1  UNL1        0.1496
     44 C          22.7747   73.4350    5.4776 C.3     1  UNL1        0.1693
     45 O          21.3474   73.3658    5.4960 O.3     1  UNL1       -0.3794
     46 H          20.9609   73.4388    6.3794 H       1  UNL1        0.2105
@<TRIPOS>BOND
     1    29    30    1
     2    30    41    1
     3    30    31    1
     4    31    34    1
     5    31    32    1
     6    32    35    1
     7    32    33    1
     8    33    36    1
     9    33    44    1
    10    39    40    1
    11    39    42    2
    12    39    41   am
    13    41    43    1
    14    29    28    1
    15    34    37    1
    16    35    38    1
    17    29    36    1
    18    44    45    1
    19    45    46    1
    20    15     6    1
    21    15    16   ar
    22    16    21    2
    23    16    17   ar
    24    17    23    1
    25    17    18   ar
    26    18    19   ar
    27    19    20   ar
    28    15    20   ar
    29    18    22    2
    30     6     7    1
    31     6    11    1
    32     7     9    1
    33     7     8    1
    34     8    13    1
    35     9    10    1
    36     9    12    1
    37    10     5    1
    38    10    11    1
    39    12    14    1
    40     5     4    1
    41     4     1    1
    42     1     2    1
    43     1    24    1
    44     1     3    2
    45    24    25    1
    46    28    25    1
    47    25    26    1
    48    25    27    2
@<TRIPOS>MOLECULE
UD2
 46 48 0 0 0
SMALL
GASTEIGER

@<TRIPOS>ATOM
      1 P          20.9041   71.2371   -0.6488 P.3     1  UNL1        0.2189
      2 O          21.0879   70.5031    0.7720 O.3     1  UNL1       -0.4371
      3 O          22.0612   70.9286   -1.5176 O.2     1  UNL1       -0.5170
      4 O          19.5516   70.7159   -1.3509 O.3     1  UNL1       -0.3112
      5 C          19.5402   70.0394   -2.6093 C.3     1  UNL1        0.1811
      6 C          17.5192   70.4369   -5.5579 C.3     1  UNL1        0.2383
      7 C          17.2299   68.9915   -5.0791 C.3     1  UNL1        0.1895
      8 O          15.8979   68.5994   -5.4165 O.3     1  UNL1       -0.3779
      9 C          17.3968   69.1174   -3.5450 C.3     1  UNL1        0.1713
     10 C          18.2531   70.3851   -3.3622 C.3     1  UNL1        0.1764
     11 O          18.5713   70.8791   -4.6730 O.3     1  UNL1       -0.3308
     12 O          16.1242   69.2780   -2.9162 O.3     1  UNL1       -0.3794
     13 H          15.6694   67.7021   -5.1383 H       1  UNL1        0.2106
     14 H          15.5222   68.5334   -3.0492 H       1  UNL1        0.2105
     15 N          17.9797   70.4373   -6.9482 N.ar    1  UNL1       -0.2551
     16 C          17.0811   70.3921   -7.9478 C.ar    1  UNL1        0.3323
     17 N          17.4759   70.3911   -9.2348 N.ar    1  UNL1       -0.2743
     18 C          18.7881   70.4377   -9.5422 C.ar    1  UNL1        0.2626
     19 C          19.7449   70.4867   -8.5000 C.ar    1  UNL1        0.0795
     20 C          19.3206   70.4908   -7.2188 C.ar    1  UNL1        0.0869
     21 O          15.8946   70.3499   -7.6854 O.2     1  UNL1       -0.2464
     22 O          19.1468   70.4374  -10.7066 O.2     1  UNL1       -0.2670
     23 H          16.8148   70.3569   -9.9433 H       1  UNL1        0.1734
     24 O          20.8115   72.8289   -0.4229 O.3     1  UNL1       -0.2703
     25 P          21.7816   73.9198    0.2567 P.3     1  UNL1        0.2208
     26 O          23.3167   73.5060   -0.0001 O.3     1  UNL1       -0.4371
     27 O          21.5234   75.2490   -0.3389 O.2     1  UNL1       -0.5170
     28 O          21.4985   73.9768    1.8407 O.3     1  UNL1       -0.2865
     29 C          22.0971   74.9449    2.7042 C.3     1  UNL1        0.2611
     30 C          22.8331   74.2309    3.8405 C.3     1  UNL1        0.1582
     31 C          21.8226   73.4310    4.6684 C.3     1  UNL1        0.1625
     32 C          20.7376   74.3795    5.1854 C.3     1  UNL1        0.1686
     33 C          20.0822   75.0880    3.9969 C.3     1  UNL1        0.1760
     34 O          22.4898   72.8200    5.7752 O.3     1  UNL1       -0.3801
     35 O          21.3253   75.3488    6.0550 O.3     1  UNL1       -0.3794
     36 O          21.0808   75.7874    3.2516 O.3     1  UNL1       -0.3263
     37 H          21.9089   72.2956    6.3433 H       1  UNL1        0.2105
     38 H          20.6942   75.9848    6.4201 H       1  UNL1        0.2105
     39 C          23.5314   72.0239    3.0794 C.2     1  UNL1        0.2231
     40 C          24.5610   71.0885    2.5020 C.3     1  UNL1        0.0946
     41 N          23.8353   73.3215    3.2790 N.am    1  UNL1       -0.2994
     42 O          22.4274   71.6094    3.3652 O.2     1  UNL1       -0.2751
     43 H          24.7181   73.6532    3.0516 H       1  UNL1        0.1496
     44 C          19.0377   76.0818    4.5086 C.3     1  UNL1        0.1693
     45 O          19.6573   77.3489    4.7388 O.3     1  UNL1       -0.3794
     46 H          19.0529   78.0294    5.0653 H       1  UNL1        0.2105
@<TRIPOS>BOND
     1    29    30    1
     2    30    41    1
     3    30    31    1
     4    31    34    1
     5    31    32    1
     6    32    35    1
     7    32    33    1
     8    33    36    1
     9    33    44    1
    10    39    40    1
    11    39    42    2
    12    39    41   am
    13    41    43    1
    14    29    28    1
    15    34    37    1
    16    35    38    1
    17    29    36    1
    18    44    45    1
    19    45    46    1
    20    15     6    1
    21    15    16   ar
    22    16    21    2
    23    16    17   ar
    24    17    23    1
    25    17    18   ar
    26    18    19   ar
    27    19    20   ar
    28    15    20   ar
    29    18    22    2
    30     6     7    1
    31     6    11    1
    32     7     9    1
    33     7     8    1
    34     8    13    1
    35     9    10    1
    36     9    12    1
    37    10     5    1
    38    10    11    1
    39    12    14    1
    40     5     4    1
    41     4     1    1
    42     1     2    1
    43     1    24    1
    44     1     3    2
    45    24    25    1
    46    28    25    1
    47    25    26    1
    48    25    27    2
@<TRIPOS>MOLECULE
UD2
 46 48 0 0 0
SMALL
GASTEIGER

@<TRIPOS>ATOM
      1 P          20.6161   71.2309   -1.2395 P.3     1  UNL1        0.2189
      2 O          21.8528   70.6313   -2.0776 O.3     1  UNL1       -0.4371
      3 O          20.6120   70.6479    0.1202 O.2     1  UNL1       -0.5170
      4 O          20.7634   72.8314   -1.1368 O.3     1  UNL1       -0.3112
      5 C          21.1166   73.5032    0.0738 C.3     1  UNL1        0.1811
      6 C          23.2279   71.9089    2.5103 C.3     1  UNL1        0.2383
      7 C          22.4473   72.9807    3.3128 C.3     1  UNL1        0.1895
      8 O          22.2432   72.5589    4.6627 O.3     1  UNL1       -0.3779
      9 C          21.1039   73.0469    2.5458 C.3     1  UNL1        0.1713
     10 C          21.4347   72.4690    1.1565 C.3     1  UNL1        0.1764
     11 O          22.8382   72.1636    1.1433 O.3     1  UNL1       -0.3308
     12 O          20.1167   72.2468    3.1986 O.3     1  UNL1       -0.3794
     13 H          21.7596   73.1963    5.2054 H       1  UNL1        0.2106
     14 H          19.9125   72.5305    4.0999 H       1  UNL1        0.2105
     15 N          24.6717   72.0892    2.6778 N.ar    1  UNL1       -0.2551
     16 C          25.4976   71.0403    2.5148 C.ar    1  UNL1        0.3323
     17 N          26.8286   71.1770    2.6628 N.ar    1  UNL1       -0.2743
     18 C          27.3568   72.3773    2.9772 C.ar    1  UNL1        0.2626
     19 C          26.4992   73.4902    3.1507 C.ar    1  UNL1        0.0795
     20 C          25.1691   73.3252    2.9921 C.ar    1  UNL1        0.0869
     21 O          25.0352   69.9521    2.2310 O.2     1  UNL1       -0.2464
     22 O          28.5614   72.5024    3.1110 O.2     1  UNL1       -0.2670
     23 H          27.4097   70.4101    2.5429 H       1  UNL1        0.1734
     24 O          19.2357   70.8665   -1.9844 O.3     1  UNL1       -0.2703
     25 P          18.8421   70.5373   -3.5107 P.3     1  UNL1        0.2208
     26 O          18.8074   68.9412   -3.7231 O.3     1  UNL1       -0.4371
     27 O          17.5084   71.1032   -3.8096 O.2     1  UNL1       -0.5170
     28 O          19.9350   71.1870   -4.4987 O.3     1  UNL1       -0.2865
     29 C          19.8643   72.5384   -4.9569 C.3     1  UNL1        0.2611
     30 C          19.8340   72.5584   -6.4871 C.3     1  UNL1        0.1582
     31 C          21.1351   71.9531   -7.0229 C.3     1  UNL1        0.1625
     32 C          22.3218   72.7369   -6.4555 C.3     1  UNL1        0.1686
     33 C          22.2562   72.7099   -4.9261 C.3     1  UNL1        0.1760
     34 O          21.1473   72.0348   -8.4499 O.3     1  UNL1       -0.3801
     35 O          22.2636   74.0892   -6.9127 O.3     1  UNL1       -0.3794
     36 O          21.0091   73.2582   -4.4947 O.3     1  UNL1       -0.3263
     37 H          21.9439   71.6682   -8.8577 H       1  UNL1        0.2105
     38 H          22.9865   74.6455   -6.5905 H       1  UNL1        0.2105
     39 C          17.5105   72.3707   -7.1969 C.2     1  UNL1        0.2231
     40 C          16.3387   71.5617   -7.6877 C.3     1  UNL1        0.0946
     41 N          18.6946   71.7707   -6.9643 N.am    1  UNL1       -0.2994
     42 O          17.3888   73.5635   -7.0105 O.2     1  UNL1       -0.2751
     43 H          18.7920   70.8170   -7.1123 H       1  UNL1        0.1496
     44 C          23.4050   73.5410   -4.3518 C.3     1  UNL1        0.1693
     45 O          24.4954   72.6802   -4.0164 O.3     1  UNL1       -0.3794
     46 H          25.2608   73.1403   -3.6456 H       1  UNL1        0.2105
@<TRIPOS>BOND
     1    29    30    1
     2    30    41    1
     3    30    31    1
     4    31    34    1
     5    31    32    1
     6    32    35    1
     7    32    33    1
     8    33    36    1
     9    33    44    1
    10    39    40    1
    11    39    42    2
    12    39    41   am
    13    41    43    1
    14    29    28    1
    15    34    37    1
    16    35    38    1
    17    29    36    1
    18    44    45    1
    19    45    46    1
    20    15     6    1
    21    15    16   ar
    22    16    21    2
    23    16    17   ar
    24    17    23    1
    25    17    18   ar
    26    18    19   ar
    27    19    20   ar
    28    15    20   ar
    29    18    22    2
    30     6     7    1
    31     6    11    1
    32     7     9    1
    33     7     8    1
    34     8    13    1
    35     9    10    1
    36     9    12    1
    37    10     5    1
    38    10    11    1
    39    12    14    1
    40     5     4    1
    41     4     1    1
    42     1     2    1
    43     1    24    1
    44     1     3    2
    45    24    25    1
    46    28    25    1
    47    25    26    1
    48    25    27    2
@<TRIPOS>MOLECULE
UD2
 46 48 0 0 0
SMALL
GASTEIGER

@<TRIPOS>ATOM
      1 P          22.6180   72.5695   -3.8992 P.3     1  UNL1        0.2189
      2 O          22.2408   74.1174   -3.6690 O.3     1  UNL1       -0.4371
      3 O          23.7022   72.4690   -4.9008 O.2     1  UNL1       -0.5170
      4 O          23.1111   71.9249   -2.5081 O.3     1  UNL1       -0.3112
      5 C          22.7968   72.4912   -1.2345 C.3     1  UNL1        0.1811
      6 C          24.4954   71.5861    1.8039 C.3     1  UNL1        0.2383
      7 C          23.0695   71.9879    2.2594 C.3     1  UNL1        0.1895
      8 O          22.6790   71.2529    3.4208 O.3     1  UNL1       -0.3779
      9 C          22.2112   71.5841    1.0357 C.3     1  UNL1        0.1713
     10 C          23.2195   71.5223   -0.1275 C.3     1  UNL1        0.1764
     11 O          24.5007   71.9072    0.3959 O.3     1  UNL1       -0.3308
     12 O          21.6117   70.3048    1.2471 O.3     1  UNL1       -0.3794
     13 H          21.7942   71.4695    3.7447 H       1  UNL1        0.2106
     14 H          21.0119   70.2710    2.0044 H       1  UNL1        0.2105
     15 N          25.5052   72.3720    2.5164 N.ar    1  UNL1       -0.2551
     16 C          26.7357   71.8627    2.7042 C.ar    1  UNL1        0.3323
     17 N          27.6833   72.5626    3.3556 N.ar    1  UNL1       -0.2743
     18 C          27.4104   73.7947    3.8312 C.ar    1  UNL1        0.2626
     19 C          26.1196   74.3436    3.6398 C.ar    1  UNL1        0.0795
     20 C          25.1903   73.6213    2.9794 C.ar    1  UNL1        0.0869
     21 O          26.9959   70.7531    2.2806 O.2     1  UNL1       -0.2464
     22 O          28.2673   74.4294    4.4207 O.2     1  UNL1       -0.2670
     23 H          28.5650   72.1800    3.4834 H       1  UNL1        0.1734
     24 O          21.3220   71.7740   -4.4289 O.3     1  UNL1       -0.2703
     25 P          19.8557   71.4969   -3.8237 P.3     1  UNL1        0.2208
     26 O          19.9639   70.4268   -2.6250 O.3     1  UNL1       -0.4371
     27 O          19.2885   72.7611   -3.3058 O.2     1  UNL1       -0.5170
     28 O          18.8994   70.9131   -4.9802 O.3     1  UNL1       -0.2865
     29 C          18.0617   71.7407   -5.7891 C.3     1  UNL1        0.2611
     30 C          16.6705   71.1115   -5.8950 C.3     1  UNL1        0.1582
     31 C          16.7867   69.7499   -6.5871 C.3     1  UNL1        0.1625
     32 C          17.4436   69.9400   -7.9570 C.3     1  UNL1        0.1686
     33 C          18.8055   70.6145   -7.7715 C.3     1  UNL1        0.1760
     34 O          15.4834   69.1877   -6.7563 O.3     1  UNL1       -0.3801
     35 O          16.6105   70.7622   -8.7763 O.3     1  UNL1       -0.3794
     36 O          18.6297   71.8609   -7.0950 O.3     1  UNL1       -0.3263
     37 H          15.4818   68.3227   -7.1885 H       1  UNL1        0.2105
     38 H          16.9661   70.9255   -9.6611 H       1  UNL1        0.2105
     39 C          16.2606   69.7566   -3.9116 C.2     1  UNL1        0.2231
     40 C          15.6859   69.5717   -2.5317 C.3     1  UNL1        0.0946
     41 N          16.1110   70.9324   -4.5529 N.am    1  UNL1       -0.2994
     42 O          16.8587   68.8465   -4.4467 O.2     1  UNL1       -0.2751
     43 H          15.6320   71.6599   -4.1258 H       1  UNL1        0.1496
     44 C          19.4423   70.8622   -9.1403 C.3     1  UNL1        0.1693
     45 O          18.4192   71.1349  -10.1002 O.3     1  UNL1       -0.3794
     46 H          18.7512   71.3020  -10.9929 H       1  UNL1        0.2105
@<TRIPOS>BOND
     1    29    30    1
     2    30    41    1
     3    30    31    1
     4    31    34    1
     5    31    32    1
     6    32    35    1
     7    32    33    1
     8    33    36    1
     9    33    44    1
    10    39    40    1
    11    39    42    2
    12    39    41   am
    13    41    43    1
    14    29    28    1
    15    34    37    1
    16    35    38    1
    17    29    36    1
    18    44    45    1
    19    45    46    1
    20    15     6    1
    21    15    16   ar
    22    16    21    2
    23    16    17   ar
    24    17    23    1
    25    17    18   ar
    26    18    19   ar
    27    19    20   ar
    28    15    20   ar
    29    18    22    2
    30     6     7    1
    31     6    11    1
    32     7     9    1
    33     7     8    1
    34     8    13    1
    35     9    10    1
    36     9    12    1
    37    10     5    1
    38    10    11    1
    39    12    14    1
    40     5     4    1
    41     4     1    1
    42     1     2    1
    43     1    24    1
    44     1     3    2
    45    24    25    1
    46    28    25    1
    47    25    26    1
    48    25    27    2
@<TRIPOS>MOLECULE
UD2
 46 48 0 0 0
SMALL
GASTEIGER

@<TRIPOS>ATOM
      1 P          22.9376   71.5681   -2.7743 P.3     1  UNL1        0.2189
      2 O          23.1547   73.1598   -2.6701 O.3     1  UNL1       -0.4371
      3 O          24.1602   70.9374   -3.3187 O.2     1  UNL1       -0.5170
      4 O          22.6324   70.9713   -1.3099 O.3     1  UNL1       -0.3112
      5 C          21.3200   70.9268   -0.7469 C.3     1  UNL1        0.1811
      6 C          23.0112   71.8900    2.2778 C.3     1  UNL1        0.2383
      7 C          22.4838   73.2215    1.6853 C.3     1  UNL1        0.1895
      8 O          22.1839   74.1578    2.7221 O.3     1  UNL1       -0.3779
      9 C          21.1929   72.7667    0.9614 C.3     1  UNL1        0.1713
     10 C          21.3946   71.2545    0.7465 C.3     1  UNL1        0.1764
     11 O          22.6953   70.9196    1.2559 O.3     1  UNL1       -0.3308
     12 O          20.0491   73.0074    1.7828 O.3     1  UNL1       -0.3794
     13 H          21.8511   75.0069    2.4014 H       1  UNL1        0.2106
     14 H          19.9082   73.9390    1.9989 H       1  UNL1        0.2105
     15 N          24.4580   71.9591    2.4945 N.ar    1  UNL1       -0.2551
     16 C          25.2135   70.8628    2.3040 C.ar    1  UNL1        0.3323
     17 N          26.5455   70.8974    2.4959 N.ar    1  UNL1       -0.2743
     18 C          27.1459   72.0411    2.8831 C.ar    1  UNL1        0.2626
     19 C          26.3630   73.2029    3.0863 C.ar    1  UNL1        0.0795
     20 C          25.0303   73.1406    2.8824 C.ar    1  UNL1        0.0869
     21 O          24.6856   69.8247    1.9547 O.2     1  UNL1       -0.2464
     22 O          28.3514   72.0739    3.0568 O.2     1  UNL1       -0.2670
     23 H          27.0752   70.0975    2.3553 H       1  UNL1        0.1734
     24 O          21.6938   71.2584   -3.7491 O.3     1  UNL1       -0.2703
     25 P          21.0962   71.9758   -5.0610 P.3     1  UNL1        0.2208
     26 O          20.8183   73.5299   -4.7427 O.3     1  UNL1       -0.4371
     27 O          22.0691   71.8664   -6.1700 O.2     1  UNL1       -0.5170
     28 O          19.7175   71.2593   -5.4833 O.3     1  UNL1       -0.2865
     29 C          18.6038   71.9719   -6.0248 C.3     1  UNL1        0.2611
     30 C          17.3050   71.2586   -5.6412 C.3     1  UNL1        0.1582
     31 C          17.3026   69.8555   -6.2556 C.3     1  UNL1        0.1625
     32 C          17.4736   69.9738   -7.7726 C.3     1  UNL1        0.1686
     33 C          18.7662   70.7368   -8.0741 C.3     1  UNL1        0.1760
     34 O          16.0615   69.2089   -5.9639 O.3     1  UNL1       -0.3801
     35 O          16.3614   70.6804   -8.3249 O.3     1  UNL1       -0.3794
     36 O          18.7166   72.0206   -7.4486 O.3     1  UNL1       -0.3263
     37 H          15.9909   68.3138   -6.3229 H       1  UNL1        0.2105
     38 H          16.4037   70.7933   -9.2848 H       1  UNL1        0.2105
     39 C          17.6727   70.0519   -3.5564 C.2     1  UNL1        0.2231
     40 C          17.5822   69.9442   -2.0568 C.3     1  UNL1        0.0946
     41 N          17.2164   71.1546   -4.1825 N.am    1  UNL1       -0.2994
     42 O          18.1566   69.1454   -4.2017 O.2     1  UNL1       -0.2751
     43 H          16.8285   71.8791   -3.6670 H       1  UNL1        0.1496
     44 C          18.9141   70.9114   -9.5867 C.3     1  UNL1        0.1693
     45 O          18.0996   69.9492  -10.2599 O.3     1  UNL1       -0.3794
     46 H          18.1440   70.0014  -11.2244 H       1  UNL1        0.2105
@<TRIPOS>BOND
     1    29    30    1
     2    30    41    1
     3    30    31    1
     4    31    34    1
     5    31    32    1
     6    32    35    1
     7    32    33    1
     8    33    36    1
     9    33    44    1
    10    39    40    1
    11    39    42    2
    12    39    41   am
    13    41    43    1
    14    29    28    1
    15    34    37    1
    16    35    38    1
    17    29    36    1
    18    44    45    1
    19    45    46    1
    20    15     6    1
    21    15    16   ar
    22    16    21    2
    23    16    17   ar
    24    17    23    1
    25    17    18   ar
    26    18    19   ar
    27    19    20   ar
    28    15    20   ar
    29    18    22    2
    30     6     7    1
    31     6    11    1
    32     7     9    1
    33     7     8    1
    34     8    13    1
    35     9    10    1
    36     9    12    1
    37    10     5    1
    38    10    11    1
    39    12    14    1
    40     5     4    1
    41     4     1    1
    42     1     2    1
    43     1    24    1
    44     1     3    2
    45    24    25    1
    46    28    25    1
    47    25    26    1
    48    25    27    2
