@<TRIPOS>MOLECULE
UD1
 46 48 0 0 0
SMALL
GASTEIGER

@<TRIPOS>ATOM
      1 P          21.7768   71.0832   -2.4707 P.3     1  UNL1        0.2189
      2 O          23.2165   71.4077   -2.5750 O.2     1  UNL1       -0.5170
      3 O          21.5557   69.5184   -2.7790 O.3     1  UNL1       -0.4371
      4 O          20.9506   71.9614   -3.5379 O.3     1  UNL1       -0.3112
      5 C          19.9128   72.6238   -2.8137 C.3     1  UNL1        0.1811
      6 C          17.7948   71.4289   -5.4620 C.3     1  UNL1        0.2383
      7 C          17.9492   70.2157   -4.5111 C.3     1  UNL1        0.1895
      8 O          16.7828   69.3923   -4.5396 O.3     1  UNL1       -0.3779
      9 C          18.1078   70.9027   -3.1298 C.3     1  UNL1        0.1713
     10 C          18.5639   72.3339   -3.4737 C.3     1  UNL1        0.1764
     11 O          18.6924   72.4119   -4.9036 O.3     1  UNL1       -0.3308
     12 O          16.8594   70.9221   -2.4342 O.3     1  UNL1       -0.3794
     13 H          16.9428   68.6587   -3.9299 H       1  UNL1        0.2106
     14 H          16.5992   70.0007   -2.3019 H       1  UNL1        0.2105
     15 N          18.1983   71.0762   -6.8237 N.ar    1  UNL1       -0.2551
     16 C          17.2698   70.6839   -7.7133 C.ar    1  UNL1        0.3323
     17 N          17.6117   70.3573   -8.9737 N.ar    1  UNL1       -0.2743
     18 C          18.9014   70.4101   -9.3633 C.ar    1  UNL1        0.2626
     19 C          19.8899   70.8157   -8.4352 C.ar    1  UNL1        0.0795
     20 C          19.5186   71.1429   -7.1789 C.ar    1  UNL1        0.0869
     21 O          16.1024   70.6312   -7.3770 O.2     1  UNL1       -0.2464
     22 O          19.2123   70.1105  -10.5012 O.2     1  UNL1       -0.2670
     23 H          16.9282   70.0811   -9.6035 H       1  UNL1        0.1734
     24 O          21.2578   71.4169   -0.9847 O.3     1  UNL1       -0.2703
     25 P          22.3017   70.7396    0.0354 P.3     1  UNL1        0.2208
     26 O          23.5097   70.3142   -0.7053 O.2     1  UNL1       -0.5170
     27 O          21.6194   69.4571    0.7296 O.3     1  UNL1       -0.4371
     28 O          22.7147   71.8052    1.1687 O.3     1  UNL1       -0.2865
     29 C          21.7922   72.8918    1.0719 C.3     1  UNL1        0.2611
     30 C          22.5491   74.1640    0.6862 C.3     1  UNL1        0.1582
     31 C          23.6165   74.4534    1.7475 C.3     1  UNL1        0.1625
     32 C          22.9431   74.4872    3.1235 C.3     1  UNL1        0.1686
     33 C          22.1589   73.1891    3.3266 C.3     1  UNL1        0.1760
     34 O          24.2286   75.7162    1.4791 O.3     1  UNL1       -0.3801
     35 O          23.9394   74.6093    4.1403 O.3     1  UNL1       -0.3794
     36 O          21.1448   73.0773    2.3288 O.3     1  UNL1       -0.3263
     37 H          24.8918   75.8574    2.1687 H       1  UNL1        0.2105
     38 H          23.4732   74.6260    4.9882 H       1  UNL1        0.2105
     39 C          23.1544   74.9612   -1.5347 C.2     1  UNL1        0.2231
     40 C          23.8147   74.7673   -2.8758 C.3     1  UNL1        0.0946
     41 N          23.1908   73.9763   -0.6166 N.am    1  UNL1       -0.2994
     42 O          22.5897   76.0040   -1.2821 O.2     1  UNL1       -0.2751
     43 H          23.6425   73.1416   -0.8186 H       1  UNL1        0.1496
     44 C          21.5088   73.1988    4.7116 C.3     1  UNL1        0.1693
     45 O          22.4756   72.8234    5.6947 O.3     1  UNL1       -0.3794
     46 H          22.0262   72.8419    6.5505 H       1  UNL1        0.2105
@<TRIPOS>BOND
     1    29    30    1
     2    29    28    1
     3    29    36    1
     4    30    31    1
     5    30    41    1
     6    31    32    1
     7    31    34    1
     8    32    33    1
     9    32    35    1
    10    33    44    1
    11    33    36    1
    12    44    45    1
    13    39    40    1
    14    39    41   am
    15    39    42    2
    16    41    43    1
    17    28    25    1
    18    34    37    1
    19    35    38    1
    20    45    46    1
    21    15    16   ar
    22    15    20   ar
    23    15     6    1
    24    16    17   ar
    25    16    21    2
    26    17    18   ar
    27    17    23    1
    28    18    19   ar
    29    18    22    2
    30    19    20   ar
    31     6     7    1
    32     6    11    1
    33     7     8    1
    34     7     9    1
    35     8    13    1
    36     9    10    1
    37     9    12    1
    38    10    11    1
    39    10     5    1
    40    12    14    1
    41     5     4    1
    42     4     1    1
    43     1     2    2
    44     1     3    1
    45     1    24    1
    46    24    25    1
    47    25    26    2
    48    25    27    1
@<TRIPOS>MOLECULE
UD1
 46 48 0 0 0
SMALL
GASTEIGER

@<TRIPOS>ATOM
      1 P          22.4838   72.9655   -3.4674 P.3     1  UNL1        0.2189
      2 O          21.7707   74.2617   -3.4801 O.2     1  UNL1       -0.5170
      3 O          23.6100   72.9612   -4.6181 O.3     1  UNL1       -0.4371
      4 O          21.4354   71.7741   -3.7395 O.3     1  UNL1       -0.3112
      5 C          20.4547   71.8409   -2.7031 C.3     1  UNL1        0.1811
      6 C          18.0858   71.2486   -5.3422 C.3     1  UNL1        0.2383
      7 C          18.0705   69.9440   -4.5067 C.3     1  UNL1        0.1895
      8 O          16.7850   69.3237   -4.5511 O.3     1  UNL1       -0.3779
      9 C          18.3837   70.4668   -3.0806 C.3     1  UNL1        0.1713
     10 C          19.0560   71.8322   -3.3218 C.3     1  UNL1        0.1764
     11 O          19.1494   72.0199   -4.7442 O.3     1  UNL1       -0.3308
     12 O          17.1782   70.6214   -2.3284 O.3     1  UNL1       -0.3794
     13 H          16.8425   68.5210   -4.0146 H       1  UNL1        0.2106
     14 H          16.7754   69.7452   -2.2634 H       1  UNL1        0.2105
     15 N          18.3821   70.9627   -6.7464 N.ar    1  UNL1       -0.2551
     16 C          17.3753   70.7233   -7.6045 C.ar    1  UNL1        0.3323
     17 N          17.6182   70.4614   -8.9024 N.ar    1  UNL1       -0.2743
     18 C          18.8849   70.4259   -9.3629 C.ar    1  UNL1        0.2626
     19 C          19.9547   70.6701   -8.4692 C.ar    1  UNL1        0.0795
     20 C          19.6824   70.9356   -7.1735 C.ar    1  UNL1        0.0869
     21 O          16.2274   70.7519   -7.2042 O.2     1  UNL1       -0.2464
     22 O          19.1059   70.1845  -10.5352 O.2     1  UNL1       -0.2670
     23 H          16.8795   70.2957   -9.5083 H       1  UNL1        0.1734
     24 O          23.1801   72.7501   -2.0329 O.3     1  UNL1       -0.2703
     25 P          23.1469   74.1728   -1.2817 P.3     1  UNL1        0.2208
     26 O          22.7828   75.2323   -2.2480 O.2     1  UNL1       -0.5170
     27 O          24.5996   74.4878   -0.6632 O.3     1  UNL1       -0.4371
     28 O          22.0585   74.1302   -0.0968 O.3     1  UNL1       -0.2865
     29 C          22.7641   74.3660    1.1228 C.3     1  UNL1        0.2611
     30 C          22.4653   73.2331    2.1064 C.3     1  UNL1        0.1582
     31 C          20.9545   73.1734    2.3582 C.3     1  UNL1        0.1625
     32 C          20.4755   74.5613    2.7971 C.3     1  UNL1        0.1686
     33 C          20.9219   75.5937    1.7597 C.3     1  UNL1        0.1760
     34 O          20.6776   72.2205    3.3861 O.3     1  UNL1       -0.3801
     35 O          19.0500   74.5659    2.8953 O.3     1  UNL1       -0.3794
     36 O          22.3465   75.6110    1.6788 O.3     1  UNL1       -0.3263
     37 H          19.7187   72.2153    3.5113 H       1  UNL1        0.2105
     38 H          18.7917   75.4563    3.1727 H       1  UNL1        0.2105
     39 C          22.0559   71.1758    0.8678 C.2     1  UNL1        0.2231
     40 C          22.5234   69.8660    0.2862 C.3     1  UNL1        0.0946
     41 N          22.9190   71.9609    1.5408 N.am    1  UNL1       -0.2994
     42 O          20.9023   71.5228    0.7304 O.2     1  UNL1       -0.2751
     43 H          23.8423   71.6833    1.6510 H       1  UNL1        0.1496
     44 C          20.4204   76.9791    2.1722 C.3     1  UNL1        0.1693
     45 O          20.3899   77.0700    3.5980 O.3     1  UNL1       -0.3794
     46 H          20.0688   77.9557    3.8151 H       1  UNL1        0.2105
@<TRIPOS>BOND
     1    29    30    1
     2    29    28    1
     3    29    36    1
     4    30    31    1
     5    30    41    1
     6    31    32    1
     7    31    34    1
     8    32    33    1
     9    32    35    1
    10    33    44    1
    11    33    36    1
    12    44    45    1
    13    39    40    1
    14    39    41   am
    15    39    42    2
    16    41    43    1
    17    28    25    1
    18    34    37    1
    19    35    38    1
    20    45    46    1
    21    15    16   ar
    22    15    20   ar
    23    15     6    1
    24    16    17   ar
    25    16    21    2
    26    17    18   ar
    27    17    23    1
    28    18    19   ar
    29    18    22    2
    30    19    20   ar
    31     6     7    1
    32     6    11    1
    33     7     8    1
    34     7     9    1
    35     8    13    1
    36     9    10    1
    37     9    12    1
    38    10    11    1
    39    10     5    1
    40    12    14    1
    41     5     4    1
    42     4     1    1
    43     1     2    2
    44     1     3    1
    45     1    24    1
    46    24    25    1
    47    25    26    2
    48    25    27    1
@<TRIPOS>MOLECULE
UD1
 46 48 0 0 0
SMALL
GASTEIGER

@<TRIPOS>ATOM
      1 P          22.0912   70.8644   -0.5568 P.3     1  UNL1        0.2189
      2 O          22.9374   70.3619   -1.6614 O.2     1  UNL1       -0.5170
      3 O          21.6306   69.6311    0.3703 O.3     1  UNL1       -0.4371
      4 O          20.7901   71.5914   -1.1663 O.3     1  UNL1       -0.3112
      5 C          20.7918   71.3333   -2.5711 C.3     1  UNL1        0.1811
      6 C          18.2717   71.1610   -5.1298 C.3     1  UNL1        0.2383
      7 C          18.1488   69.8149   -4.3727 C.3     1  UNL1        0.1895
      8 O          16.8033   69.3370   -4.3948 O.3     1  UNL1       -0.3779
      9 C          18.5718   70.2108   -2.9341 C.3     1  UNL1        0.1713
     10 C          19.3771   71.5106   -3.1249 C.3     1  UNL1        0.1764
     11 O          19.4345   71.7771   -4.5366 O.3     1  UNL1       -0.3308
     12 O          17.4203   70.4430   -2.1199 O.3     1  UNL1       -0.3794
     13 H          16.7952   68.5004   -3.9095 H       1  UNL1        0.2106
     14 H          16.9285   69.6116   -2.0882 H       1  UNL1        0.2105
     15 N          18.4805   70.9350   -6.5605 N.ar    1  UNL1       -0.2551
     16 C          17.4200   70.7921   -7.3742 C.ar    1  UNL1        0.3323
     17 N          17.5822   70.5871   -8.6948 N.ar    1  UNL1       -0.2743
     18 C          18.8201   70.5123   -9.2237 C.ar    1  UNL1        0.2626
     19 C          19.9455   70.6551   -8.3775 C.ar    1  UNL1        0.0795
     20 C          19.7540   70.8652   -7.0575 C.ar    1  UNL1        0.0869
     21 O          16.2971   70.8572   -6.9121 O.2     1  UNL1       -0.2464
     22 O          18.9680   70.3223  -10.4168 O.2     1  UNL1       -0.2670
     23 H          16.8059   70.4910   -9.2677 H       1  UNL1        0.1734
     24 O          22.9296   71.9166    0.3257 O.3     1  UNL1       -0.2703
     25 P          21.8855   72.6173    1.3298 P.3     1  UNL1        0.2208
     26 O          20.8594   71.6334    1.7398 O.2     1  UNL1       -0.5170
     27 O          21.1738   73.8557    0.5868 O.3     1  UNL1       -0.4371
     28 O          22.6669   73.1516    2.6315 O.3     1  UNL1       -0.2865
     29 C          22.3512   74.5386    2.7642 C.3     1  UNL1        0.2611
     30 C          23.4760   75.2420    3.5258 C.3     1  UNL1        0.1582
     31 C          23.6334   74.5886    4.9035 C.3     1  UNL1        0.1625
     32 C          22.2711   74.5897    5.6050 C.3     1  UNL1        0.1686
     33 C          21.2376   73.9327    4.6876 C.3     1  UNL1        0.1760
     34 O          24.5762   75.3299    5.6801 O.3     1  UNL1       -0.3801
     35 O          22.3624   73.8556    6.8274 O.3     1  UNL1       -0.3794
     36 O          21.1240   74.6793    3.4767 O.3     1  UNL1       -0.3263
     37 H          24.6444   74.8850    6.5361 H       1  UNL1        0.2105
     38 H          21.4850   73.8808    7.2350 H       1  UNL1        0.2105
     39 C          25.5675   76.1651    2.6845 C.2     1  UNL1        0.2231
     40 C          26.8560   76.0349    1.9132 C.3     1  UNL1        0.0946
     41 N          24.7281   75.1158    2.7771 N.am    1  UNL1       -0.2994
     42 O          25.2858   77.2152    3.2214 O.2     1  UNL1       -0.2751
     43 H          24.9532   74.2754    2.3473 H       1  UNL1        0.1496
     44 C          19.8799   73.8994    5.3923 C.3     1  UNL1        0.1693
     45 O          19.7608   75.0350    6.2516 O.3     1  UNL1       -0.3794
     46 H          18.8939   74.9757    6.6753 H       1  UNL1        0.2105
@<TRIPOS>BOND
     1    29    30    1
     2    29    28    1
     3    29    36    1
     4    30    31    1
     5    30    41    1
     6    31    32    1
     7    31    34    1
     8    32    33    1
     9    32    35    1
    10    33    44    1
    11    33    36    1
    12    44    45    1
    13    39    40    1
    14    39    41   am
    15    39    42    2
    16    41    43    1
    17    28    25    1
    18    34    37    1
    19    35    38    1
    20    45    46    1
    21    15    16   ar
    22    15    20   ar
    23    15     6    1
    24    16    17   ar
    25    16    21    2
    26    17    18   ar
    27    17    23    1
    28    18    19   ar
    29    18    22    2
    30    19    20   ar
    31     6     7    1
    32     6    11    1
    33     7     8    1
    34     7     9    1
    35     8    13    1
    36     9    10    1
    37     9    12    1
    38    10    11    1
    39    10     5    1
    40    12    14    1
    41     5     4    1
    42     4     1    1
    43     1     2    2
    44     1     3    1
    45     1    24    1
    46    24    25    1
    47    25    26    2
    48    25    27    1
@<TRIPOS>MOLECULE
UD1
 46 48 0 0 0
SMALL
GASTEIGER

@<TRIPOS>ATOM
      1 P          21.7046   70.7064   -0.9272 P.3     1  UNL1        0.2189
      2 O          22.2741   70.0783   -2.1396 O.2     1  UNL1       -0.5170
      3 O          21.4200   69.5735    0.1810 O.3     1  UNL1       -0.4371
      4 O          20.3247   71.4456   -1.3042 O.3     1  UNL1       -0.3112
      5 C          20.4228   71.8307   -2.6762 C.3     1  UNL1        0.1811
      6 C          18.0612   71.2673   -5.3282 C.3     1  UNL1        0.2383
      7 C          18.0170   69.9675   -4.4864 C.3     1  UNL1        0.1895
      8 O          16.7209   69.3701   -4.5363 O.3     1  UNL1       -0.3779
      9 C          18.3300   70.4919   -3.0608 C.3     1  UNL1        0.1713
     10 C          19.0283   71.8438   -3.3042 C.3     1  UNL1        0.1764
     11 O          19.1344   72.0225   -4.7269 O.3     1  UNL1       -0.3308
     12 O          17.1226   70.6718   -2.3175 O.3     1  UNL1       -0.3794
     13 H          16.7605   68.5692   -3.9954 H       1  UNL1        0.2106
     14 H          16.7037   69.8033   -2.2508 H       1  UNL1        0.2105
     15 N          18.3616   70.9690   -6.7289 N.ar    1  UNL1       -0.2551
     16 C          17.3557   70.7734   -7.5991 C.ar    1  UNL1        0.3323
     17 N          17.6026   70.5014   -8.8942 N.ar    1  UNL1       -0.2743
     18 C          18.8720   70.4112   -9.3396 C.ar    1  UNL1        0.2626
     19 C          19.9406   70.6090   -8.4330 C.ar    1  UNL1        0.0795
     20 C          19.6645   70.8858   -7.1405 C.ar    1  UNL1        0.0869
     21 O          16.2054   70.8516   -7.2126 O.2     1  UNL1       -0.2464
     22 O          19.0963   70.1606  -10.5093 O.2     1  UNL1       -0.2670
     23 H          16.8647   70.3679   -9.5090 H       1  UNL1        0.1734
     24 O          22.7468   71.7827   -0.3405 O.3     1  UNL1       -0.2703
     25 P          22.0128   72.5188    0.8878 P.3     1  UNL1        0.2208
     26 O          21.2445   71.5255    1.6701 O.2     1  UNL1       -0.5170
     27 O          21.0111   73.6437    0.3190 O.3     1  UNL1       -0.4371
     28 O          23.1139   73.2123    1.8350 O.3     1  UNL1       -0.2865
     29 C          22.6084   74.5026    2.1823 C.3     1  UNL1        0.2611
     30 C          23.7299   75.5352    2.0558 C.3     1  UNL1        0.1582
     31 C          24.8836   75.1383    2.9838 C.3     1  UNL1        0.1625
     32 C          24.3300   74.9470    4.3998 C.3     1  UNL1        0.1686
     33 C          23.1650   73.9562    4.3498 C.3     1  UNL1        0.1760
     34 O          25.8716   76.1703    2.9878 O.3     1  UNL1       -0.3801
     35 O          25.3582   74.4352    5.2498 O.3     1  UNL1       -0.3794
     36 O          22.1245   74.4768    3.5234 O.3     1  UNL1       -0.3263
     37 H          26.5769   75.8796    3.5823 H       1  UNL1        0.2105
     38 H          24.9675   74.3293    6.1288 H       1  UNL1        0.2105
     39 C          23.5806   76.3519   -0.2343 C.2     1  UNL1        0.2231
     40 C          24.0701   76.3922   -1.6595 C.3     1  UNL1        0.0946
     41 N          24.2054   75.5750    0.6714 N.am    1  UNL1       -0.2994
     42 O          22.6235   77.0185    0.0970 O.2     1  UNL1       -0.2751
     43 H          24.9711   75.0413    0.4064 H       1  UNL1        0.1496
     44 C          22.6257   73.7332    5.7642 C.3     1  UNL1        0.1693
     45 O          21.3462   73.1008    5.6924 O.3     1  UNL1       -0.3794
     46 H          21.0428   72.9791    6.6022 H       1  UNL1        0.2105
@<TRIPOS>BOND
     1    29    30    1
     2    29    28    1
     3    29    36    1
     4    30    31    1
     5    30    41    1
     6    31    32    1
     7    31    34    1
     8    32    33    1
     9    32    35    1
    10    33    44    1
    11    33    36    1
    12    44    45    1
    13    39    40    1
    14    39    41   am
    15    39    42    2
    16    41    43    1
    17    28    25    1
    18    34    37    1
    19    35    38    1
    20    45    46    1
    21    15    16   ar
    22    15    20   ar
    23    15     6    1
    24    16    17   ar
    25    16    21    2
    26    17    18   ar
    27    17    23    1
    28    18    19   ar
    29    18    22    2
    30    19    20   ar
    31     6     7    1
    32     6    11    1
    33     7     8    1
    34     7     9    1
    35     8    13    1
    36     9    10    1
    37     9    12    1
    38    10    11    1
    39    10     5    1
    40    12    14    1
    41     5     4    1
    42     4     1    1
    43     1     2    2
    44     1     3    1
    45     1    24    1
    46    24    25    1
    47    25    26    2
    48    25    27    1
@<TRIPOS>MOLECULE
UD1
 46 48 0 0 0
SMALL
GASTEIGER

@<TRIPOS>ATOM
      1 P          22.5157   71.3340   -2.5300 P.3     1  UNL1        0.2189
      2 O          23.5635   70.6502   -3.3196 O.2     1  UNL1       -0.5170
      3 O          22.1617   70.4519   -1.2303 O.3     1  UNL1       -0.4371
      4 O          21.1943   71.5117   -3.4329 O.3     1  UNL1       -0.3112
      5 C          20.2275   72.1832   -2.6238 C.3     1  UNL1        0.1811
      6 C          17.9658   71.3637   -5.2960 C.3     1  UNL1        0.2383
      7 C          18.0185   70.0831   -4.4256 C.3     1  UNL1        0.1895
      8 O          16.7789   69.3764   -4.4805 O.3     1  UNL1       -0.3779
      9 C          18.2626   70.6628   -3.0080 C.3     1  UNL1        0.1713
     10 C          18.8473   72.0639   -3.2720 C.3     1  UNL1        0.1764
     11 O          18.9610   72.2204   -4.6967 O.3     1  UNL1       -0.3308
     12 O          17.0323   70.7549   -2.2864 O.3     1  UNL1       -0.3794
     13 H          16.8776   68.5936   -3.9210 H       1  UNL1        0.2106
     14 H          16.6877   69.8555   -2.2060 H       1  UNL1        0.2105
     15 N          18.3133   71.0621   -6.6851 N.ar    1  UNL1       -0.2551
     16 C          17.3407   70.7772   -7.5685 C.ar    1  UNL1        0.3323
     17 N          17.6309   70.4999   -8.8534 N.ar    1  UNL1       -0.2743
     18 C          18.9116   70.4946   -9.2750 C.ar    1  UNL1        0.2626
     19 C          19.9458   70.7870   -8.3542 C.ar    1  UNL1        0.0795
     20 C          19.6262   71.0669   -7.0724 C.ar    1  UNL1        0.0869
     21 O          16.1808   70.7781   -7.2035 O.2     1  UNL1       -0.2464
     22 O          19.1755   70.2394  -10.4354 O.2     1  UNL1       -0.2670
     23 H          16.9164   70.3013   -9.4781 H       1  UNL1        0.1734
     24 O          23.0490   72.7803   -2.0691 O.3     1  UNL1       -0.2703
     25 P          23.4313   73.5837   -3.4099 P.3     1  UNL1        0.2208
     26 O          22.4765   74.6965   -3.6072 O.2     1  UNL1       -0.5170
     27 O          23.3608   72.5869   -4.6723 O.3     1  UNL1       -0.4371
     28 O          24.9228   74.1738   -3.2767 O.3     1  UNL1       -0.2865
     29 C          24.7962   75.5871   -3.1105 C.3     1  UNL1        0.2611
     30 C          25.4941   76.2968   -4.2720 C.3     1  UNL1        0.1582
     31 C          26.9703   75.8850   -4.2967 C.3     1  UNL1        0.1625
     32 C          27.5757   76.1479   -2.9138 C.3     1  UNL1        0.1686
     33 C          26.7223   75.4467   -1.8548 C.3     1  UNL1        0.1760
     34 O          27.6652   76.6529   -5.2811 O.3     1  UNL1       -0.3801
     35 O          28.9091   75.6362   -2.8706 O.3     1  UNL1       -0.3794
     36 O          25.3968   75.9749   -1.8766 O.3     1  UNL1       -0.3263
     37 H          28.5873   76.3618   -5.2627 H       1  UNL1        0.2105
     38 H          29.2513   75.8217   -1.9846 H       1  UNL1        0.2105
     39 C          24.6304   76.8420   -6.4836 C.2     1  UNL1        0.2231
     40 C          23.9740   76.4478   -7.7821 C.3     1  UNL1        0.0946
     41 N          24.8569   75.9142   -5.5338 N.am    1  UNL1       -0.2994
     42 O          24.9542   77.9949   -6.2935 O.2     1  UNL1       -0.2751
     43 H          24.5976   74.9916   -5.6856 H       1  UNL1        0.1496
     44 C          27.3370   75.6761   -0.4725 C.3     1  UNL1        0.1693
     45 O          26.4324   76.4361    0.3314 O.3     1  UNL1       -0.3794
     46 H          26.8570   76.5581    1.1913 H       1  UNL1        0.2105
@<TRIPOS>BOND
     1    29    30    1
     2    29    28    1
     3    29    36    1
     4    30    31    1
     5    30    41    1
     6    31    32    1
     7    31    34    1
     8    32    33    1
     9    32    35    1
    10    33    44    1
    11    33    36    1
    12    44    45    1
    13    39    40    1
    14    39    41   am
    15    39    42    2
    16    41    43    1
    17    28    25    1
    18    34    37    1
    19    35    38    1
    20    45    46    1
    21    15    16   ar
    22    15    20   ar
    23    15     6    1
    24    16    17   ar
    25    16    21    2
    26    17    18   ar
    27    17    23    1
    28    18    19   ar
    29    18    22    2
    30    19    20   ar
    31     6     7    1
    32     6    11    1
    33     7     8    1
    34     7     9    1
    35     8    13    1
    36     9    10    1
    37     9    12    1
    38    10    11    1
    39    10     5    1
    40    12    14    1
    41     5     4    1
    42     4     1    1
    43     1     2    2
    44     1     3    1
    45     1    24    1
    46    24    25    1
    47    25    26    2
    48    25    27    1
@<TRIPOS>MOLECULE
UD1
 46 48 0 0 0
SMALL
GASTEIGER

@<TRIPOS>ATOM
      1 P          22.1652   70.4179   -0.6073 P.3     1  UNL1        0.2189
      2 O          23.1923   69.5455    0.0031 O.2     1  UNL1       -0.5170
      3 O          21.4010   71.2374    0.5490 O.3     1  UNL1       -0.4371
      4 O          21.1043   69.5139   -1.4136 O.3     1  UNL1       -0.3112
      5 C          21.1762   69.9137   -2.7830 C.3     1  UNL1        0.1811
      6 C          18.6334   70.8476   -5.1472 C.3     1  UNL1        0.2383
      7 C          18.1646   69.4788   -4.5934 C.3     1  UNL1        0.1895
      8 O          16.7393   69.3905   -4.5883 O.3     1  UNL1       -0.3779
      9 C          18.7225   69.5046   -3.1466 C.3     1  UNL1        0.1713
     10 C          19.8505   70.5531   -3.1989 C.3     1  UNL1        0.1764
     11 O          19.9382   71.0224   -4.5552 O.3     1  UNL1       -0.3308
     12 O          17.7047   69.9009   -2.2248 O.3     1  UNL1       -0.3794
     13 H          16.5139   68.5190   -4.2346 H       1  UNL1        0.2106
     14 H          17.0029   69.2388   -2.2820 H       1  UNL1        0.2105
     15 N          18.7296   70.8119   -6.6070 N.ar    1  UNL1       -0.2551
     16 C          17.6445   71.0826   -7.3530 C.ar    1  UNL1        0.3323
     17 N          17.7049   71.0610   -8.6977 N.ar    1  UNL1       -0.2743
     18 C          18.8608   70.7562   -9.3212 C.ar    1  UNL1        0.2626
     19 C          20.0094   70.4632   -8.5479 C.ar    1  UNL1        0.0795
     20 C          19.9222   70.4974   -7.2008 C.ar    1  UNL1        0.0869
     21 O          16.5947   71.3594   -6.8054 O.2     1  UNL1       -0.2464
     22 O          18.9153   70.7317  -10.5368 O.2     1  UNL1       -0.2670
     23 H          16.9135   71.2636   -9.2202 H       1  UNL1        0.1734
     24 O          22.8706   71.4495   -1.6208 O.3     1  UNL1       -0.2703
     25 P          22.3224   72.9157   -1.2480 P.3     1  UNL1        0.2208
     26 O          23.1236   73.4739   -0.1365 O.2     1  UNL1       -0.5170
     27 O          20.7797   72.8144   -0.7986 O.3     1  UNL1       -0.4371
     28 O          22.4435   73.8779   -2.5326 O.3     1  UNL1       -0.2865
     29 C          23.5905   73.4465   -3.2670 C.3     1  UNL1        0.2611
     30 C          24.5640   74.6169   -3.4167 C.3     1  UNL1        0.1582
     31 C          23.8573   75.7668   -4.1433 C.3     1  UNL1        0.1625
     32 C          23.2736   75.2323   -5.4554 C.3     1  UNL1        0.1686
     33 C          22.3949   74.0171   -5.1515 C.3     1  UNL1        0.1760
     34 O          24.7969   76.8066   -4.4217 O.3     1  UNL1       -0.3801
     35 O          22.4863   76.2495   -6.0777 O.3     1  UNL1       -0.3794
     36 O          23.1840   72.9886   -4.5548 O.3     1  UNL1       -0.3263
     37 H          24.3109   77.5076   -4.8775 H       1  UNL1        0.2105
     38 H          22.1382   75.8714   -6.8976 H       1  UNL1        0.2105
     39 C          26.2908   75.3712   -1.8728 C.2     1  UNL1        0.2231
     40 C          26.7363   75.8332   -0.5089 C.3     1  UNL1        0.0946
     41 N          24.9972   75.0663   -2.0920 N.am    1  UNL1       -0.2994
     42 O          27.0970   75.2733   -2.7731 O.2     1  UNL1       -0.2751
     43 H          24.3519   75.1443   -1.3716 H       1  UNL1        0.1496
     44 C          21.7808   73.4952   -6.4521 C.3     1  UNL1        0.1693
     45 O          22.7595   72.7443   -7.1737 O.3     1  UNL1       -0.3794
     46 H          22.3330   72.4348   -7.9842 H       1  UNL1        0.2105
@<TRIPOS>BOND
     1    29    30    1
     2    29    28    1
     3    29    36    1
     4    30    31    1
     5    30    41    1
     6    31    32    1
     7    31    34    1
     8    32    33    1
     9    32    35    1
    10    33    44    1
    11    33    36    1
    12    44    45    1
    13    39    40    1
    14    39    41   am
    15    39    42    2
    16    41    43    1
    17    28    25    1
    18    34    37    1
    19    35    38    1
    20    45    46    1
    21    15    16   ar
    22    15    20   ar
    23    15     6    1
    24    16    17   ar
    25    16    21    2
    26    17    18   ar
    27    17    23    1
    28    18    19   ar
    29    18    22    2
    30    19    20   ar
    31     6     7    1
    32     6    11    1
    33     7     8    1
    34     7     9    1
    35     8    13    1
    36     9    10    1
    37     9    12    1
    38    10    11    1
    39    10     5    1
    40    12    14    1
    41     5     4    1
    42     4     1    1
    43     1     2    2
    44     1     3    1
    45     1    24    1
    46    24    25    1
    47    25    26    2
    48    25    27    1
@<TRIPOS>MOLECULE
UD1
 46 48 0 0 0
SMALL
GASTEIGER

@<TRIPOS>ATOM
      1 P          23.2445   74.2584   -3.8373 P.3     1  UNL1        0.2189
      2 O          23.9883   72.9846   -3.9512 O.2     1  UNL1       -0.5170
      3 O          23.8378   75.3223   -4.8902 O.3     1  UNL1       -0.4371
      4 O          23.4008   74.8388   -2.3435 O.3     1  UNL1       -0.3112
      5 C          22.4093   74.1935   -1.5429 C.3     1  UNL1        0.1811
      6 C          23.0275   72.3989    1.5107 C.3     1  UNL1        0.2383
      7 C          21.8776   71.6174    0.8271 C.3     1  UNL1        0.1895
      8 O          21.9380   70.2287    1.1547 O.3     1  UNL1       -0.3779
      9 C          22.1788   71.8446   -0.6772 C.3     1  UNL1        0.1713
     10 C          23.0671   73.1036   -0.6951 C.3     1  UNL1        0.1764
     11 O          23.2004   73.5547    0.6635 O.3     1  UNL1       -0.3308
     12 O          22.8777   70.7235   -1.2225 O.3     1  UNL1       -0.3794
     13 H          21.1987   69.8013    0.7005 H       1  UNL1        0.2106
     14 H          22.2950   69.9583   -1.1280 H       1  UNL1        0.2105
     15 N          22.6473   72.8035    2.8647 N.ar    1  UNL1       -0.2551
     16 C          21.3849   72.6150    3.2867 C.ar    1  UNL1        0.3323
     17 N          21.0082   72.9739    4.5282 N.ar    1  UNL1       -0.2743
     18 C          21.8956   73.5406    5.3704 C.ar    1  UNL1        0.2626
     19 C          23.2264   73.7504    4.9370 C.ar    1  UNL1        0.0795
     20 C          23.5787   73.3760    3.6884 C.ar    1  UNL1        0.0869
     21 O          20.5730   72.1050    2.5388 O.2     1  UNL1       -0.2464
     22 O          21.5549   73.8699    6.4915 O.2     1  UNL1       -0.2670
     23 H          20.0946   72.8262    4.8176 H       1  UNL1        0.1734
     24 O          21.6878   74.0009   -4.1526 O.3     1  UNL1       -0.2703
     25 P          21.5935   72.5775   -4.8972 P.3     1  UNL1        0.2208
     26 O          22.2512   71.5431   -4.0688 O.2     1  UNL1       -0.5170
     27 O          22.3305   72.6685   -6.3257 O.3     1  UNL1       -0.4371
     28 O          20.0477   72.1865   -5.1164 O.3     1  UNL1       -0.2865
     29 C          20.0237   70.8354   -5.5802 C.3     1  UNL1        0.2611
     30 C          18.8388   70.6482   -6.5294 C.3     1  UNL1        0.1582
     31 C          17.5423   70.9882   -5.7857 C.3     1  UNL1        0.1625
     32 C          17.4838   70.1590   -4.4983 C.3     1  UNL1        0.1686
     33 C          18.7699   70.3855   -3.7008 C.3     1  UNL1        0.1760
     34 O          16.4198   70.6749   -6.6123 O.3     1  UNL1       -0.3801
     35 O          16.3581   70.5662   -3.7183 O.3     1  UNL1       -0.3794
     36 O          19.8943   69.9543   -4.4665 O.3     1  UNL1       -0.3263
     37 H          15.6279   70.9041   -6.1068 H       1  UNL1        0.2105
     38 H          16.3597   70.0208   -2.9189 H       1  UNL1        0.2105
     39 C          19.7179   71.1447   -8.7463 C.2     1  UNL1        0.2231
     40 C          19.8737   72.0604   -9.9335 C.3     1  UNL1        0.0946
     41 N          18.9901   71.5372   -7.6831 N.am    1  UNL1       -0.2994
     42 O          20.2483   70.0544   -8.7479 O.2     1  UNL1       -0.2751
     43 H          18.5657   72.4098   -7.6815 H       1  UNL1        0.1496
     44 C          18.7075   69.5868   -2.3972 C.3     1  UNL1        0.1693
     45 O          19.9968   69.5785   -1.7811 O.3     1  UNL1       -0.3794
     46 H          19.9139   69.0661   -0.9655 H       1  UNL1        0.2105
@<TRIPOS>BOND
     1    29    30    1
     2    29    28    1
     3    29    36    1
     4    30    31    1
     5    30    41    1
     6    31    32    1
     7    31    34    1
     8    32    33    1
     9    32    35    1
    10    33    44    1
    11    33    36    1
    12    44    45    1
    13    39    40    1
    14    39    41   am
    15    39    42    2
    16    41    43    1
    17    28    25    1
    18    34    37    1
    19    35    38    1
    20    45    46    1
    21    15    16   ar
    22    15    20   ar
    23    15     6    1
    24    16    17   ar
    25    16    21    2
    26    17    18   ar
    27    17    23    1
    28    18    19   ar
    29    18    22    2
    30    19    20   ar
    31     6     7    1
    32     6    11    1
    33     7     8    1
    34     7     9    1
    35     8    13    1
    36     9    10    1
    37     9    12    1
    38    10    11    1
    39    10     5    1
    40    12    14    1
    41     5     4    1
    42     4     1    1
    43     1     2    2
    44     1     3    1
    45     1    24    1
    46    24    25    1
    47    25    26    2
    48    25    27    1
@<TRIPOS>MOLECULE
UD1
 46 48 0 0 0
SMALL
GASTEIGER

@<TRIPOS>ATOM
      1 P          21.9914   71.0023   -1.1175 P.3     1  UNL1        0.2189
      2 O          20.7918   71.7576   -1.5408 O.2     1  UNL1       -0.5170
      3 O          21.5710   69.4945   -0.7403 O.3     1  UNL1       -0.4371
      4 O          22.6462   71.7138    0.1701 O.3     1  UNL1       -0.3112
      5 C          22.4913   70.8105    1.2656 C.3     1  UNL1        0.1811
      6 C          23.2357   73.5953    3.4145 C.3     1  UNL1        0.2383
      7 C          21.8987   73.9783    2.7318 C.3     1  UNL1        0.1895
      8 O          21.1027   74.7965    3.5898 O.3     1  UNL1       -0.3779
      9 C          21.2350   72.5934    2.5158 C.3     1  UNL1        0.1713
     10 C          22.4125   71.6010    2.5726 C.3     1  UNL1        0.1764
     11 O          23.6141   72.3699    2.7521 O.3     1  UNL1       -0.3308
     12 O          20.2931   72.3222    3.5560 O.3     1  UNL1       -0.3794
     13 H          20.2889   74.9992    3.1079 H       1  UNL1        0.2106
     14 H          19.6156   73.0096    3.5055 H       1  UNL1        0.2105
     15 N          24.2452   74.6323    3.1976 N.ar    1  UNL1       -0.2551
     16 C          25.0617   74.9882    4.2046 C.ar    1  UNL1        0.3323
     17 N          26.0020   75.9361    4.0326 N.ar    1  UNL1       -0.2743
     18 C          26.1340   76.5539    2.8414 C.ar    1  UNL1        0.2626
     19 C          25.2771   76.1931    1.7745 C.ar    1  UNL1        0.0795
     20 C          24.3462   75.2354    1.9730 C.ar    1  UNL1        0.0869
     21 O          24.9550   74.4401    5.2848 O.2     1  UNL1       -0.2464
     22 O          26.9806   77.4145    2.6862 O.2     1  UNL1       -0.2670
     23 H          26.5855   76.1770    4.7686 H       1  UNL1        0.1734
     24 O          23.0616   70.9775   -2.3188 O.3     1  UNL1       -0.2703
     25 P          22.7303   72.2380   -3.2626 P.3     1  UNL1        0.2208
     26 O          23.9727   72.7041   -3.9168 O.2     1  UNL1       -0.5170
     27 O          22.1144   73.4292   -2.3716 O.3     1  UNL1       -0.4371
     28 O          21.6630   71.8031   -4.3860 O.3     1  UNL1       -0.2865
     29 C          20.7273   72.8761   -4.5063 C.3     1  UNL1        0.2611
     30 C          19.3567   72.3111   -4.8834 C.3     1  UNL1        0.1582
     31 C          19.4765   71.5467   -6.2066 C.3     1  UNL1        0.1625
     32 C          20.1104   72.4714   -7.2512 C.3     1  UNL1        0.1686
     33 C          21.4259   73.0219   -6.6965 C.3     1  UNL1        0.1760
     34 O          18.1782   71.1423   -6.6452 O.3     1  UNL1       -0.3801
     35 O          20.3660   71.7353   -8.4489 O.3     1  UNL1       -0.3794
     36 O          21.1710   73.7808   -5.5152 O.3     1  UNL1       -0.3263
     37 H          18.3004   70.6661   -7.4780 H       1  UNL1        0.2105
     38 H          20.7646   72.3536   -9.0776 H       1  UNL1        0.2105
     39 C          19.1549   70.0835   -3.9183 C.2     1  UNL1        0.2231
     40 C          18.6792   69.1484   -2.8359 C.3     1  UNL1        0.0946
     41 N          18.8952   71.4023   -3.8319 N.am    1  UNL1       -0.2994
     42 O          19.7711   69.6485   -4.8677 O.2     1  UNL1       -0.2751
     43 H          18.4020   71.7507   -3.0724 H       1  UNL1        0.1496
     44 C          22.0834   73.9214   -7.7452 C.3     1  UNL1        0.1693
     45 O          23.1325   73.2039   -8.3984 O.3     1  UNL1       -0.3794
     46 H          23.5195   73.8051   -9.0492 H       1  UNL1        0.2105
@<TRIPOS>BOND
     1    29    30    1
     2    29    28    1
     3    29    36    1
     4    30    31    1
     5    30    41    1
     6    31    32    1
     7    31    34    1
     8    32    33    1
     9    32    35    1
    10    33    44    1
    11    33    36    1
    12    44    45    1
    13    39    40    1
    14    39    41   am
    15    39    42    2
    16    41    43    1
    17    28    25    1
    18    34    37    1
    19    35    38    1
    20    45    46    1
    21    15    16   ar
    22    15    20   ar
    23    15     6    1
    24    16    17   ar
    25    16    21    2
    26    17    18   ar
    27    17    23    1
    28    18    19   ar
    29    18    22    2
    30    19    20   ar
    31     6     7    1
    32     6    11    1
    33     7     8    1
    34     7     9    1
    35     8    13    1
    36     9    10    1
    37     9    12    1
    38    10    11    1
    39    10     5    1
    40    12    14    1
    41     5     4    1
    42     4     1    1
    43     1     2    2
    44     1     3    1
    45     1    24    1
    46    24    25    1
    47    25    26    2
    48    25    27    1
@<TRIPOS>MOLECULE
UD1
 46 48 0 0 0
SMALL
GASTEIGER

@<TRIPOS>ATOM
      1 P          18.4254   75.0826   -0.7718 P.3     1  UNL1        0.2189
      2 O          18.1833   74.9223    0.6789 O.2     1  UNL1       -0.5170
      3 O          17.1796   75.8515   -1.4421 O.3     1  UNL1       -0.4371
      4 O          18.5882   73.6320   -1.4516 O.3     1  UNL1       -0.3112
      5 C          18.6198   73.8384   -2.8646 C.3     1  UNL1        0.1811
      6 C          17.1812   71.7514   -5.4146 C.3     1  UNL1        0.2383
      7 C          17.6691   70.7585   -4.3299 C.3     1  UNL1        0.1895
      8 O          16.8441   69.5935   -4.2951 O.3     1  UNL1       -0.3779
      9 C          17.5073   71.5901   -3.0309 C.3     1  UNL1        0.1713
     10 C          17.4853   73.0506   -3.5216 C.3     1  UNL1        0.1764
     11 O          17.6679   73.0275   -4.9476 O.3     1  UNL1       -0.3308
     12 O          16.2825   71.2579   -2.3734 O.3     1  UNL1       -0.3794
     13 H          17.1998   69.0189   -3.6032 H       1  UNL1        0.2106
     14 H          16.3335   70.3202   -2.1451 H       1  UNL1        0.2105
     15 N          17.7609   71.4232   -6.7175 N.ar    1  UNL1       -0.2551
     16 C          17.0898   70.6214   -7.5625 C.ar    1  UNL1        0.3323
     17 N          17.5970   70.3060   -8.7689 N.ar    1  UNL1       -0.2743
     18 C          18.7990   70.7857   -9.1471 C.ar    1  UNL1        0.2626
     19 C          19.5190   71.6261   -8.2649 C.ar    1  UNL1        0.0795
     20 C          18.9844   71.9307   -7.0629 C.ar    1  UNL1        0.0869
     21 O          16.0044   70.1810   -7.2358 O.2     1  UNL1       -0.2464
     22 O          19.2608   70.4973  -10.2357 O.2     1  UNL1       -0.2670
     23 H          17.0970   69.7301   -9.3677 H       1  UNL1        0.1734
     24 O          19.7701   75.9361   -1.0004 O.3     1  UNL1       -0.2703
     25 P          20.8993   75.2864   -0.0559 P.3     1  UNL1        0.2208
     26 O          20.5239   75.4749    1.3627 O.2     1  UNL1       -0.5170
     27 O          22.3127   76.0046   -0.3362 O.3     1  UNL1       -0.4371
     28 O          21.0261   73.7135   -0.3730 O.3     1  UNL1       -0.2865
     29 C          22.4121   73.4453   -0.5925 C.3     1  UNL1        0.2611
     30 C          22.5595   72.4821   -1.7717 C.3     1  UNL1        0.1582
     31 C          21.8007   71.1875   -1.4593 C.3     1  UNL1        0.1625
     32 C          22.2883   70.6468   -0.1109 C.3     1  UNL1        0.1686
     33 C          22.1584   71.7477    0.9438 C.3     1  UNL1        0.1760
     34 O          22.0535   70.2250   -2.4845 O.3     1  UNL1       -0.3801
     35 O          21.4925   69.5226    0.2692 O.3     1  UNL1       -0.3794
     36 O          22.9735   72.8615    0.5811 O.3     1  UNL1       -0.3263
     37 H          21.5580   69.4287   -2.2485 H       1  UNL1        0.2105
     38 H          21.8320   69.2149    1.1215 H       1  UNL1        0.2105
     39 C          22.6743   73.0201   -4.1448 C.2     1  UNL1        0.2231
     40 C          22.1024   73.6538   -5.3872 C.3     1  UNL1        0.0946
     41 N          22.0041   73.0972   -2.9790 N.am    1  UNL1       -0.2994
     42 O          23.7385   72.4412   -4.1944 O.2     1  UNL1       -0.2751
     43 H          21.1525   73.5606   -2.9390 H       1  UNL1        0.1496
     44 C          22.6124   71.2077    2.3015 C.3     1  UNL1        0.1693
     45 O          23.4230   70.0471    2.1061 O.3     1  UNL1       -0.3794
     46 H          23.6870   69.7392    2.9837 H       1  UNL1        0.2105
@<TRIPOS>BOND
     1    29    30    1
     2    29    28    1
     3    29    36    1
     4    30    31    1
     5    30    41    1
     6    31    32    1
     7    31    34    1
     8    32    33    1
     9    32    35    1
    10    33    44    1
    11    33    36    1
    12    44    45    1
    13    39    40    1
    14    39    41   am
    15    39    42    2
    16    41    43    1
    17    28    25    1
    18    34    37    1
    19    35    38    1
    20    45    46    1
    21    15    16   ar
    22    15    20   ar
    23    15     6    1
    24    16    17   ar
    25    16    21    2
    26    17    18   ar
    27    17    23    1
    28    18    19   ar
    29    18    22    2
    30    19    20   ar
    31     6     7    1
    32     6    11    1
    33     7     8    1
    34     7     9    1
    35     8    13    1
    36     9    10    1
    37     9    12    1
    38    10    11    1
    39    10     5    1
    40    12    14    1
    41     5     4    1
    42     4     1    1
    43     1     2    2
    44     1     3    1
    45     1    24    1
    46    24    25    1
    47    25    26    2
    48    25    27    1
@<TRIPOS>MOLECULE
UD1
 46 48 0 0 0
SMALL
GASTEIGER

@<TRIPOS>ATOM
      1 P          22.6207   71.7212   -3.1969 P.3     1  UNL1        0.2189
      2 O          23.4498   70.5108   -3.0066 O.2     1  UNL1       -0.5170
      3 O          23.5651   72.9600   -3.6043 O.3     1  UNL1       -0.4371
      4 O          21.8496   72.0638   -1.8255 O.3     1  UNL1       -0.3112
      5 C          22.6526   73.0156   -1.1258 C.3     1  UNL1        0.1811
      6 C          22.5315   73.4291    2.4438 C.3     1  UNL1        0.2383
      7 C          21.1735   72.7769    2.0823 C.3     1  UNL1        0.1895
      8 O          20.7006   71.9553    3.1502 O.3     1  UNL1       -0.3779
      9 C          21.5439   71.9178    0.8454 C.3     1  UNL1        0.1713
     10 C          22.8439   72.5575    0.3209 C.3     1  UNL1        0.1764
     11 O          23.1336   73.6900    1.1581 O.3     1  UNL1       -0.3308
     12 O          21.7666   70.5590    1.2286 O.3     1  UNL1       -0.3794
     13 H          19.8561   71.5814    2.8632 H       1  UNL1        0.2106
     14 H          20.9365   70.2347    1.6026 H       1  UNL1        0.2105
     15 N          22.3286   74.6766    3.1814 N.ar    1  UNL1       -0.2551
     16 C          23.1579   74.9968    4.1899 C.ar    1  UNL1        0.3323
     17 N          22.9974   76.1396    4.8830 N.ar    1  UNL1       -0.2743
     18 C          21.9894   76.9822    4.5799 C.ar    1  UNL1        0.2626
     19 C          21.1054   76.6546    3.5245 C.ar    1  UNL1        0.0795
     20 C          21.2926   75.5045    2.8422 C.ar    1  UNL1        0.0869
     21 O          24.0718   74.2471    4.4751 O.2     1  UNL1       -0.2464
     22 O          21.8405   78.0135    5.2091 O.2     1  UNL1       -0.2670
     23 H          23.6078   76.3570    5.6043 H       1  UNL1        0.1734
     24 O          21.5461   71.4575   -4.3650 O.3     1  UNL1       -0.2703
     25 P          21.4665   72.8076   -5.2368 P.3     1  UNL1        0.2208
     26 O          22.7128   72.9642   -6.0185 O.2     1  UNL1       -0.5170
     27 O          21.2871   74.0712   -4.2554 O.3     1  UNL1       -0.4371
     28 O          20.2105   72.7267   -6.2401 O.3     1  UNL1       -0.2865
     29 C          20.2257   71.4206   -6.8188 C.3     1  UNL1        0.2611
     30 C          20.1868   71.5431   -8.3431 C.3     1  UNL1        0.1582
     31 C          18.9194   72.3017   -8.7528 C.3     1  UNL1        0.1625
     32 C          17.7073   71.6070   -8.1234 C.3     1  UNL1        0.1686
     33 C          17.9320   71.4824   -6.6149 C.3     1  UNL1        0.1760
     34 O          18.7950   72.2927  -10.1761 O.3     1  UNL1       -0.3801
     35 O          16.5315   72.3803   -8.3705 O.3     1  UNL1       -0.3794
     36 O          19.0903   70.6875   -6.3641 O.3     1  UNL1       -0.3263
     37 H          17.9870   72.7796  -10.3890 H       1  UNL1        0.2105
     38 H          15.7944   71.9084   -7.9575 H       1  UNL1        0.2105
     39 C          21.3028   73.6058   -9.0019 C.2     1  UNL1        0.2231
     40 C          22.5186   74.3585   -9.4790 C.3     1  UNL1        0.0946
     41 N          21.3678   72.2748   -8.8061 N.am    1  UNL1       -0.2994
     42 O          20.2655   74.1985   -8.7947 O.2     1  UNL1       -0.2751
     43 H          22.1977   71.8002   -8.9721 H       1  UNL1        0.1496
     44 C          16.7125   70.8188   -5.9720 C.3     1  UNL1        0.1693
     45 O          16.0957   69.9396   -6.9147 O.3     1  UNL1       -0.3794
     46 H          15.3337   69.5434   -6.4708 H       1  UNL1        0.2105
@<TRIPOS>BOND
     1    29    30    1
     2    29    28    1
     3    29    36    1
     4    30    31    1
     5    30    41    1
     6    31    32    1
     7    31    34    1
     8    32    33    1
     9    32    35    1
    10    33    44    1
    11    33    36    1
    12    44    45    1
    13    39    40    1
    14    39    41   am
    15    39    42    2
    16    41    43    1
    17    28    25    1
    18    34    37    1
    19    35    38    1
    20    45    46    1
    21    15    16   ar
    22    15    20   ar
    23    15     6    1
    24    16    17   ar
    25    16    21    2
    26    17    18   ar
    27    17    23    1
    28    18    19   ar
    29    18    22    2
    30    19    20   ar
    31     6     7    1
    32     6    11    1
    33     7     8    1
    34     7     9    1
    35     8    13    1
    36     9    10    1
    37     9    12    1
    38    10    11    1
    39    10     5    1
    40    12    14    1
    41     5     4    1
    42     4     1    1
    43     1     2    2
    44     1     3    1
    45     1    24    1
    46    24    25    1
    47    25    26    2
    48    25    27    1
@<TRIPOS>MOLECULE
UD1
 46 48 0 0 0
SMALL
GASTEIGER

@<TRIPOS>ATOM
      1 P          20.0739   70.6609   -3.6772 P.3     1  UNL1        0.2189
      2 O          21.5154   70.3477   -3.7896 O.2     1  UNL1       -0.5170
      3 O          19.7977   72.1354   -4.2621 O.3     1  UNL1       -0.4371
      4 O          19.6328   70.6073   -2.1295 O.3     1  UNL1       -0.3112
      5 C          19.9762   71.8703   -1.5573 C.3     1  UNL1        0.1811
      6 C          22.5326   72.3913    0.9166 C.3     1  UNL1        0.2383
      7 C          22.0536   70.9371    1.1537 C.3     1  UNL1        0.1895
      8 O          23.1157   70.1243    1.6541 O.3     1  UNL1       -0.3779
      9 C          21.6424   70.4929   -0.2741 C.3     1  UNL1        0.1713
     10 C          21.4093   71.8177   -1.0258 C.3     1  UNL1        0.1764
     11 O          21.6227   72.8868   -0.0884 O.3     1  UNL1       -0.3308
     12 O          22.6925   69.7410   -0.8861 O.3     1  UNL1       -0.3794
     13 H          22.7535   69.2364    1.7801 H       1  UNL1        0.2106
     14 H          22.8308   68.9571   -0.3379 H       1  UNL1        0.2105
     15 N          22.4250   73.1803    2.1443 N.ar    1  UNL1       -0.2551
     16 C          21.4889   72.8678    3.0573 C.ar    1  UNL1        0.3323
     17 N          21.3696   73.5737    4.1973 N.ar    1  UNL1       -0.2743
     18 C          22.1873   74.6183    4.4384 C.ar    1  UNL1        0.2626
     19 C          23.1733   74.9619    3.4831 C.ar    1  UNL1        0.0795
     20 C          23.2745   74.2337    2.3505 C.ar    1  UNL1        0.0869
     21 O          20.7440   71.9283    2.8542 O.2     1  UNL1       -0.2464
     22 O          22.0772   75.2602    5.4666 O.2     1  UNL1       -0.2670
     23 H          20.6919   73.3313    4.8470 H       1  UNL1        0.1734
     24 O          19.2233   69.5822   -4.5150 O.3     1  UNL1       -0.2703
     25 P          17.7226   70.1534   -4.6197 P.3     1  UNL1        0.2208
     26 O          17.2710   70.6009   -3.2839 O.2     1  UNL1       -0.5170
     27 O          16.7426   68.9941   -5.1562 O.3     1  UNL1       -0.4371
     28 O          17.6904   71.3967   -5.6414 O.3     1  UNL1       -0.2865
     29 C          16.3804   71.4316   -6.2105 C.3     1  UNL1        0.2611
     30 C          16.4832   71.7964   -7.6925 C.3     1  UNL1        0.1582
     31 C          17.1679   73.1612   -7.8264 C.3     1  UNL1        0.1625
     32 C          16.4162   74.1741   -6.9562 C.3     1  UNL1        0.1686
     33 C          16.3212   73.6312   -5.5288 C.3     1  UNL1        0.1760
     34 O          17.1359   73.5811   -9.1918 O.3     1  UNL1       -0.3801
     35 O          17.1223   75.4163   -6.9506 O.3     1  UNL1       -0.3794
     36 O          15.5926   72.4041   -5.5273 O.3     1  UNL1       -0.3263
     37 H          17.5762   74.4413   -9.2299 H       1  UNL1        0.2105
     38 H          16.6163   76.0231   -6.3919 H       1  UNL1        0.2105
     39 C          18.5908   70.9694   -8.5916 C.2     1  UNL1        0.2231
     40 C          19.4022   69.9241   -9.3136 C.3     1  UNL1        0.0946
     41 N          17.2719   70.7810   -8.3934 N.am    1  UNL1       -0.2994
     42 O          19.1252   71.9808   -8.1895 O.2     1  UNL1       -0.2751
     43 H          16.8440   69.9718   -8.7153 H       1  UNL1        0.1496
     44 C          15.6004   74.6502   -4.6439 C.3     1  UNL1        0.1693
     45 O          16.5540   75.5578   -4.0879 O.3     1  UNL1       -0.3794
     46 H          16.0598   76.1811   -3.5385 H       1  UNL1        0.2105
@<TRIPOS>BOND
     1    29    30    1
     2    29    28    1
     3    29    36    1
     4    30    31    1
     5    30    41    1
     6    31    32    1
     7    31    34    1
     8    32    33    1
     9    32    35    1
    10    33    44    1
    11    33    36    1
    12    44    45    1
    13    39    40    1
    14    39    41   am
    15    39    42    2
    16    41    43    1
    17    28    25    1
    18    34    37    1
    19    35    38    1
    20    45    46    1
    21    15    16   ar
    22    15    20   ar
    23    15     6    1
    24    16    17   ar
    25    16    21    2
    26    17    18   ar
    27    17    23    1
    28    18    19   ar
    29    18    22    2
    30    19    20   ar
    31     6     7    1
    32     6    11    1
    33     7     8    1
    34     7     9    1
    35     8    13    1
    36     9    10    1
    37     9    12    1
    38    10    11    1
    39    10     5    1
    40    12    14    1
    41     5     4    1
    42     4     1    1
    43     1     2    2
    44     1     3    1
    45     1    24    1
    46    24    25    1
    47    25    26    2
    48    25    27    1
@<TRIPOS>MOLECULE
UD1
 46 48 0 0 0
SMALL
GASTEIGER

@<TRIPOS>ATOM
      1 P          18.3541   70.7431   -3.1236 P.3     1  UNL1        0.2189
      2 O          16.9431   70.3412   -3.3135 O.2     1  UNL1       -0.5170
      3 O          18.4101   72.1834   -2.4060 O.3     1  UNL1       -0.4371
      4 O          19.0843   70.8297   -4.5562 O.3     1  UNL1       -0.3112
      5 C          18.0879   70.5663   -5.5452 C.3     1  UNL1        0.1811
      6 C          19.0444   73.2912   -7.6870 C.3     1  UNL1        0.2383
      7 C          18.5574   72.1867   -8.6581 C.3     1  UNL1        0.1895
      8 O          17.9856   72.7572   -9.8357 O.3     1  UNL1       -0.3779
      9 C          17.4770   71.4632   -7.8129 C.3     1  UNL1        0.1713
     10 C          17.8280   71.8348   -6.3592 C.3     1  UNL1        0.1764
     11 O          19.0163   72.6433   -6.3974 O.3     1  UNL1       -0.3308
     12 O          16.1730   71.9369   -8.1562 O.3     1  UNL1       -0.3794
     13 H          17.7043   72.0205  -10.3957 H       1  UNL1        0.2106
     14 H          16.0370   71.7282   -9.0901 H       1  UNL1        0.2105
     15 N          20.4044   73.7148   -8.0222 N.ar    1  UNL1       -0.2551
     16 C          21.3839   72.7986   -8.1150 C.ar    1  UNL1        0.3323
     17 N          22.6431   73.1591   -8.4256 N.ar    1  UNL1       -0.2743
     18 C          22.9453   74.4554   -8.6409 C.ar    1  UNL1        0.2626
     19 C          21.9250   75.4310   -8.5406 C.ar    1  UNL1        0.0795
     20 C          20.6694   75.0411   -8.2329 C.ar    1  UNL1        0.0869
     21 O          21.1271   71.6255   -7.9237 O.2     1  UNL1       -0.2464
     22 O          24.0844   74.7831   -8.9172 O.2     1  UNL1       -0.2670
     23 H          23.3362   72.4844   -8.4930 H       1  UNL1        0.1734
     24 O          19.1031   69.6552   -2.2047 O.3     1  UNL1       -0.2703
     25 P          20.6114   70.1777   -2.0014 P.3     1  UNL1        0.2208
     26 O          21.4843   69.5786   -3.0348 O.2     1  UNL1       -0.5170
     27 O          21.1367   69.7481   -0.5414 O.3     1  UNL1       -0.4371
     28 O          20.6473   71.7815   -2.1326 O.3     1  UNL1       -0.2865
     29 C          21.9695   72.1962   -1.7849 C.3     1  UNL1        0.2611
     30 C          21.8922   73.2764   -0.7045 C.3     1  UNL1        0.1582
     31 C          21.0762   74.4599   -1.2365 C.3     1  UNL1        0.1625
     32 C          21.6815   74.9130   -2.5693 C.3     1  UNL1        0.1686
     33 C          21.7718   73.7097   -3.5102 C.3     1  UNL1        0.1760
     34 O          21.1222   75.5346   -0.2960 O.3     1  UNL1       -0.3801
     35 O          20.8510   75.9177   -3.1545 O.3     1  UNL1       -0.3794
     36 O          22.6228   72.7155   -2.9411 O.3     1  UNL1       -0.3263
     37 H          20.5972   76.2556   -0.6698 H       1  UNL1        0.2105
     38 H          21.2674   76.1732   -3.9898 H       1  UNL1        0.2105
     39 C          21.7444   72.9955    1.7108 C.2     1  UNL1        0.2231
     40 C          21.0762   72.4324    2.9391 C.3     1  UNL1        0.0946
     41 N          21.2432   72.7300    0.4890 N.am    1  UNL1       -0.2994
     42 O          22.7339   73.6873    1.8222 O.2     1  UNL1       -0.2751
     43 H          20.4515   72.1762    0.3996 H       1  UNL1        0.1496
     44 C          22.3452   74.1581   -4.8561 C.3     1  UNL1        0.1693
     45 O          23.1303   73.1031   -5.4152 O.3     1  UNL1       -0.3794
     46 H          23.4722   73.4261   -6.2598 H       1  UNL1        0.2105
@<TRIPOS>BOND
     1    29    30    1
     2    29    28    1
     3    29    36    1
     4    30    31    1
     5    30    41    1
     6    31    32    1
     7    31    34    1
     8    32    33    1
     9    32    35    1
    10    33    44    1
    11    33    36    1
    12    44    45    1
    13    39    40    1
    14    39    41   am
    15    39    42    2
    16    41    43    1
    17    28    25    1
    18    34    37    1
    19    35    38    1
    20    45    46    1
    21    15    16   ar
    22    15    20   ar
    23    15     6    1
    24    16    17   ar
    25    16    21    2
    26    17    18   ar
    27    17    23    1
    28    18    19   ar
    29    18    22    2
    30    19    20   ar
    31     6     7    1
    32     6    11    1
    33     7     8    1
    34     7     9    1
    35     8    13    1
    36     9    10    1
    37     9    12    1
    38    10    11    1
    39    10     5    1
    40    12    14    1
    41     5     4    1
    42     4     1    1
    43     1     2    2
    44     1     3    1
    45     1    24    1
    46    24    25    1
    47    25    26    2
    48    25    27    1
@<TRIPOS>MOLECULE
UD1
 46 48 0 0 0
SMALL
GASTEIGER

@<TRIPOS>ATOM
      1 P          22.7569   72.0217   -3.2168 P.3     1  UNL1        0.2189
      2 O          23.4724   70.7283   -3.2807 O.2     1  UNL1       -0.5170
      3 O          23.8171   73.2279   -3.3326 O.3     1  UNL1       -0.4371
      4 O          21.9717   72.1313   -1.8153 O.3     1  UNL1       -0.3112
      5 C          22.6359   73.1351   -1.0462 C.3     1  UNL1        0.1811
      6 C          22.6565   73.4287    2.5372 C.3     1  UNL1        0.2383
      7 C          21.2656   72.8328    2.2045 C.3     1  UNL1        0.1895
      8 O          20.8045   71.9902    3.2613 O.3     1  UNL1       -0.3779
      9 C          21.5630   72.0056    0.9269 C.3     1  UNL1        0.1713
     10 C          22.8638   72.6215    0.3763 C.3     1  UNL1        0.1764
     11 O          23.2204   73.7146    1.2396 O.3     1  UNL1       -0.3308
     12 O          21.7543   70.6280    1.2560 O.3     1  UNL1       -0.3794
     13 H          19.9384   71.6534    2.9933 H       1  UNL1        0.2106
     14 H          20.9279   70.3174    1.6494 H       1  UNL1        0.2105
     15 N          22.5213   74.6558    3.3229 N.ar    1  UNL1       -0.2551
     16 C          23.3731   74.8963    4.3348 C.ar    1  UNL1        0.3323
     17 N          23.2748   76.0185    5.0718 N.ar    1  UNL1       -0.2743
     18 C          22.3076   76.9207    4.8102 C.ar    1  UNL1        0.2626
     19 C          21.4003   76.6772    3.7516 C.ar    1  UNL1        0.0795
     20 C          21.5250   75.5460    3.0249 C.ar    1  UNL1        0.0869
     21 O          24.2509   74.0922    4.5830 O.2     1  UNL1       -0.2464
     22 O          22.2148   77.9334    5.4790 O.2     1  UNL1       -0.2670
     23 H          23.9008   76.1780    5.7950 H       1  UNL1        0.1734
     24 O          21.7040   72.1130   -4.4301 O.3     1  UNL1       -0.2703
     25 P          20.3601   71.3788   -3.9356 P.3     1  UNL1        0.2208
     26 O          19.7241   72.1814   -2.8679 O.2     1  UNL1       -0.5170
     27 O          20.7248   69.9188   -3.3635 O.3     1  UNL1       -0.4371
     28 O          19.3421   71.2297   -5.1733 O.3     1  UNL1       -0.2865
     29 C          19.3015   72.4970   -5.8316 C.3     1  UNL1        0.2611
     30 C          17.8519   72.9792   -5.9101 C.3     1  UNL1        0.1582
     31 C          17.0203   71.9444   -6.6764 C.3     1  UNL1        0.1625
     32 C          17.6929   71.6783   -8.0273 C.3     1  UNL1        0.1686
     33 C          19.1539   71.2913   -7.7889 C.3     1  UNL1        0.1760
     34 O          15.7008   72.4509   -6.8862 O.3     1  UNL1       -0.3801
     35 O          17.0173   70.6113   -8.6956 O.3     1  UNL1       -0.3794
     36 O          19.8386   72.3657   -7.1460 O.3     1  UNL1       -0.3263
     37 H          15.2137   71.7697   -7.3700 H       1  UNL1        0.2105
     38 H          17.4725   70.4766   -9.5389 H       1  UNL1        0.2105
     39 C          16.6024   72.1406   -3.9943 C.2     1  UNL1        0.2231
     40 C          16.0484   72.3030   -2.6018 C.3     1  UNL1        0.0946
     41 N          17.3139   73.1362   -4.5572 N.am    1  UNL1       -0.2994
     42 O          16.4070   71.1136   -4.6086 O.2     1  UNL1       -0.2751
     43 H          17.4703   73.9582   -4.0659 H       1  UNL1        0.1496
     44 C          19.8263   70.9917   -9.1303 C.3     1  UNL1        0.1693
     45 O          19.0467   71.5504  -10.1896 O.3     1  UNL1       -0.3794
     46 H          19.5039   71.3393  -11.0149 H       1  UNL1        0.2105
@<TRIPOS>BOND
     1    29    30    1
     2    29    28    1
     3    29    36    1
     4    30    31    1
     5    30    41    1
     6    31    32    1
     7    31    34    1
     8    32    33    1
     9    32    35    1
    10    33    44    1
    11    33    36    1
    12    44    45    1
    13    39    40    1
    14    39    41   am
    15    39    42    2
    16    41    43    1
    17    28    25    1
    18    34    37    1
    19    35    38    1
    20    45    46    1
    21    15    16   ar
    22    15    20   ar
    23    15     6    1
    24    16    17   ar
    25    16    21    2
    26    17    18   ar
    27    17    23    1
    28    18    19   ar
    29    18    22    2
    30    19    20   ar
    31     6     7    1
    32     6    11    1
    33     7     8    1
    34     7     9    1
    35     8    13    1
    36     9    10    1
    37     9    12    1
    38    10    11    1
    39    10     5    1
    40    12    14    1
    41     5     4    1
    42     4     1    1
    43     1     2    2
    44     1     3    1
    45     1    24    1
    46    24    25    1
    47    25    26    2
    48    25    27    1
@<TRIPOS>MOLECULE
UD1
 46 48 0 0 0
SMALL
GASTEIGER

@<TRIPOS>ATOM
      1 P          19.4551   69.6858   -2.9639 P.3     1  UNL1        0.2189
      2 O          18.3034   68.8791   -2.5039 O.2     1  UNL1       -0.5170
      3 O          20.8230   68.8973   -2.6480 O.3     1  UNL1       -0.4371
      4 O          19.4615   71.0995   -2.1930 O.3     1  UNL1       -0.3112
      5 C          20.7170   71.1977   -1.5189 C.3     1  UNL1        0.1811
      6 C          21.6174   73.7996    0.7935 C.3     1  UNL1        0.2383
      7 C          22.9424   73.4444    0.0735 C.3     1  UNL1        0.1895
      8 O          23.7970   74.5850   -0.0161 O.3     1  UNL1       -0.3779
      9 C          22.4448   73.0141   -1.3309 C.3     1  UNL1        0.1713
     10 C          20.9641   72.6501   -1.1081 C.3     1  UNL1        0.1764
     11 O          20.6871   72.8158    0.2930 O.3     1  UNL1       -0.3308
     12 O          22.5669   74.0951   -2.2579 O.3     1  UNL1       -0.3794
     13 H          24.6005   74.2979   -0.4717 H       1  UNL1        0.2106
     14 H          23.5067   74.3149   -2.3083 H       1  UNL1        0.2105
     15 N          21.7658   73.6785    2.2442 N.ar    1  UNL1       -0.2551
     16 C          21.6976   72.4666    2.8221 C.ar    1  UNL1        0.3323
     17 N          21.8345   72.3250    4.1538 N.ar    1  UNL1       -0.2743
     18 C          22.0346   73.4055    4.9350 C.ar    1  UNL1        0.2626
     19 C          22.1026   74.6880    4.3404 C.ar    1  UNL1        0.0795
     20 C          21.9672   74.8008    3.0016 C.ar    1  UNL1        0.0869
     21 O          21.5177   71.4824    2.1309 O.2     1  UNL1       -0.2464
     22 O          22.1538   73.2792    6.1397 O.2     1  UNL1       -0.2670
     23 H          21.7873   71.4427    4.5533 H       1  UNL1        0.1734
     24 O          19.3343   69.9393   -4.5482 O.3     1  UNL1       -0.2703
     25 P          17.8772   70.5705   -4.8082 P.3     1  UNL1        0.2208
     26 O          17.4421   71.3177   -3.6076 O.2     1  UNL1       -0.5170
     27 O          16.8267   69.3894   -5.1142 O.3     1  UNL1       -0.4371
     28 O          17.9409   71.5699   -6.0682 O.3     1  UNL1       -0.2865
     29 C          19.3171   71.8970   -6.2686 C.3     1  UNL1        0.2611
     30 C          19.4316   73.3630   -6.6902 C.3     1  UNL1        0.1582
     31 C          18.6310   73.5777   -7.9796 C.3     1  UNL1        0.1625
     32 C          19.1021   72.5603   -9.0241 C.3     1  UNL1        0.1686
     33 C          19.0096   71.1543   -8.4274 C.3     1  UNL1        0.1760
     34 O          18.8510   74.9036   -8.4646 O.3     1  UNL1       -0.3801
     35 O          18.2703   72.6449  -10.1828 O.3     1  UNL1       -0.3794
     36 O          19.8604   71.0582   -7.2857 O.3     1  UNL1       -0.3263
     37 H          18.3298   74.9950   -9.2741 H       1  UNL1        0.2105
     38 H          18.6005   71.9887  -10.8127 H       1  UNL1        0.2105
     39 C          17.6086   74.6170   -5.6711 C.2     1  UNL1        0.2231
     40 C          17.0571   75.5002   -4.5810 C.3     1  UNL1        0.0946
     41 N          18.8953   74.2206   -5.6312 N.am    1  UNL1       -0.2994
     42 O          16.8940   74.2637   -6.5847 O.2     1  UNL1       -0.2751
     43 H          19.4674   74.5034   -4.9003 H       1  UNL1        0.1496
     44 C          19.4472   70.1276   -9.4740 C.3     1  UNL1        0.1693
     45 O          18.3910   69.9267  -10.4155 O.3     1  UNL1       -0.3794
     46 H          18.7069   69.2745  -11.0554 H       1  UNL1        0.2105
@<TRIPOS>BOND
     1    29    30    1
     2    29    28    1
     3    29    36    1
     4    30    31    1
     5    30    41    1
     6    31    32    1
     7    31    34    1
     8    32    33    1
     9    32    35    1
    10    33    44    1
    11    33    36    1
    12    44    45    1
    13    39    40    1
    14    39    41   am
    15    39    42    2
    16    41    43    1
    17    28    25    1
    18    34    37    1
    19    35    38    1
    20    45    46    1
    21    15    16   ar
    22    15    20   ar
    23    15     6    1
    24    16    17   ar
    25    16    21    2
    26    17    18   ar
    27    17    23    1
    28    18    19   ar
    29    18    22    2
    30    19    20   ar
    31     6     7    1
    32     6    11    1
    33     7     8    1
    34     7     9    1
    35     8    13    1
    36     9    10    1
    37     9    12    1
    38    10    11    1
    39    10     5    1
    40    12    14    1
    41     5     4    1
    42     4     1    1
    43     1     2    2
    44     1     3    1
    45     1    24    1
    46    24    25    1
    47    25    26    2
    48    25    27    1
@<TRIPOS>MOLECULE
UD1
 46 48 0 0 0
SMALL
GASTEIGER

@<TRIPOS>ATOM
      1 P          21.9204   71.4846   -3.4118 P.3     1  UNL1        0.2189
      2 O          23.3873   71.6762   -3.3949 O.2     1  UNL1       -0.5170
      3 O          21.3029   72.1841   -4.7240 O.3     1  UNL1       -0.4371
      4 O          21.2773   72.1529   -2.0955 O.3     1  UNL1       -0.3112
      5 C          22.2965   72.9566   -1.4993 C.3     1  UNL1        0.1811
      6 C          22.7396   73.1742    2.0621 C.3     1  UNL1        0.2383
      7 C          21.2807   72.6850    1.8816 C.3     1  UNL1        0.1895
      8 O          20.8811   71.8555    2.9731 O.3     1  UNL1       -0.3779
      9 C          21.3723   71.8653    0.5683 C.3     1  UNL1        0.1713
     10 C          22.6444   72.3991   -0.1183 C.3     1  UNL1        0.1764
     11 O          23.1738   73.4462    0.7126 O.3     1  UNL1       -0.3308
     12 O          21.4990   70.4711    0.8564 O.3     1  UNL1       -0.3794
     13 H          19.9682   71.5862    2.8008 H       1  UNL1        0.2106
     14 H          20.7015   70.2117    1.3369 H       1  UNL1        0.2105
     15 N          22.7826   74.3913    2.8734 N.ar    1  UNL1       -0.2551
     16 C          22.1690   75.5050    2.4370 C.ar    1  UNL1        0.3323
     17 N          22.1890   76.6377    3.1642 N.ar    1  UNL1       -0.2743
     18 C          22.8373   76.6752    4.3458 C.ar    1  UNL1        0.2626
     19 C          23.4926   75.5116    4.8144 C.ar    1  UNL1        0.0795
     20 C          23.4523   74.3875    4.0673 C.ar    1  UNL1        0.0869
     21 O          21.5800   75.4869    1.3733 O.2     1  UNL1       -0.2464
     22 O          22.8600   77.7001    5.0019 O.2     1  UNL1       -0.2670
     23 H          21.7369   77.4304    2.8363 H       1  UNL1        0.1734
     24 O          21.5849   69.9111   -3.4330 O.3     1  UNL1       -0.2703
     25 P          20.0280   69.7626   -3.0546 P.3     1  UNL1        0.2208
     26 O          19.8826   69.6908   -1.5840 O.2     1  UNL1       -0.5170
     27 O          19.4396   68.4185   -3.7175 O.3     1  UNL1       -0.4371
     28 O          19.2151   71.0347   -3.6126 O.3     1  UNL1       -0.2865
     29 C          18.0350   70.5298   -4.2400 C.3     1  UNL1        0.2611
     30 C          17.8384   71.2315   -5.5850 C.3     1  UNL1        0.1582
     31 C          17.7224   72.7418   -5.3502 C.3     1  UNL1        0.1625
     32 C          16.6202   72.9939   -4.3160 C.3     1  UNL1        0.1686
     33 C          16.9104   72.1614   -3.0653 C.3     1  UNL1        0.1760
     34 O          17.3900   73.3931   -6.5776 O.3     1  UNL1       -0.3801
     35 O          16.5945   74.3808   -3.9733 O.3     1  UNL1       -0.3794
     36 O          16.9097   70.7739   -3.3989 O.3     1  UNL1       -0.3263
     37 H          17.3276   74.3386   -6.3843 H       1  UNL1        0.2105
     38 H          15.8887   74.4947   -3.3210 H       1  UNL1        0.2105
     39 C          18.7953   70.7119   -7.7641 C.2     1  UNL1        0.2231
     40 C          19.9760   70.4285   -8.6573 C.3     1  UNL1        0.0946
     41 N          18.9851   70.9566   -6.4532 N.am    1  UNL1       -0.2994
     42 O          17.6740   70.7191   -8.2254 O.2     1  UNL1       -0.2751
     43 H          19.8823   70.9507   -6.0838 H       1  UNL1        0.1496
     44 C          15.8325   72.4308   -2.0134 C.3     1  UNL1        0.1693
     45 O          14.9897   71.2834   -1.8897 O.3     1  UNL1       -0.3794
     46 H          14.3261   71.4946   -1.2191 H       1  UNL1        0.2105
@<TRIPOS>BOND
     1    29    30    1
     2    29    28    1
     3    29    36    1
     4    30    31    1
     5    30    41    1
     6    31    32    1
     7    31    34    1
     8    32    33    1
     9    32    35    1
    10    33    44    1
    11    33    36    1
    12    44    45    1
    13    39    40    1
    14    39    41   am
    15    39    42    2
    16    41    43    1
    17    28    25    1
    18    34    37    1
    19    35    38    1
    20    45    46    1
    21    15    16   ar
    22    15    20   ar
    23    15     6    1
    24    16    17   ar
    25    16    21    2
    26    17    18   ar
    27    17    23    1
    28    18    19   ar
    29    18    22    2
    30    19    20   ar
    31     6     7    1
    32     6    11    1
    33     7     8    1
    34     7     9    1
    35     8    13    1
    36     9    10    1
    37     9    12    1
    38    10    11    1
    39    10     5    1
    40    12    14    1
    41     5     4    1
    42     4     1    1
    43     1     2    2
    44     1     3    1
    45     1    24    1
    46    24    25    1
    47    25    26    2
    48    25    27    1
@<TRIPOS>MOLECULE
UD1
 46 48 0 0 0
SMALL
GASTEIGER

@<TRIPOS>ATOM
      1 P          19.0382   70.2140   -3.1940 P.3     1  UNL1        0.2189
      2 O          18.4134   71.5284   -2.9282 O.2     1  UNL1       -0.5170
      3 O          18.3706   69.1001   -2.2421 O.3     1  UNL1       -0.4371
      4 O          20.6175   70.3001   -2.8916 O.3     1  UNL1       -0.3112
      5 C          20.7590   70.5037   -1.4849 C.3     1  UNL1        0.1811
      6 C          21.6003   73.3162    0.5910 C.3     1  UNL1        0.2383
      7 C          22.9349   72.9244   -0.0913 C.3     1  UNL1        0.1895
      8 O          23.7682   74.0687   -0.2790 O.3     1  UNL1       -0.3779
      9 C          22.4515   72.3624   -1.4535 C.3     1  UNL1        0.1713
     10 C          20.9770   71.9912   -1.2033 C.3     1  UNL1        0.1764
     11 O          20.6909   72.2745    0.1769 O.3     1  UNL1       -0.3308
     12 O          22.5572   73.3595   -2.4720 O.3     1  UNL1       -0.3794
     13 H          24.5789   73.7580   -0.7053 H       1  UNL1        0.2106
     14 H          23.4929   73.5920   -2.5392 H       1  UNL1        0.2105
     15 N          21.7448   73.3264    2.0472 N.ar    1  UNL1       -0.2551
     16 C          21.8328   72.1637    2.7162 C.ar    1  UNL1        0.3323
     17 N          21.9702   72.1431    4.0552 N.ar    1  UNL1       -0.2743
     18 C          22.0127   73.2968    4.7517 C.ar    1  UNL1        0.2626
     19 C          21.9151   74.5279    4.0606 C.ar    1  UNL1        0.0795
     20 C          21.7833   74.5197    2.7168 C.ar    1  UNL1        0.0869
     21 O          21.7961   71.1148    2.1021 O.2     1  UNL1       -0.2464
     22 O          22.1321   73.2792    5.9629 O.2     1  UNL1       -0.2670
     23 H          22.0370   71.2953    4.5210 H       1  UNL1        0.1734
     24 O          18.8083   69.8121   -4.7349 O.3     1  UNL1       -0.2703
     25 P          19.3852   71.0240   -5.6225 P.3     1  UNL1        0.2208
     26 O          19.9840   70.4850   -6.8634 O.2     1  UNL1       -0.5170
     27 O          20.5095   71.8157   -4.7849 O.3     1  UNL1       -0.4371
     28 O          18.1886   72.0327   -5.9984 O.3     1  UNL1       -0.2865
     29 C          17.0369   71.2295   -6.2622 C.3     1  UNL1        0.2611
     30 C          16.5266   71.5264   -7.6733 C.3     1  UNL1        0.1582
     31 C          16.1828   73.0165   -7.7788 C.3     1  UNL1        0.1625
     32 C          15.2158   73.3777   -6.6462 C.3     1  UNL1        0.1686
     33 C          15.8266   72.9438   -5.3121 C.3     1  UNL1        0.1760
     34 O          15.5661   73.2775   -9.0409 O.3     1  UNL1       -0.3801
     35 O          14.9972   74.7897   -6.6366 O.3     1  UNL1       -0.3794
     36 O          16.0209   71.5300   -5.3079 O.3     1  UNL1       -0.3263
     37 H          15.3675   74.2237   -9.0645 H       1  UNL1        0.2105
     38 H          14.3851   74.9731   -5.9099 H       1  UNL1        0.2105
     39 C          18.4101   72.1449   -9.0891 C.2     1  UNL1        0.2231
     40 C          19.4785   71.8004  -10.0951 C.3     1  UNL1        0.0946
     41 N          17.5650   71.1922   -8.6503 N.am    1  UNL1       -0.2994
     42 O          18.3107   73.2801   -8.6749 O.2     1  UNL1       -0.2751
     43 H          17.6441   70.2837   -8.9818 H       1  UNL1        0.1496
     44 C          14.8829   73.3295   -4.1711 C.3     1  UNL1        0.1693
     45 O          14.6862   72.2033   -3.3138 O.3     1  UNL1       -0.3794
     46 H          14.0871   72.4882   -2.6106 H       1  UNL1        0.2105
@<TRIPOS>BOND
     1    29    30    1
     2    29    28    1
     3    29    36    1
     4    30    31    1
     5    30    41    1
     6    31    32    1
     7    31    34    1
     8    32    33    1
     9    32    35    1
    10    33    44    1
    11    33    36    1
    12    44    45    1
    13    39    40    1
    14    39    41   am
    15    39    42    2
    16    41    43    1
    17    28    25    1
    18    34    37    1
    19    35    38    1
    20    45    46    1
    21    15    16   ar
    22    15    20   ar
    23    15     6    1
    24    16    17   ar
    25    16    21    2
    26    17    18   ar
    27    17    23    1
    28    18    19   ar
    29    18    22    2
    30    19    20   ar
    31     6     7    1
    32     6    11    1
    33     7     8    1
    34     7     9    1
    35     8    13    1
    36     9    10    1
    37     9    12    1
    38    10    11    1
    39    10     5    1
    40    12    14    1
    41     5     4    1
    42     4     1    1
    43     1     2    2
    44     1     3    1
    45     1    24    1
    46    24    25    1
    47    25    26    2
    48    25    27    1
@<TRIPOS>MOLECULE
UD1
 46 48 0 0 0
SMALL
GASTEIGER

@<TRIPOS>ATOM
      1 P          17.9590   71.8748   -2.6461 P.3     1  UNL1        0.2189
      2 O          16.7333   72.2923   -1.9305 O.2     1  UNL1       -0.5170
      3 O          17.9500   70.2762   -2.8385 O.3     1  UNL1       -0.4371
      4 O          19.2528   72.3038   -1.7888 O.3     1  UNL1       -0.3112
      5 C          20.1874   72.8731   -2.7068 C.3     1  UNL1        0.1811
      6 C          22.6623   72.3497   -0.1517 C.3     1  UNL1        0.2383
      7 C          22.2554   70.9224   -0.5962 C.3     1  UNL1        0.1895
      8 O          23.3482   70.0134   -0.4594 O.3     1  UNL1       -0.3779
      9 C          21.8970   71.1362   -2.0898 C.3     1  UNL1        0.1713
     10 C          21.6103   72.6467   -2.1935 C.3     1  UNL1        0.1764
     11 O          21.7483   73.2017   -0.8744 O.3     1  UNL1       -0.3308
     12 O          22.9973   70.7708   -2.9256 O.3     1  UNL1       -0.3794
     13 H          23.0304   69.1475   -0.7505 H       1  UNL1        0.2106
     14 H          23.1653   69.8316   -2.7713 H       1  UNL1        0.2105
     15 N          22.4886   72.5134    1.2920 N.ar    1  UNL1       -0.2551
     16 C          22.0689   71.4744    2.0347 C.ar    1  UNL1        0.3323
     17 N          21.9041   71.5952    3.3653 N.ar    1  UNL1       -0.2743
     18 C          22.1505   72.7715    3.9765 C.ar    1  UNL1        0.2626
     19 C          22.5872   73.8752    3.2057 C.ar    1  UNL1        0.0795
     20 C          22.7493   73.7248    1.8737 C.ar    1  UNL1        0.0869
     21 O          21.8426   70.4069    1.4980 O.2     1  UNL1       -0.2464
     22 O          21.9973   72.8832    5.1787 O.2     1  UNL1       -0.2670
     23 H          21.6052   70.8339    3.8862 H       1  UNL1        0.1734
     24 O          18.0091   72.5894   -4.0868 O.3     1  UNL1       -0.2703
     25 P          16.7873   71.9903   -4.9457 P.3     1  UNL1        0.2208
     26 O          15.5297   72.6605   -4.5480 O.2     1  UNL1       -0.5170
     27 O          16.6619   70.4089   -4.6709 O.3     1  UNL1       -0.4371
     28 O          17.0570   72.2415   -6.5124 O.3     1  UNL1       -0.2865
     29 C          18.0053   73.3061   -6.6043 C.3     1  UNL1        0.2611
     30 C          17.5683   74.2785   -7.7013 C.3     1  UNL1        0.1582
     31 C          17.4723   73.5230   -9.0316 C.3     1  UNL1        0.1625
     32 C          18.8035   72.8081   -9.2864 C.3     1  UNL1        0.1686
     33 C          19.1458   71.9441   -8.0707 C.3     1  UNL1        0.1760
     34 O          17.2113   74.4473  -10.0894 O.3     1  UNL1       -0.3801
     35 O          18.6874   71.9804  -10.4452 O.3     1  UNL1       -0.3794
     36 O          19.2896   72.7711   -6.9166 O.3     1  UNL1       -0.3263
     37 H          17.1586   73.9306  -10.9053 H       1  UNL1        0.2105
     38 H          19.5451   71.5495  -10.5684 H       1  UNL1        0.2105
     39 C          15.1339   74.2342   -7.7793 C.2     1  UNL1        0.2231
     40 C          13.7879   74.8166   -7.4308 C.3     1  UNL1        0.0946
     41 N          16.2605   74.8436   -7.3627 N.am    1  UNL1       -0.2994
     42 O          15.2029   73.2169   -8.4356 O.2     1  UNL1       -0.2751
     43 H          16.2056   75.6578   -6.8376 H       1  UNL1        0.1496
     44 C          20.4579   71.2003   -8.3284 C.3     1  UNL1        0.1693
     45 O          20.1736   69.8754   -8.7823 O.3     1  UNL1       -0.3794
     46 H          21.0249   69.4423   -8.9322 H       1  UNL1        0.2105
@<TRIPOS>BOND
     1    29    30    1
     2    29    28    1
     3    29    36    1
     4    30    31    1
     5    30    41    1
     6    31    32    1
     7    31    34    1
     8    32    33    1
     9    32    35    1
    10    33    44    1
    11    33    36    1
    12    44    45    1
    13    39    40    1
    14    39    41   am
    15    39    42    2
    16    41    43    1
    17    28    25    1
    18    34    37    1
    19    35    38    1
    20    45    46    1
    21    15    16   ar
    22    15    20   ar
    23    15     6    1
    24    16    17   ar
    25    16    21    2
    26    17    18   ar
    27    17    23    1
    28    18    19   ar
    29    18    22    2
    30    19    20   ar
    31     6     7    1
    32     6    11    1
    33     7     8    1
    34     7     9    1
    35     8    13    1
    36     9    10    1
    37     9    12    1
    38    10    11    1
    39    10     5    1
    40    12    14    1
    41     5     4    1
    42     4     1    1
    43     1     2    2
    44     1     3    1
    45     1    24    1
    46    24    25    1
    47    25    26    2
    48    25    27    1
@<TRIPOS>MOLECULE
UD1
 46 48 0 0 0
SMALL
GASTEIGER

@<TRIPOS>ATOM
      1 P          22.7458   73.5017   -4.5662 P.3     1  UNL1        0.2189
      2 O          23.9452   72.7473   -4.1407 O.2     1  UNL1       -0.5170
      3 O          23.1377   74.4995   -5.7677 O.3     1  UNL1       -0.4371
      4 O          22.1808   74.3556   -3.3235 O.3     1  UNL1       -0.3112
      5 C          21.3352   73.4832   -2.5723 C.3     1  UNL1        0.1811
      6 C          22.1548   72.2812    0.7157 C.3     1  UNL1        0.2383
      7 C          21.2781   71.1618    0.1005 C.3     1  UNL1        0.1895
      8 O          21.6490   69.8818    0.6137 O.3     1  UNL1       -0.3779
      9 C          21.6191   71.2731   -1.4083 C.3     1  UNL1        0.1713
     10 C          22.1762   72.7016   -1.5618 C.3     1  UNL1        0.1764
     11 O          22.1019   73.3326   -0.2719 O.3     1  UNL1       -0.3308
     12 O          22.6042   70.3033   -1.7715 O.3     1  UNL1       -0.3794
     13 H          21.0682   69.2325    0.1935 H       1  UNL1        0.2106
     14 H          22.2183   69.4345   -1.5971 H       1  UNL1        0.2105
     15 N          21.5952   72.7393    1.9878 N.ar    1  UNL1       -0.2551
     16 C          21.9947   72.1663    3.1364 C.ar    1  UNL1        0.3323
     17 N          21.4997   72.5702    4.3214 N.ar    1  UNL1       -0.2743
     18 C          20.5821   73.5566    4.3738 C.ar    1  UNL1        0.2626
     19 C          20.1483   74.1646    3.1717 C.ar    1  UNL1        0.0795
     20 C          20.6651   73.7437    1.9973 C.ar    1  UNL1        0.0869
     21 O          22.8217   71.2753    3.1055 O.2     1  UNL1       -0.2464
     22 O          20.1304   73.9193    5.4442 O.2     1  UNL1       -0.2670
     23 H          21.8028   72.1488    5.1404 H       1  UNL1        0.1734
     24 O          21.6151   72.4731   -5.0687 O.3     1  UNL1       -0.2703
     25 P          21.0711   73.0316   -6.4763 P.3     1  UNL1        0.2208
     26 O          22.0916   72.8070   -7.5236 O.2     1  UNL1       -0.5170
     27 O          20.7717   74.6085   -6.3492 O.3     1  UNL1       -0.4371
     28 O          19.7157   72.2599   -6.8736 O.3     1  UNL1       -0.2865
     29 C          18.7324   72.6224   -5.9026 C.3     1  UNL1        0.2611
     30 C          18.0210   71.3614   -5.4090 C.3     1  UNL1        0.1582
     31 C          17.3682   70.6546   -6.6023 C.3     1  UNL1        0.1625
     32 C          16.4771   71.6597   -7.3397 C.3     1  UNL1        0.1686
     33 C          17.3059   72.8972   -7.6903 C.3     1  UNL1        0.1760
     34 O          16.5771   69.5600   -6.1362 O.3     1  UNL1       -0.3801
     35 O          15.9746   71.0642   -8.5374 O.3     1  UNL1       -0.3794
     36 O          17.7865   73.5102   -6.4946 O.3     1  UNL1       -0.3263
     37 H          16.1865   69.1449   -6.9176 H       1  UNL1        0.2105
     38 H          15.4208   71.7297   -8.9697 H       1  UNL1        0.2105
     39 C          18.6402   69.7357   -3.7037 C.2     1  UNL1        0.2231
     40 C          19.6413   68.8135   -3.0559 C.3     1  UNL1        0.0946
     41 N          18.9931   70.4650   -4.7797 N.am    1  UNL1       -0.2994
     42 O          17.5167   69.8217   -3.2557 O.2     1  UNL1       -0.2751
     43 H          19.8921   70.3965   -5.1383 H       1  UNL1        0.1496
     44 C          16.4332   73.8938   -8.4559 C.3     1  UNL1        0.1693
     45 O          15.1880   73.2780   -8.7910 O.3     1  UNL1       -0.3794
     46 H          14.6698   73.9379   -9.2713 H       1  UNL1        0.2105
@<TRIPOS>BOND
     1    29    30    1
     2    29    28    1
     3    29    36    1
     4    30    31    1
     5    30    41    1
     6    31    32    1
     7    31    34    1
     8    32    33    1
     9    32    35    1
    10    33    44    1
    11    33    36    1
    12    44    45    1
    13    39    40    1
    14    39    41   am
    15    39    42    2
    16    41    43    1
    17    28    25    1
    18    34    37    1
    19    35    38    1
    20    45    46    1
    21    15    16   ar
    22    15    20   ar
    23    15     6    1
    24    16    17   ar
    25    16    21    2
    26    17    18   ar
    27    17    23    1
    28    18    19   ar
    29    18    22    2
    30    19    20   ar
    31     6     7    1
    32     6    11    1
    33     7     8    1
    34     7     9    1
    35     8    13    1
    36     9    10    1
    37     9    12    1
    38    10    11    1
    39    10     5    1
    40    12    14    1
    41     5     4    1
    42     4     1    1
    43     1     2    2
    44     1     3    1
    45     1    24    1
    46    24    25    1
    47    25    26    2
    48    25    27    1
@<TRIPOS>MOLECULE
UD1
 46 48 0 0 0
SMALL
GASTEIGER

@<TRIPOS>ATOM
      1 P          17.0336   71.8522   -3.2465 P.3     1  UNL1        0.2189
      2 O          17.1317   73.2636   -3.6789 O.2     1  UNL1       -0.5170
      3 O          16.2806   71.7773   -1.8253 O.3     1  UNL1       -0.4371
      4 O          18.5125   71.2316   -3.1026 O.3     1  UNL1       -0.3112
      5 C          19.3981   72.3251   -2.8568 C.3     1  UNL1        0.1811
      6 C          22.2052   71.6419   -0.7166 C.3     1  UNL1        0.2383
      7 C          21.3536   70.3488   -0.6645 C.3     1  UNL1        0.1895
      8 O          22.1791   69.2008   -0.4643 O.3     1  UNL1       -0.3779
      9 C          20.7079   70.3270   -2.0743 C.3     1  UNL1        0.1713
     10 C          20.7976   71.7900   -2.5498 C.3     1  UNL1        0.1764
     11 O          21.3897   72.5525   -1.4843 O.3     1  UNL1       -0.3308
     12 O          21.4409   69.4647   -2.9471 O.3     1  UNL1       -0.3794
     13 H          21.5909   68.4334   -0.4409 H       1  UNL1        0.2106
     14 H          21.3974   68.5781   -2.5650 H       1  UNL1        0.2105
     15 N          22.4366   72.1661    0.6299 N.ar    1  UNL1       -0.2551
     16 C          22.4326   71.3279    1.6810 C.ar    1  UNL1        0.3323
     17 N          22.6465   71.7817    2.9302 N.ar    1  UNL1       -0.2743
     18 C          22.8605   73.0949    3.1488 C.ar    1  UNL1        0.2626
     19 C          22.8614   73.9892    2.0520 C.ar    1  UNL1        0.0795
     20 C          22.6495   73.5064    0.8089 C.ar    1  UNL1        0.0869
     21 O          22.2412   70.1408    1.5000 O.2     1  UNL1       -0.2464
     22 O          23.0492   73.5069    4.2784 O.2     1  UNL1       -0.2670
     23 H          22.6449   71.1622    3.6762 H       1  UNL1        0.1734
     24 O          16.2036   71.0125   -4.3396 O.3     1  UNL1       -0.2703
     25 P          17.2361   70.6276   -5.5123 P.3     1  UNL1        0.2208
     26 O          16.5636   69.7460   -6.4917 O.2     1  UNL1       -0.5170
     27 O          18.5033   69.8601   -4.8820 O.3     1  UNL1       -0.4371
     28 O          17.7351   71.9678   -6.2508 O.3     1  UNL1       -0.2865
     29 C          19.1348   71.8119   -6.4911 C.3     1  UNL1        0.2611
     30 C          19.7219   73.1504   -6.9426 C.3     1  UNL1        0.1582
     31 C          19.0021   73.6094   -8.2157 C.3     1  UNL1        0.1625
     32 C          19.0735   72.4832   -9.2524 C.3     1  UNL1        0.1686
     33 C          18.5324   71.1956   -8.6274 C.3     1  UNL1        0.1760
     34 O          19.6396   74.7799   -8.7306 O.3     1  UNL1       -0.3801
     35 O          18.2845   72.8315  -10.3916 O.3     1  UNL1       -0.3794
     36 O          19.3350   70.8299   -7.5055 O.3     1  UNL1       -0.3263
     37 H          19.1557   75.0334   -9.5286 H       1  UNL1        0.2105
     38 H          18.3568   72.0967  -11.0171 H       1  UNL1        0.2105
     39 C          18.4895   74.9948   -5.9360 C.2     1  UNL1        0.2231
     40 C          18.2986   76.0220   -4.8493 C.3     1  UNL1        0.0946
     41 N          19.5358   74.1480   -5.8870 N.am    1  UNL1       -0.2994
     42 O          17.7013   74.9311   -6.8552 O.2     1  UNL1       -0.2751
     43 H          20.1668   74.1990   -5.1516 H       1  UNL1        0.1496
     44 C          18.5692   70.0719   -9.6652 C.3     1  UNL1        0.1693
     45 O          19.4838   70.4157  -10.7080 O.3     1  UNL1       -0.3794
     46 H          19.4767   69.6834  -11.3392 H       1  UNL1        0.2105
@<TRIPOS>BOND
     1    29    30    1
     2    29    28    1
     3    29    36    1
     4    30    31    1
     5    30    41    1
     6    31    32    1
     7    31    34    1
     8    32    33    1
     9    32    35    1
    10    33    44    1
    11    33    36    1
    12    44    45    1
    13    39    40    1
    14    39    41   am
    15    39    42    2
    16    41    43    1
    17    28    25    1
    18    34    37    1
    19    35    38    1
    20    45    46    1
    21    15    16   ar
    22    15    20   ar
    23    15     6    1
    24    16    17   ar
    25    16    21    2
    26    17    18   ar
    27    17    23    1
    28    18    19   ar
    29    18    22    2
    30    19    20   ar
    31     6     7    1
    32     6    11    1
    33     7     8    1
    34     7     9    1
    35     8    13    1
    36     9    10    1
    37     9    12    1
    38    10    11    1
    39    10     5    1
    40    12    14    1
    41     5     4    1
    42     4     1    1
    43     1     2    2
    44     1     3    1
    45     1    24    1
    46    24    25    1
    47    25    26    2
    48    25    27    1
@<TRIPOS>MOLECULE
UD1
 46 48 0 0 0
SMALL
GASTEIGER

@<TRIPOS>ATOM
      1 P          18.9777   74.1577   -1.8121 P.3     1  UNL1        0.2189
      2 O          18.7904   75.0731   -0.6650 O.2     1  UNL1       -0.5170
      3 O          17.9448   72.9284   -1.6921 O.3     1  UNL1       -0.4371
      4 O          20.4856   73.5928   -1.8065 O.3     1  UNL1       -0.3112
      5 C          20.5036   72.4699   -0.9239 C.3     1  UNL1        0.1811
      6 C          22.8944   72.4006    1.7606 C.3     1  UNL1        0.2383
      7 C          22.4459   70.9262    1.6021 C.3     1  UNL1        0.1895
      8 O          23.5007   70.0303    1.9544 O.3     1  UNL1       -0.3779
      9 C          22.1323   70.8425    0.0856 C.3     1  UNL1        0.1713
     10 C          21.9042   72.3084   -0.3310 C.3     1  UNL1        0.1764
     11 O          22.0304   73.1158    0.8520 O.3     1  UNL1       -0.3308
     12 O          23.2384   70.2803   -0.6239 O.3     1  UNL1       -0.3794
     13 H          23.1584   69.1337    1.8350 H       1  UNL1        0.2106
     14 H          23.3677   69.3874   -0.2773 H       1  UNL1        0.2105
     15 N          22.6916   72.8602    3.1351 N.ar    1  UNL1       -0.2551
     16 C          21.5107   72.6476    3.7414 C.ar    1  UNL1        0.3323
     17 N          21.2976   73.0559    5.0063 N.ar    1  UNL1       -0.2743
     18 C          22.2694   73.6973    5.6862 C.ar    1  UNL1        0.2626
     19 C          23.5154   73.9330    5.0578 C.ar    1  UNL1        0.0795
     20 C          23.7041   73.5080    3.7901 C.ar    1  UNL1        0.0869
     21 O          20.6245   72.0704    3.1413 O.2     1  UNL1       -0.2464
     22 O          22.0761   74.0712    6.8282 O.2     1  UNL1       -0.2670
     23 H          20.4412   72.8900    5.4298 H       1  UNL1        0.1734
     24 O          18.7084   74.9543   -3.1839 O.3     1  UNL1       -0.2703
     25 P          19.1912   73.9941   -4.3815 P.3     1  UNL1        0.2208
     26 O          20.6666   74.0360   -4.4829 O.2     1  UNL1       -0.5170
     27 O          18.5443   74.4969   -5.7674 O.3     1  UNL1       -0.4371
     28 O          18.7164   72.4849   -4.0857 O.3     1  UNL1       -0.2865
     29 C          19.1901   71.6817   -5.1681 C.3     1  UNL1        0.2611
     30 C          18.0331   70.8491   -5.7232 C.3     1  UNL1        0.1582
     31 C          17.4667   69.9688   -4.6035 C.3     1  UNL1        0.1625
     32 C          18.6139   69.1614   -3.9870 C.3     1  UNL1        0.1686
     33 C          19.7260   70.1217   -3.5600 C.3     1  UNL1        0.1760
     34 O          16.4867   69.0797   -5.1428 O.3     1  UNL1       -0.3801
     35 O          18.1355   68.4448   -2.8472 O.3     1  UNL1       -0.3794
     36 O          20.2250   70.8192   -4.7006 O.3     1  UNL1       -0.3263
     37 H          16.1577   68.5466   -4.4060 H       1  UNL1        0.2105
     38 H          18.8881   67.9521   -2.4903 H       1  UNL1        0.2105
     39 C          16.9483   72.0718   -7.5295 C.2     1  UNL1        0.2231
     40 C          15.8692   72.9895   -8.0449 C.3     1  UNL1        0.0946
     41 N          16.9847   71.7402   -6.2245 N.am    1  UNL1       -0.2994
     42 O          17.7845   71.6323   -8.2896 O.2     1  UNL1       -0.2751
     43 H          16.3157   72.0920   -5.6160 H       1  UNL1        0.1496
     44 C          20.8630   69.3281   -2.9133 C.3     1  UNL1        0.1693
     45 O          22.1185   69.8759   -3.3205 O.3     1  UNL1       -0.3794
     46 H          22.8061   69.3482   -2.8922 H       1  UNL1        0.2105
@<TRIPOS>BOND
     1    29    30    1
     2    29    28    1
     3    29    36    1
     4    30    31    1
     5    30    41    1
     6    31    32    1
     7    31    34    1
     8    32    33    1
     9    32    35    1
    10    33    44    1
    11    33    36    1
    12    44    45    1
    13    39    40    1
    14    39    41   am
    15    39    42    2
    16    41    43    1
    17    28    25    1
    18    34    37    1
    19    35    38    1
    20    45    46    1
    21    15    16   ar
    22    15    20   ar
    23    15     6    1
    24    16    17   ar
    25    16    21    2
    26    17    18   ar
    27    17    23    1
    28    18    19   ar
    29    18    22    2
    30    19    20   ar
    31     6     7    1
    32     6    11    1
    33     7     8    1
    34     7     9    1
    35     8    13    1
    36     9    10    1
    37     9    12    1
    38    10    11    1
    39    10     5    1
    40    12    14    1
    41     5     4    1
    42     4     1    1
    43     1     2    2
    44     1     3    1
    45     1    24    1
    46    24    25    1
    47    25    26    2
    48    25    27    1
