@<TRIPOS>MOLECULE
GDU
 43 45 0 0 0
SMALL
GASTEIGER

@<TRIPOS>ATOM
      1 P          22.0710   70.8309   -2.4956 P.3     1  UNL1        0.2189
      2 O          21.4603   69.5637   -2.0366 O.2     1  UNL1       -0.5170
      3 O          23.5116   70.5269   -3.1479 O.3     1  UNL1       -0.4371
      4 O          21.1189   71.5189   -3.5943 O.3     1  UNL1       -0.3112
      5 C          20.1076   72.2297   -2.8784 C.3     1  UNL1        0.1811
      6 C          17.9937   71.2985   -5.6338 C.3     1  UNL1        0.2383
      7 C          18.0547   70.0305   -4.7442 C.3     1  UNL1        0.1895
      8 O          16.8424   69.2795   -4.8431 O.3     1  UNL1       -0.3779
      9 C          18.2159   70.6362   -3.3256 C.3     1  UNL1        0.1713
     10 C          18.7615   72.0530   -3.5835 C.3     1  UNL1        0.1764
     11 O          18.9317   72.1970   -5.0042 O.3     1  UNL1       -0.3308
     12 O          16.9527   70.6928   -2.6600 O.3     1  UNL1       -0.3794
     13 H          16.9450   68.5075   -4.2691 H       1  UNL1        0.2106
     14 H          16.6366   69.7825   -2.5812 H       1  UNL1        0.2105
     15 N          18.4126   70.9917   -7.0024 N.ar    1  UNL1       -0.2551
     16 C          17.4874   70.6962   -7.9325 C.ar    1  UNL1        0.3323
     17 N          17.8457   70.4138   -9.1989 N.ar    1  UNL1       -0.2743
     18 C          19.1449   70.4132   -9.5540 C.ar    1  UNL1        0.2626
     19 C          20.1308   70.7170   -8.5835 C.ar    1  UNL1        0.0795
     20 C          19.7438   71.0007   -7.3217 C.ar    1  UNL1        0.0869
     21 O          16.3115   70.6932   -7.6272 O.2     1  UNL1       -0.2464
     22 O          19.4705   70.1531  -10.6989 O.2     1  UNL1       -0.2670
     23 H          17.1643   70.2070   -9.8583 H       1  UNL1        0.1734
     24 O          22.2503   71.8243   -1.2413 O.3     1  UNL1       -0.2703
     25 P          22.4718   70.9005    0.0577 P.3     1  UNL1        0.2208
     26 O          21.2162   70.1844    0.3735 O.2     1  UNL1       -0.5170
     27 O          23.6393   69.8309   -0.2375 O.3     1  UNL1       -0.4371
     28 O          22.8939   71.8224    1.3076 O.3     1  UNL1       -0.2858
     29 C          22.0385   72.9659    1.2873 C.3     1  UNL1        0.2704
     30 C          22.8776   74.2257    1.0681 C.3     1  UNL1        0.1967
     31 C          23.9080   74.3409    2.1957 C.3     1  UNL1        0.1715
     32 C          23.1736   74.2720    3.5394 C.3     1  UNL1        0.1694
     33 C          22.3129   73.0066    3.5720 C.3     1  UNL1        0.1761
     34 O          23.5499   74.1401   -0.1897 O.3     1  UNL1       -0.3775
     35 O          24.6007   75.5863    2.0877 O.3     1  UNL1       -0.3794
     36 O          22.3434   75.4244    3.6899 O.3     1  UNL1       -0.3794
     37 O          21.3418   73.0580    2.5278 O.3     1  UNL1       -0.3258
     38 H          22.8648   74.0619   -0.8674 H       1  UNL1        0.2106
     39 H          25.0361   75.5905    1.2259 H       1  UNL1        0.2105
     40 H          22.9254   76.1948    3.6577 H       1  UNL1        0.2105
     41 C          21.6016   72.9103    4.9235 C.3     1  UNL1        0.1693
     42 O          22.5033   73.2923    5.9637 O.3     1  UNL1       -0.3794
     43 H          22.0172   73.2187    6.7965 H       1  UNL1        0.2105
@<TRIPOS>BOND
     1    15    16   ar
     2    15    20   ar
     3    15     6    1
     4    16    17   ar
     5    16    21    2
     6    17    18   ar
     7    17    23    1
     8    18    19   ar
     9    18    22    2
    10    19    20   ar
    11     6     7    1
    12     6    11    1
    13     7     8    1
    14     7     9    1
    15     8    13    1
    16     9    10    1
    17     9    12    1
    18    10    11    1
    19    10     5    1
    20    12    14    1
    21     5     4    1
    22     4     1    1
    23     1     2    2
    24     1     3    1
    25     1    24    1
    26    24    25    1
    27    25    26    2
    28    25    27    1
    29    25    28    1
    30    28    29    1
    31    29    30    1
    32    29    37    1
    33    30    31    1
    34    30    34    1
    35    31    32    1
    36    31    35    1
    37    32    33    1
    38    32    36    1
    39    33    41    1
    40    33    37    1
    41    41    42    1
    42    34    38    1
    43    35    39    1
    44    36    40    1
    45    42    43    1
@<TRIPOS>MOLECULE
GDU
 43 45 0 0 0
SMALL
GASTEIGER

@<TRIPOS>ATOM
      1 P          22.7985   71.9959   -3.1151 P.3     1  UNL1        0.2189
      2 O          22.8690   72.4572   -1.7109 O.2     1  UNL1       -0.5170
      3 O          23.0530   70.4069   -3.1712 O.3     1  UNL1       -0.4371
      4 O          21.3446   72.3281   -3.7172 O.3     1  UNL1       -0.3112
      5 C          20.3910   71.9788   -2.7125 C.3     1  UNL1        0.1811
      6 C          18.0519   71.2832   -5.3530 C.3     1  UNL1        0.2383
      7 C          18.0874   69.9817   -4.5118 C.3     1  UNL1        0.1895
      8 O          16.8257   69.3114   -4.5560 O.3     1  UNL1       -0.3779
      9 C          18.3765   70.5232   -3.0875 C.3     1  UNL1        0.1713
     10 C          18.9946   71.9121   -3.3335 C.3     1  UNL1        0.1764
     11 O          19.0835   72.0980   -4.7568 O.3     1  UNL1       -0.3308
     12 O          17.1641   70.6331   -2.3392 O.3     1  UNL1       -0.3794
     13 H          16.9146   68.5138   -4.0158 H       1  UNL1        0.2106
     14 H          16.7959   69.7419   -2.2700 H       1  UNL1        0.2105
     15 N          18.3629   71.0021   -6.7555 N.ar    1  UNL1       -0.2551
     16 C          17.3671   70.7341   -7.6186 C.ar    1  UNL1        0.3323
     17 N          17.6256   70.4757   -8.9141 N.ar    1  UNL1       -0.2743
     18 C          18.8942   70.4720   -9.3667 C.ar    1  UNL1        0.2626
     19 C          19.9537   70.7469   -8.4678 C.ar    1  UNL1        0.0795
     20 C          19.6661   71.0069   -7.1747 C.ar    1  UNL1        0.0869
     21 O          16.2177   70.7343   -7.2251 O.2     1  UNL1       -0.2464
     22 O          19.1296   70.2336  -10.5381 O.2     1  UNL1       -0.2670
     23 H          16.8943   70.2886   -9.5239 H       1  UNL1        0.1734
     24 O          23.9255   72.7495   -3.9837 O.3     1  UNL1       -0.2703
     25 P          23.3314   74.1958   -4.3646 P.3     1  UNL1        0.2208
     26 O          22.3999   74.6410   -3.3048 O.2     1  UNL1       -0.5170
     27 O          24.5387   75.2538   -4.4964 O.3     1  UNL1       -0.4371
     28 O          22.5460   74.1025   -5.7662 O.3     1  UNL1       -0.2858
     29 C          21.9816   75.3911   -6.0123 C.3     1  UNL1        0.2704
     30 C          20.6249   75.2299   -6.6998 C.3     1  UNL1        0.1967
     31 C          20.8189   74.4649   -8.0126 C.3     1  UNL1        0.1715
     32 C          21.8901   75.1807   -8.8431 C.3     1  UNL1        0.1694
     33 C          23.1525   75.3439   -7.9930 C.3     1  UNL1        0.1761
     34 O          19.7393   74.5026   -5.8465 O.3     1  UNL1       -0.3775
     35 O          19.5873   74.4342   -8.7369 O.3     1  UNL1       -0.3794
     36 O          21.4072   76.4644   -9.2414 O.3     1  UNL1       -0.3794
     37 O          22.8609   76.1417   -6.8465 O.3     1  UNL1       -0.3258
     38 H          19.6524   75.0161   -5.0319 H       1  UNL1        0.2106
     39 H          18.9425   73.9875   -8.1738 H       1  UNL1        0.2105
     40 H          20.6112   76.3131   -9.7677 H       1  UNL1        0.2105
     41 C          24.2405   76.0272   -8.8245 C.3     1  UNL1        0.1693
     42 O          25.5128   75.8122   -8.2114 O.3     1  UNL1       -0.3794
     43 H          26.1691   76.2569   -8.7654 H       1  UNL1        0.2105
@<TRIPOS>BOND
     1    15    16   ar
     2    15    20   ar
     3    15     6    1
     4    16    17   ar
     5    16    21    2
     6    17    18   ar
     7    17    23    1
     8    18    19   ar
     9    18    22    2
    10    19    20   ar
    11     6     7    1
    12     6    11    1
    13     7     8    1
    14     7     9    1
    15     8    13    1
    16     9    10    1
    17     9    12    1
    18    10    11    1
    19    10     5    1
    20    12    14    1
    21     5     4    1
    22     4     1    1
    23     1     2    2
    24     1     3    1
    25     1    24    1
    26    24    25    1
    27    25    26    2
    28    25    27    1
    29    25    28    1
    30    28    29    1
    31    29    30    1
    32    29    37    1
    33    30    31    1
    34    30    34    1
    35    31    32    1
    36    31    35    1
    37    32    33    1
    38    32    36    1
    39    33    41    1
    40    33    37    1
    41    41    42    1
    42    34    38    1
    43    35    39    1
    44    36    40    1
    45    42    43    1
@<TRIPOS>MOLECULE
GDU
 43 45 0 0 0
SMALL
GASTEIGER

@<TRIPOS>ATOM
      1 P          21.5777   70.7098   -0.4134 P.3     1  UNL1        0.2189
      2 O          21.7626   69.6088    0.5577 O.2     1  UNL1       -0.5170
      3 O          23.0084   71.1442   -1.0111 O.3     1  UNL1       -0.4371
      4 O          20.6237   70.2156   -1.6103 O.3     1  UNL1       -0.3112
      5 C          20.7191   71.1944   -2.6464 C.3     1  UNL1        0.1811
      6 C          18.2475   71.1659   -5.2575 C.3     1  UNL1        0.2383
      7 C          18.0237   69.8347   -4.4954 C.3     1  UNL1        0.1895
      8 O          16.6496   69.4441   -4.5439 O.3     1  UNL1       -0.3779
      9 C          18.4404   70.2136   -3.0503 C.3     1  UNL1        0.1713
     10 C          19.3303   71.4573   -3.2314 C.3     1  UNL1        0.1764
     11 O          19.4348   71.7103   -4.6432 O.3     1  UNL1       -0.3308
     12 O          17.2887   70.5245   -2.2636 O.3     1  UNL1       -0.3794
     13 H          16.5785   68.6129   -4.0541 H       1  UNL1        0.2106
     14 H          16.7440   69.7262   -2.2367 H       1  UNL1        0.2105
     15 N          18.4722   70.9156   -6.6822 N.ar    1  UNL1       -0.2551
     16 C          17.4214   70.8105   -7.5146 C.ar    1  UNL1        0.3323
     17 N          17.6007   70.5841   -8.8294 N.ar    1  UNL1       -0.2743
     18 C          18.8426   70.4487   -9.3329 C.ar    1  UNL1        0.2626
     19 C          19.9587   70.5513   -8.4669 C.ar    1  UNL1        0.0795
     20 C          19.7507   70.7829   -7.1533 C.ar    1  UNL1        0.0869
     21 O          16.2952   70.9308   -7.0751 O.2     1  UNL1       -0.2464
     22 O          19.0057   70.2390  -10.5220 O.2     1  UNL1       -0.2670
     23 H          16.8310   70.5154   -9.4164 H       1  UNL1        0.1734
     24 O          20.9023   71.9698    0.3275 O.3     1  UNL1       -0.2703
     25 P          21.9956   73.1507    0.3299 P.3     1  UNL1        0.2208
     26 O          23.3329   72.5851    0.0458 O.2     1  UNL1       -0.5170
     27 O          21.6193   74.2323   -0.8027 O.3     1  UNL1       -0.4371
     28 O          22.0100   73.8673    1.7708 O.3     1  UNL1       -0.2858
     29 C          22.7065   72.9947    2.6613 C.3     1  UNL1        0.2704
     30 C          21.7650   72.5552    3.7837 C.3     1  UNL1        0.1967
     31 C          21.2613   73.7964    4.5266 C.3     1  UNL1        0.1715
     32 C          22.4713   74.6230    4.9765 C.3     1  UNL1        0.1694
     33 C          23.3588   74.9075    3.7623 C.3     1  UNL1        0.1761
     34 O          20.6565   71.8454    3.2281 O.3     1  UNL1       -0.3775
     35 O          20.4989   73.3967    5.6675 O.3     1  UNL1       -0.3794
     36 O          23.2119   73.8923    5.9551 O.3     1  UNL1       -0.3794
     37 O          23.8300   73.6783    3.2118 O.3     1  UNL1       -0.3258
     38 H          21.0201   71.0784    2.7651 H       1  UNL1        0.2106
     39 H          19.7582   72.8716    5.3391 H       1  UNL1        0.2105
     40 H          22.6135   73.7312    6.6962 H       1  UNL1        0.2105
     41 C          24.5528   75.7617    4.1945 C.3     1  UNL1        0.1693
     42 O          24.5667   75.8736    5.6186 O.3     1  UNL1       -0.3794
     43 H          25.3326   76.4173    5.8492 H       1  UNL1        0.2105
@<TRIPOS>BOND
     1    15    16   ar
     2    15    20   ar
     3    15     6    1
     4    16    17   ar
     5    16    21    2
     6    17    18   ar
     7    17    23    1
     8    18    19   ar
     9    18    22    2
    10    19    20   ar
    11     6     7    1
    12     6    11    1
    13     7     8    1
    14     7     9    1
    15     8    13    1
    16     9    10    1
    17     9    12    1
    18    10    11    1
    19    10     5    1
    20    12    14    1
    21     5     4    1
    22     4     1    1
    23     1     2    2
    24     1     3    1
    25     1    24    1
    26    24    25    1
    27    25    26    2
    28    25    27    1
    29    25    28    1
    30    28    29    1
    31    29    30    1
    32    29    37    1
    33    30    31    1
    34    30    34    1
    35    31    32    1
    36    31    35    1
    37    32    33    1
    38    32    36    1
    39    33    41    1
    40    33    37    1
    41    41    42    1
    42    34    38    1
    43    35    39    1
    44    36    40    1
    45    42    43    1
@<TRIPOS>MOLECULE
GDU
 43 45 0 0 0
SMALL
GASTEIGER

@<TRIPOS>ATOM
      1 P          21.9214   74.6542   -7.1373 P.3     1  UNL1        0.2189
      2 O          23.3142   75.1518   -7.1814 O.2     1  UNL1       -0.5170
      3 O          20.9783   75.6208   -8.0143 O.3     1  UNL1       -0.4371
      4 O          21.8649   73.1623   -7.7357 O.3     1  UNL1       -0.3112
      5 C          21.3277   73.2658   -9.0552 C.3     1  UNL1        0.1811
      6 C          18.6650   71.2075   -7.7899 C.3     1  UNL1        0.2383
      7 C          18.0121   72.5959   -8.0109 C.3     1  UNL1        0.1895
      8 O          16.6292   72.4615   -8.3466 O.3     1  UNL1       -0.3779
      9 C          18.8219   73.1481   -9.2128 C.3     1  UNL1        0.1713
     10 C          20.1260   72.3293   -9.1933 C.3     1  UNL1        0.1764
     11 O          20.0627   71.4455   -8.0605 O.3     1  UNL1       -0.3308
     12 O          18.1097   72.9382  -10.4337 O.3     1  UNL1       -0.3794
     13 H          16.2839   73.3567   -8.4701 H       1  UNL1        0.2106
     14 H          17.2788   73.4271  -10.3609 H       1  UNL1        0.2105
     15 N          18.4759   70.7601   -6.4090 N.ar    1  UNL1       -0.2551
     16 C          17.3239   70.1650   -6.0526 C.ar    1  UNL1        0.3323
     17 N          17.1260   69.7413   -4.7904 N.ar    1  UNL1       -0.2743
     18 C          18.0809   69.9166   -3.8567 C.ar    1  UNL1        0.2626
     19 C          19.2972   70.5471   -4.2163 C.ar    1  UNL1        0.0795
     20 C          19.4712   70.9586   -5.4902 C.ar    1  UNL1        0.0869
     21 O          16.4535   69.9995   -6.8840 O.2     1  UNL1       -0.2464
     22 O          17.9008   69.5377   -2.7128 O.2     1  UNL1       -0.2670
     23 H          16.2901   69.3099   -4.5518 H       1  UNL1        0.1734
     24 O          21.4049   74.6421   -5.6124 O.3     1  UNL1       -0.2703
     25 P          22.4305   73.7230   -4.7796 P.3     1  UNL1        0.2208
     26 O          22.9103   72.6174   -5.6379 O.2     1  UNL1       -0.5170
     27 O          23.6843   74.6146   -4.3030 O.3     1  UNL1       -0.4371
     28 O          21.6834   73.1168   -3.4895 O.3     1  UNL1       -0.2858
     29 C          22.6679   72.9862   -2.4631 C.3     1  UNL1        0.2704
     30 C          22.8245   71.5106   -2.0925 C.3     1  UNL1        0.1967
     31 C          21.4725   70.9697   -1.6171 C.3     1  UNL1        0.1715
     32 C          20.9512   71.8727   -0.4935 C.3     1  UNL1        0.1694
     33 C          20.9348   73.3217   -0.9865 C.3     1  UNL1        0.1761
     34 O          23.2612   70.7737   -3.2360 O.3     1  UNL1       -0.3775
     35 O          21.6336   69.6362   -1.1290 O.3     1  UNL1       -0.3794
     36 O          21.8057   71.7600    0.6454 O.3     1  UNL1       -0.3794
     37 O          22.2604   73.7322   -1.3185 O.3     1  UNL1       -0.3258
     38 H          24.1095   71.1520   -3.5043 H       1  UNL1        0.2106
     39 H          21.9732   69.1087   -1.8629 H       1  UNL1        0.2105
     40 H          21.7897   70.8330    0.9167 H       1  UNL1        0.2105
     41 C          20.3833   74.2278    0.1166 C.3     1  UNL1        0.1693
     42 O          21.4670   74.7634    0.8781 O.3     1  UNL1       -0.3794
     43 H          21.0777   75.3277    1.5603 H       1  UNL1        0.2105
@<TRIPOS>BOND
     1    15    16   ar
     2    15    20   ar
     3    15     6    1
     4    16    17   ar
     5    16    21    2
     6    17    18   ar
     7    17    23    1
     8    18    19   ar
     9    18    22    2
    10    19    20   ar
    11     6     7    1
    12     6    11    1
    13     7     8    1
    14     7     9    1
    15     8    13    1
    16     9    10    1
    17     9    12    1
    18    10    11    1
    19    10     5    1
    20    12    14    1
    21     5     4    1
    22     4     1    1
    23     1     2    2
    24     1     3    1
    25     1    24    1
    26    24    25    1
    27    25    26    2
    28    25    27    1
    29    25    28    1
    30    28    29    1
    31    29    30    1
    32    29    37    1
    33    30    31    1
    34    30    34    1
    35    31    32    1
    36    31    35    1
    37    32    33    1
    38    32    36    1
    39    33    41    1
    40    33    37    1
    41    41    42    1
    42    34    38    1
    43    35    39    1
    44    36    40    1
    45    42    43    1
@<TRIPOS>MOLECULE
GDU
 43 45 0 0 0
SMALL
GASTEIGER

@<TRIPOS>ATOM
      1 P          21.8706   70.5506   -0.2869 P.3     1  UNL1        0.2189
      2 O          23.1664   70.5364   -1.0012 O.2     1  UNL1       -0.5170
      3 O          21.7859   69.2779    0.6961 O.3     1  UNL1       -0.4371
      4 O          21.7471   71.9031    0.5746 O.3     1  UNL1       -0.3112
      5 C          22.2787   71.6189    1.8696 C.3     1  UNL1        0.1811
      6 C          23.1714   74.6731    3.5437 C.3     1  UNL1        0.2383
      7 C          22.4704   75.1343    2.2403 C.3     1  UNL1        0.1895
      8 O          21.7982   76.3805    2.4364 O.3     1  UNL1       -0.3779
      9 C          21.4530   73.9895    1.9960 C.3     1  UNL1        0.1713
     10 C          22.0216   72.8056    2.8001 C.3     1  UNL1        0.1764
     11 O          23.2588   73.2405    3.3904 O.3     1  UNL1       -0.3308
     12 O          20.1605   74.3579    2.4814 O.3     1  UNL1       -0.3794
     13 H          21.3853   76.6104    1.5923 H       1  UNL1        0.2106
     14 H          19.8851   75.1378    1.9808 H       1  UNL1        0.2105
     15 N          24.5070   75.2628    3.6501 N.ar    1  UNL1       -0.2551
     16 C          25.0111   75.5578    4.8613 C.ar    1  UNL1        0.3323
     17 N          26.2379   76.0974    4.9870 N.ar    1  UNL1       -0.2743
     18 C          26.9801   76.3609    3.8943 C.ar    1  UNL1        0.2626
     19 C          26.4596   76.0607    2.6117 C.ar    1  UNL1        0.0795
     20 C          25.2282   75.5160    2.5144 C.ar    1  UNL1        0.0869
     21 O          24.3536   75.3254    5.8562 O.2     1  UNL1       -0.2464
     22 O          28.0887   76.8536    4.0069 O.2     1  UNL1       -0.2670
     23 H          26.5877   76.3000    5.8693 H       1  UNL1        0.1734
     24 O          20.6687   70.4821   -1.3561 O.3     1  UNL1       -0.2703
     25 P          21.2210   71.1312   -2.7212 P.3     1  UNL1        0.2208
     26 O          21.4951   72.5694   -2.5078 O.2     1  UNL1       -0.5170
     27 O          22.5802   70.3855   -3.1582 O.3     1  UNL1       -0.4371
     28 O          20.1195   70.9602   -3.8820 O.3     1  UNL1       -0.2858
     29 C          18.8948   71.4904   -3.3733 C.3     1  UNL1        0.2704
     30 C          17.8307   70.3919   -3.3611 C.3     1  UNL1        0.1967
     31 C          17.6412   69.8653   -4.7870 C.3     1  UNL1        0.1715
     32 C          17.3440   71.0511   -5.7118 C.3     1  UNL1        0.1694
     33 C          18.4470   72.0995   -5.5470 C.3     1  UNL1        0.1761
     34 O          18.2525   69.3263   -2.5079 O.3     1  UNL1       -0.3775
     35 O          16.5490   68.9441   -4.8174 O.3     1  UNL1       -0.3794
     36 O          16.0807   71.6213   -5.3666 O.3     1  UNL1       -0.3794
     37 O          18.4666   72.5700   -4.2001 O.3     1  UNL1       -0.3258
     38 H          18.3660   69.7040   -1.6251 H       1  UNL1        0.2106
     39 H          16.7734   68.2239   -4.2147 H       1  UNL1        0.2105
     40 H          15.4196   70.9260   -5.4793 H       1  UNL1        0.2105
     41 C          18.1780   73.2731   -6.4916 C.3     1  UNL1        0.1693
     42 O          18.1513   72.8017   -7.8400 O.3     1  UNL1       -0.3794
     43 H          17.9789   73.5698   -8.4017 H       1  UNL1        0.2105
@<TRIPOS>BOND
     1    15    16   ar
     2    15    20   ar
     3    15     6    1
     4    16    17   ar
     5    16    21    2
     6    17    18   ar
     7    17    23    1
     8    18    19   ar
     9    18    22    2
    10    19    20   ar
    11     6     7    1
    12     6    11    1
    13     7     8    1
    14     7     9    1
    15     8    13    1
    16     9    10    1
    17     9    12    1
    18    10    11    1
    19    10     5    1
    20    12    14    1
    21     5     4    1
    22     4     1    1
    23     1     2    2
    24     1     3    1
    25     1    24    1
    26    24    25    1
    27    25    26    2
    28    25    27    1
    29    25    28    1
    30    28    29    1
    31    29    30    1
    32    29    37    1
    33    30    31    1
    34    30    34    1
    35    31    32    1
    36    31    35    1
    37    32    33    1
    38    32    36    1
    39    33    41    1
    40    33    37    1
    41    41    42    1
    42    34    38    1
    43    35    39    1
    44    36    40    1
    45    42    43    1
@<TRIPOS>MOLECULE
GDU
 43 45 0 0 0
SMALL
GASTEIGER

@<TRIPOS>ATOM
      1 P          21.0860   70.3686   -1.4406 P.3     1  UNL1        0.2189
      2 O          22.3390   70.4785   -2.2200 O.2     1  UNL1       -0.5170
      3 O          20.4655   71.8369   -1.2124 O.3     1  UNL1       -0.4371
      4 O          20.0312   69.4593   -2.2451 O.3     1  UNL1       -0.3112
      5 C          18.9226   70.2999   -2.5689 C.3     1  UNL1        0.1811
      6 C          19.4847   72.1151   -5.6212 C.3     1  UNL1        0.2383
      7 C          18.1068   72.6166   -5.1184 C.3     1  UNL1        0.1895
      8 O          17.8835   73.9728   -5.5109 O.3     1  UNL1       -0.3779
      9 C          18.2621   72.5046   -3.5794 C.3     1  UNL1        0.1713
     10 C          19.4091   71.4944   -3.3915 C.3     1  UNL1        0.1764
     11 O          19.8140   71.0543   -4.6994 O.3     1  UNL1       -0.3308
     12 O          18.6065   73.7729   -3.0184 O.3     1  UNL1       -0.3794
     13 H          17.0136   74.2224   -5.1690 H       1  UNL1        0.2106
     14 H          17.8777   74.3754   -3.2197 H       1  UNL1        0.2105
     15 N          19.3811   71.5982   -6.9868 N.ar    1  UNL1       -0.2551
     16 C          20.4035   71.7681   -7.8436 C.ar    1  UNL1        0.3323
     17 N          20.3350   71.2994   -9.1035 N.ar    1  UNL1       -0.2743
     18 C          19.2307   70.6577   -9.5313 C.ar    1  UNL1        0.2626
     19 C          18.1436   70.4765   -8.6415 C.ar    1  UNL1        0.0795
     20 C          18.2403   70.9527   -7.3820 C.ar    1  UNL1        0.0869
     21 O          21.4063   72.3446   -7.4720 O.2     1  UNL1       -0.2464
     22 O          19.1659   70.2373  -10.6730 O.2     1  UNL1       -0.2670
     23 H          21.0841   71.4273   -9.7071 H       1  UNL1        0.1734
     24 O          21.4004   69.6927   -0.0135 O.3     1  UNL1       -0.2703
     25 P          22.2522   70.7642    0.8329 P.3     1  UNL1        0.2208
     26 O          23.1389   70.0523    1.7794 O.2     1  UNL1       -0.5170
     27 O          23.1437   71.6540   -0.1710 O.3     1  UNL1       -0.4371
     28 O          21.2505   71.7218    1.6511 O.3     1  UNL1       -0.2858
     29 C          22.0163   72.8441    2.0914 C.3     1  UNL1        0.2704
     30 C          21.7742   73.0715    3.5844 C.3     1  UNL1        0.1967
     31 C          20.2793   73.3124    3.8161 C.3     1  UNL1        0.1715
     32 C          19.8187   74.4515    2.8997 C.3     1  UNL1        0.1694
     33 C          20.2077   74.1182    1.4573 C.3     1  UNL1        0.1761
     34 O          22.1944   71.9199    4.3183 O.3     1  UNL1       -0.3775
     35 O          20.0568   73.6715    5.1814 O.3     1  UNL1       -0.3794
     36 O          20.4470   75.6703    3.2996 O.3     1  UNL1       -0.3794
     37 O          21.6261   74.0014    1.3559 O.3     1  UNL1       -0.3258
     38 H          23.1369   71.8025    4.1374 H       1  UNL1        0.2106
     39 H          20.3711   72.9340    5.7195 H       1  UNL1        0.2105
     40 H          20.1791   75.8367    4.2127 H       1  UNL1        0.2105
     41 C          19.7218   75.2336    0.5290 C.3     1  UNL1        0.1693
     42 O          20.2049   74.9954   -0.7942 O.3     1  UNL1       -0.3794
     43 H          19.8768   75.7183   -1.3464 H       1  UNL1        0.2105
@<TRIPOS>BOND
     1    15    16   ar
     2    15    20   ar
     3    15     6    1
     4    16    17   ar
     5    16    21    2
     6    17    18   ar
     7    17    23    1
     8    18    19   ar
     9    18    22    2
    10    19    20   ar
    11     6     7    1
    12     6    11    1
    13     7     8    1
    14     7     9    1
    15     8    13    1
    16     9    10    1
    17     9    12    1
    18    10    11    1
    19    10     5    1
    20    12    14    1
    21     5     4    1
    22     4     1    1
    23     1     2    2
    24     1     3    1
    25     1    24    1
    26    24    25    1
    27    25    26    2
    28    25    27    1
    29    25    28    1
    30    28    29    1
    31    29    30    1
    32    29    37    1
    33    30    31    1
    34    30    34    1
    35    31    32    1
    36    31    35    1
    37    32    33    1
    38    32    36    1
    39    33    41    1
    40    33    37    1
    41    41    42    1
    42    34    38    1
    43    35    39    1
    44    36    40    1
    45    42    43    1
@<TRIPOS>MOLECULE
GDU
 43 45 0 0 0
SMALL
GASTEIGER

@<TRIPOS>ATOM
      1 P          20.3042   72.3196   -3.7335 P.3     1  UNL1        0.2189
      2 O          20.9079   71.2135   -4.5092 O.2     1  UNL1       -0.5170
      3 O          18.7935   72.5642   -4.2345 O.3     1  UNL1       -0.4371
      4 O          20.2962   71.9380   -2.1711 O.3     1  UNL1       -0.3112
      5 C          20.8752   73.0415   -1.4727 C.3     1  UNL1        0.1811
      6 C          22.9581   72.3768    1.3816 C.3     1  UNL1        0.2383
      7 C          22.2710   71.0210    1.0772 C.3     1  UNL1        0.1895
      8 O          23.1151   69.9276    1.4448 O.3     1  UNL1       -0.3779
      9 C          22.0898   71.0869   -0.4617 C.3     1  UNL1        0.1713
     10 C          22.1644   72.5911   -0.7832 C.3     1  UNL1        0.1764
     11 O          22.3217   73.2907    0.4634 O.3     1  UNL1       -0.3308
     12 O          23.1401   70.3752   -1.1193 O.3     1  UNL1       -0.3794
     13 H          22.6313   69.1177    1.2311 H       1  UNL1        0.2106
     14 H          23.0766   69.4541   -0.8325 H       1  UNL1        0.2105
     15 N          22.7125   72.7825    2.7665 N.ar    1  UNL1       -0.2551
     16 C          21.5618   72.4349    3.3691 C.ar    1  UNL1        0.3323
     17 N          21.3127   72.7922    4.6428 N.ar    1  UNL1       -0.2743
     18 C          22.2135   73.5164    5.3343 C.ar    1  UNL1        0.2626
     19 C          23.4276   73.8947    4.7105 C.ar    1  UNL1        0.0795
     20 C          23.6538   73.5194    3.4336 C.ar    1  UNL1        0.0869
     21 O          20.7398   71.7812    2.7581 O.2     1  UNL1       -0.2464
     22 O          21.9870   73.8444    6.4857 O.2     1  UNL1       -0.2670
     23 H          20.4787   72.5289    5.0634 H       1  UNL1        0.1734
     24 O          21.1655   73.6618   -3.9551 O.3     1  UNL1       -0.2703
     25 P          21.5801   73.6989   -5.5097 P.3     1  UNL1        0.2208
     26 O          22.0662   75.0521   -5.8582 O.2     1  UNL1       -0.5170
     27 O          22.7487   72.6236   -5.7790 O.3     1  UNL1       -0.4371
     28 O          20.3005   73.3372   -6.4162 O.3     1  UNL1       -0.2858
     29 C          20.6873   73.5330   -7.7770 C.3     1  UNL1        0.2704
     30 C          19.7842   74.5890   -8.4162 C.3     1  UNL1        0.1967
     31 C          18.3289   74.1188   -8.3299 C.3     1  UNL1        0.1715
     32 C          18.2295   72.7176   -8.9435 C.3     1  UNL1        0.1694
     33 C          19.2500   71.8024   -8.2624 C.3     1  UNL1        0.1761
     34 O          19.9304   75.8283   -7.7205 O.3     1  UNL1       -0.3775
     35 O          17.4889   75.0222   -9.0514 O.3     1  UNL1       -0.3794
     36 O          18.5036   72.7885  -10.3435 O.3     1  UNL1       -0.3794
     37 O          20.5681   72.3013   -8.4851 O.3     1  UNL1       -0.3258
     38 H          20.8605   76.0818   -7.7947 H       1  UNL1        0.2106
     39 H          17.5922   75.8896   -8.6400 H       1  UNL1        0.2105
     40 H          17.8422   73.3780  -10.7286 H       1  UNL1        0.2105
     41 C          19.1354   70.3916   -8.8441 C.3     1  UNL1        0.1693
     42 O          18.5940   70.4641  -10.1642 O.3     1  UNL1       -0.3794
     43 H          18.5389   69.5568  -10.4944 H       1  UNL1        0.2105
@<TRIPOS>BOND
     1    15    16   ar
     2    15    20   ar
     3    15     6    1
     4    16    17   ar
     5    16    21    2
     6    17    18   ar
     7    17    23    1
     8    18    19   ar
     9    18    22    2
    10    19    20   ar
    11     6     7    1
    12     6    11    1
    13     7     8    1
    14     7     9    1
    15     8    13    1
    16     9    10    1
    17     9    12    1
    18    10    11    1
    19    10     5    1
    20    12    14    1
    21     5     4    1
    22     4     1    1
    23     1     2    2
    24     1     3    1
    25     1    24    1
    26    24    25    1
    27    25    26    2
    28    25    27    1
    29    25    28    1
    30    28    29    1
    31    29    30    1
    32    29    37    1
    33    30    31    1
    34    30    34    1
    35    31    32    1
    36    31    35    1
    37    32    33    1
    38    32    36    1
    39    33    41    1
    40    33    37    1
    41    41    42    1
    42    34    38    1
    43    35    39    1
    44    36    40    1
    45    42    43    1
@<TRIPOS>MOLECULE
GDU
 43 45 0 0 0
SMALL
GASTEIGER

@<TRIPOS>ATOM
      1 P          21.9564   70.8279   -0.3527 P.3     1  UNL1        0.2189
      2 O          21.6930   69.6902    0.5560 O.2     1  UNL1       -0.5170
      3 O          22.8564   70.3284   -1.5910 O.3     1  UNL1       -0.4371
      4 O          20.5616   71.4096   -0.9033 O.3     1  UNL1       -0.3112
      5 C          20.5633   71.2179   -2.3188 C.3     1  UNL1        0.1811
      6 C          18.4529   72.2724   -5.0320 C.3     1  UNL1        0.2383
      7 C          17.6736   71.1125   -4.3610 C.3     1  UNL1        0.1895
      8 O          16.2630   71.3028   -4.4924 O.3     1  UNL1       -0.3779
      9 C          18.1132   71.2402   -2.8792 C.3     1  UNL1        0.1713
     10 C          19.4315   72.0332   -2.9470 C.3     1  UNL1        0.1764
     11 O          19.7170   72.2763   -4.3354 O.3     1  UNL1       -0.3308
     12 O          17.1305   71.9538   -2.1263 O.3     1  UNL1       -0.3794
     13 H          15.8384   70.5507   -4.0566 H       1  UNL1        0.2106
     14 H          16.3143   71.4375   -2.1706 H       1  UNL1        0.2105
     15 N          18.6506   72.0069   -6.4579 N.ar    1  UNL1       -0.2551
     16 C          19.3661   70.9357   -6.8439 C.ar    1  UNL1        0.3323
     17 N          19.5597   70.6671   -8.1485 N.ar    1  UNL1       -0.2743
     18 C          19.0450   71.4774   -9.0934 C.ar    1  UNL1        0.2626
     19 C          18.2941   72.6126   -8.7015 C.ar    1  UNL1        0.0795
     20 C          18.1115   72.8564   -7.3863 C.ar    1  UNL1        0.0869
     21 O          19.8361   70.1954   -6.0030 O.2     1  UNL1       -0.2464
     22 O          19.2238   71.2376  -10.2745 O.2     1  UNL1       -0.2670
     23 H          20.0751   69.8872   -8.4091 H       1  UNL1        0.1734
     24 O          22.7420   71.9826    0.4485 O.3     1  UNL1       -0.2703
     25 P          21.6606   72.7183    1.3863 P.3     1  UNL1        0.2208
     26 O          20.5842   73.2867    0.5453 O.2     1  UNL1       -0.5170
     27 O          21.0301   71.6523    2.4160 O.3     1  UNL1       -0.4371
     28 O          22.3788   73.8990    2.2110 O.3     1  UNL1       -0.2858
     29 C          21.9571   73.7722    3.5696 C.3     1  UNL1        0.2704
     30 C          20.8698   74.8069    3.8640 C.3     1  UNL1        0.1967
     31 C          21.4303   76.2078    3.6002 C.3     1  UNL1        0.1715
     32 C          22.7256   76.3765    4.4023 C.3     1  UNL1        0.1694
     33 C          23.6735   75.2229    4.0653 C.3     1  UNL1        0.1761
     34 O          19.7441   74.5726    3.0160 O.3     1  UNL1       -0.3775
     35 O          20.4775   77.1911    4.0099 O.3     1  UNL1       -0.3794
     36 O          22.4276   76.3640    5.7991 O.3     1  UNL1       -0.3794
     37 O          23.0719   73.9824    4.4331 O.3     1  UNL1       -0.3258
     38 H          19.4293   73.6793    3.2106 H       1  UNL1        0.2106
     39 H          19.6781   77.0399    3.4899 H       1  UNL1        0.2105
     40 H          21.8254   77.1013    5.9635 H       1  UNL1        0.2105
     41 C          24.9840   75.4004    4.8354 C.3     1  UNL1        0.1693
     42 O          25.5946   74.1244    5.0353 O.3     1  UNL1       -0.3794
     43 H          26.4156   74.2801    5.5221 H       1  UNL1        0.2105
@<TRIPOS>BOND
     1    15    16   ar
     2    15    20   ar
     3    15     6    1
     4    16    17   ar
     5    16    21    2
     6    17    18   ar
     7    17    23    1
     8    18    19   ar
     9    18    22    2
    10    19    20   ar
    11     6     7    1
    12     6    11    1
    13     7     8    1
    14     7     9    1
    15     8    13    1
    16     9    10    1
    17     9    12    1
    18    10    11    1
    19    10     5    1
    20    12    14    1
    21     5     4    1
    22     4     1    1
    23     1     2    2
    24     1     3    1
    25     1    24    1
    26    24    25    1
    27    25    26    2
    28    25    27    1
    29    25    28    1
    30    28    29    1
    31    29    30    1
    32    29    37    1
    33    30    31    1
    34    30    34    1
    35    31    32    1
    36    31    35    1
    37    32    33    1
    38    32    36    1
    39    33    41    1
    40    33    37    1
    41    41    42    1
    42    34    38    1
    43    35    39    1
    44    36    40    1
    45    42    43    1
@<TRIPOS>MOLECULE
GDU
 43 45 0 0 0
SMALL
GASTEIGER

@<TRIPOS>ATOM
      1 P          22.2491   73.7132   -6.6380 P.3     1  UNL1        0.2189
      2 O          23.0927   74.8983   -6.9086 O.2     1  UNL1       -0.5170
      3 O          20.7523   74.1896   -6.2838 O.3     1  UNL1       -0.4371
      4 O          22.2177   72.7679   -7.9388 O.3     1  UNL1       -0.3112
      5 C          21.2602   73.3313   -8.8367 C.3     1  UNL1        0.1811
      6 C          18.6595   71.1434   -7.6633 C.3     1  UNL1        0.2383
      7 C          17.9609   72.5150   -7.8465 C.3     1  UNL1        0.1895
      8 O          16.5864   72.3440   -8.1998 O.3     1  UNL1       -0.3779
      9 C          18.7614   73.1328   -9.0224 C.3     1  UNL1        0.1713
     10 C          20.0929   72.3590   -9.0161 C.3     1  UNL1        0.1764
     11 O          20.0505   71.4378   -7.9126 O.3     1  UNL1       -0.3308
     12 O          18.0675   72.9377  -10.2563 O.3     1  UNL1       -0.3794
     13 H          16.2114   73.2303   -8.2982 H       1  UNL1        0.2106
     14 H          17.2196   73.3952  -10.1761 H       1  UNL1        0.2105
     15 N          18.4741   70.6459   -6.2991 N.ar    1  UNL1       -0.2551
     16 C          17.3450   69.9910   -5.9758 C.ar    1  UNL1        0.3323
     17 N          17.1512   69.5203   -4.7297 N.ar    1  UNL1       -0.2743
     18 C          18.0867   69.7077   -3.7789 C.ar    1  UNL1        0.2626
     19 C          19.2785   70.4009   -4.1035 C.ar    1  UNL1        0.0795
     20 C          19.4491   70.8587   -5.3620 C.ar    1  UNL1        0.0869
     21 O          16.4924   69.8138   -6.8230 O.2     1  UNL1       -0.2464
     22 O          17.9100   69.2862   -2.6495 O.2     1  UNL1       -0.2670
     23 H          16.3321   69.0461   -4.5151 H       1  UNL1        0.1734
     24 O          22.8589   72.8946   -5.3928 O.3     1  UNL1       -0.2703
     25 P          23.0353   73.9443   -4.1857 P.3     1  UNL1        0.2208
     26 O          24.3252   74.6537   -4.3336 O.2     1  UNL1       -0.5170
     27 O          21.8293   75.0114   -4.2223 O.3     1  UNL1       -0.4371
     28 O          23.0120   73.1581   -2.7816 O.3     1  UNL1       -0.2858
     29 C          21.8037   73.5306   -2.1175 C.3     1  UNL1        0.2704
     30 C          22.1410   74.3204   -0.8519 C.3     1  UNL1        0.1967
     31 C          23.0139   73.4525    0.0597 C.3     1  UNL1        0.1715
     32 C          22.2996   72.1169    0.2954 C.3     1  UNL1        0.1694
     33 C          21.9518   71.4927   -1.0583 C.3     1  UNL1        0.1761
     34 O          22.8496   75.5098   -1.2047 O.3     1  UNL1       -0.3775
     35 O          23.2153   74.1188    1.3079 O.3     1  UNL1       -0.3794
     36 O          21.1046   72.3399    1.0453 O.3     1  UNL1       -0.3794
     37 O          21.0707   72.3568   -1.7746 O.3     1  UNL1       -0.3258
     38 H          22.2668   76.0207   -1.7829 H       1  UNL1        0.2106
     39 H          23.6547   74.9557    1.1107 H       1  UNL1        0.2105
     40 H          21.3709   72.7377    1.8844 H       1  UNL1        0.2105
     41 C          21.2685   70.1418   -0.8346 C.3     1  UNL1        0.1693
     42 O          21.7113   69.5842    0.4039 O.3     1  UNL1       -0.3794
     43 H          21.2579   68.7363    0.5071 H       1  UNL1        0.2105
@<TRIPOS>BOND
     1    15    16   ar
     2    15    20   ar
     3    15     6    1
     4    16    17   ar
     5    16    21    2
     6    17    18   ar
     7    17    23    1
     8    18    19   ar
     9    18    22    2
    10    19    20   ar
    11     6     7    1
    12     6    11    1
    13     7     8    1
    14     7     9    1
    15     8    13    1
    16     9    10    1
    17     9    12    1
    18    10    11    1
    19    10     5    1
    20    12    14    1
    21     5     4    1
    22     4     1    1
    23     1     2    2
    24     1     3    1
    25     1    24    1
    26    24    25    1
    27    25    26    2
    28    25    27    1
    29    25    28    1
    30    28    29    1
    31    29    30    1
    32    29    37    1
    33    30    31    1
    34    30    34    1
    35    31    32    1
    36    31    35    1
    37    32    33    1
    38    32    36    1
    39    33    41    1
    40    33    37    1
    41    41    42    1
    42    34    38    1
    43    35    39    1
    44    36    40    1
    45    42    43    1
@<TRIPOS>MOLECULE
GDU
 43 45 0 0 0
SMALL
GASTEIGER

@<TRIPOS>ATOM
      1 P          22.5822   70.6005    0.1447 P.3     1  UNL1        0.2189
      2 O          23.6101   69.5507   -0.0309 O.2     1  UNL1       -0.5170
      3 O          21.1178   69.9489   -0.0102 O.3     1  UNL1       -0.4371
      4 O          22.7267   71.2542    1.6071 O.3     1  UNL1       -0.3112
      5 C          21.4947   71.9214    1.8857 C.3     1  UNL1        0.1811
      6 C          22.6014   73.9876    4.6121 C.3     1  UNL1        0.2383
      7 C          21.3804   74.7403    4.0242 C.3     1  UNL1        0.1895
      8 O          20.6959   75.4748    5.0416 O.3     1  UNL1       -0.3779
      9 C          20.5028   73.5748    3.4982 C.3     1  UNL1        0.1713
     10 C          21.4914   72.4051    3.3370 C.3     1  UNL1        0.1764
     11 O          22.7969   72.8925    3.6923 O.3     1  UNL1       -0.3308
     12 O          19.4834   73.2501    4.4455 O.3     1  UNL1       -0.3794
     13 H          19.9509   75.9180    4.6122 H       1  UNL1        0.2106
     14 H          18.9338   74.0389    4.5470 H       1  UNL1        0.2105
     15 N          23.7804   74.8549    4.6395 N.ar    1  UNL1       -0.2551
     16 C          24.0389   75.5944    5.7325 C.ar    1  UNL1        0.3323
     17 N          25.1181   76.3972    5.7848 N.ar    1  UNL1       -0.2743
     18 C          25.9554   76.4803    4.7330 C.ar    1  UNL1        0.2626
     19 C          25.6924   75.7115    3.5728 C.ar    1  UNL1        0.0795
     20 C          24.6054   74.9113    3.5486 C.ar    1  UNL1        0.0869
     21 O          23.2930   75.5295    6.6893 O.2     1  UNL1       -0.2464
     22 O          26.9298   77.2104    4.7776 O.2     1  UNL1       -0.2670
     23 H          25.2917   76.9206    6.5833 H       1  UNL1        0.1734
     24 O          22.7826   71.7393   -0.9758 O.3     1  UNL1       -0.2703
     25 P          22.3056   71.1052   -2.3759 P.3     1  UNL1        0.2208
     26 O          23.4907   70.7938   -3.2053 O.2     1  UNL1       -0.5170
     27 O          21.4758   69.7532   -2.0976 O.3     1  UNL1       -0.4371
     28 O          21.3683   72.1586   -3.1517 O.3     1  UNL1       -0.2858
     29 C          21.1447   71.6303   -4.4597 C.3     1  UNL1        0.2704
     30 C          21.5746   72.6606   -5.5052 C.3     1  UNL1        0.1967
     31 C          20.7705   73.9476   -5.2969 C.3     1  UNL1        0.1715
     32 C          19.2779   73.5989   -5.3002 C.3     1  UNL1        0.1694
     33 C          19.0217   72.4980   -4.2680 C.3     1  UNL1        0.1761
     34 O          22.9688   72.9367   -5.3599 O.3     1  UNL1       -0.3775
     35 O          21.0535   74.8669   -6.3540 O.3     1  UNL1       -0.3794
     36 O          18.8970   73.1413   -6.5984 O.3     1  UNL1       -0.3794
     37 O          19.7604   71.3285   -4.6182 O.3     1  UNL1       -0.3258
     38 H          23.4343   72.0995   -5.4916 H       1  UNL1        0.2106
     39 H          22.0014   75.0477   -6.3213 H       1  UNL1        0.2105
     40 H          19.0807   73.8624   -7.2144 H       1  UNL1        0.2105
     41 C          17.5281   72.1661   -4.2388 C.3     1  UNL1        0.1693
     42 O          17.2454   71.1602   -5.2131 O.3     1  UNL1       -0.3794
     43 H          16.2967   70.9798   -5.1619 H       1  UNL1        0.2105
@<TRIPOS>BOND
     1    15    16   ar
     2    15    20   ar
     3    15     6    1
     4    16    17   ar
     5    16    21    2
     6    17    18   ar
     7    17    23    1
     8    18    19   ar
     9    18    22    2
    10    19    20   ar
    11     6     7    1
    12     6    11    1
    13     7     8    1
    14     7     9    1
    15     8    13    1
    16     9    10    1
    17     9    12    1
    18    10    11    1
    19    10     5    1
    20    12    14    1
    21     5     4    1
    22     4     1    1
    23     1     2    2
    24     1     3    1
    25     1    24    1
    26    24    25    1
    27    25    26    2
    28    25    27    1
    29    25    28    1
    30    28    29    1
    31    29    30    1
    32    29    37    1
    33    30    31    1
    34    30    34    1
    35    31    32    1
    36    31    35    1
    37    32    33    1
    38    32    36    1
    39    33    41    1
    40    33    37    1
    41    41    42    1
    42    34    38    1
    43    35    39    1
    44    36    40    1
    45    42    43    1
@<TRIPOS>MOLECULE
GDU
 43 45 0 0 0
SMALL
GASTEIGER

@<TRIPOS>ATOM
      1 P          22.5914   72.7109   -2.3895 P.3     1  UNL1        0.2189
      2 O          23.4376   71.7256   -3.0985 O.2     1  UNL1       -0.5170
      3 O          22.1330   73.8626   -3.4173 O.3     1  UNL1       -0.4371
      4 O          21.2914   71.9735   -1.7953 O.3     1  UNL1       -0.3112
      5 C          20.9198   70.9666   -2.7379 C.3     1  UNL1        0.1811
      6 C          18.3570   71.0307   -5.2589 C.3     1  UNL1        0.2383
      7 C          18.1548   69.6761   -4.5328 C.3     1  UNL1        0.1895
      8 O          16.7782   69.2915   -4.5450 O.3     1  UNL1       -0.3779
      9 C          18.6240   70.0065   -3.0920 C.3     1  UNL1        0.1713
     10 C          19.5123   71.2527   -3.2643 C.3     1  UNL1        0.1764
     11 O          19.5677   71.5511   -4.6700 O.3     1  UNL1       -0.3308
     12 O          17.5023   70.2952   -2.2552 O.3     1  UNL1       -0.3794
     13 H          16.7210   68.4450   -4.0802 H       1  UNL1        0.2106
     14 H          16.9556   69.4981   -2.2347 H       1  UNL1        0.2105
     15 N          18.5300   70.8262   -6.6980 N.ar    1  UNL1       -0.2551
     16 C          17.4493   70.7242   -7.4917 C.ar    1  UNL1        0.3323
     17 N          17.5807   70.5395   -8.8186 N.ar    1  UNL1       -0.2743
     18 C          18.8041   70.4437   -9.3738 C.ar    1  UNL1        0.2626
     19 C          19.9515   70.5435   -8.5493 C.ar    1  UNL1        0.0795
     20 C          19.7912   70.7329   -7.2223 C.ar    1  UNL1        0.0869
     21 O          16.3392   70.8092   -7.0053 O.2     1  UNL1       -0.2464
     22 O          18.9241   70.2718  -10.5741 O.2     1  UNL1       -0.2670
     23 H          16.7899   70.4724   -9.3769 H       1  UNL1        0.1734
     24 O          23.4324   73.3715   -1.1858 O.3     1  UNL1       -0.2703
     25 P          22.4190   74.3245   -0.3766 P.3     1  UNL1        0.2208
     26 O          23.0528   75.6430   -0.1552 O.2     1  UNL1       -0.5170
     27 O          21.0664   74.5163   -1.2296 O.3     1  UNL1       -0.4371
     28 O          22.0662   73.6525    1.0426 O.3     1  UNL1       -0.2858
     29 C          22.2216   74.6694    2.0333 C.3     1  UNL1        0.2704
     30 C          22.6006   74.0261    3.3682 C.3     1  UNL1        0.1967
     31 C          21.5030   73.0380    3.7748 C.3     1  UNL1        0.1715
     32 C          20.1560   73.7695    3.7624 C.3     1  UNL1        0.1694
     33 C          19.9615   74.4311    2.3958 C.3     1  UNL1        0.1761
     34 O          23.8428   73.3338    3.2303 O.3     1  UNL1       -0.3775
     35 O          21.7688   72.5386    5.0873 O.3     1  UNL1       -0.3794
     36 O          20.1433   74.7648    4.7867 O.3     1  UNL1       -0.3794
     37 O          20.9973   75.3866    2.1718 O.3     1  UNL1       -0.3258
     38 H          24.5009   73.9914    2.9672 H       1  UNL1        0.2106
     39 H          22.6275   72.0986    5.0507 H       1  UNL1        0.2105
     40 H          20.2745   74.3045    5.6258 H       1  UNL1        0.2105
     41 C          18.6035   75.1358    2.3610 C.3     1  UNL1        0.1693
     42 O          18.7498   76.4738    2.8398 O.3     1  UNL1       -0.3794
     43 H          17.8740   76.8823    2.8010 H       1  UNL1        0.2105
@<TRIPOS>BOND
     1    15    16   ar
     2    15    20   ar
     3    15     6    1
     4    16    17   ar
     5    16    21    2
     6    17    18   ar
     7    17    23    1
     8    18    19   ar
     9    18    22    2
    10    19    20   ar
    11     6     7    1
    12     6    11    1
    13     7     8    1
    14     7     9    1
    15     8    13    1
    16     9    10    1
    17     9    12    1
    18    10    11    1
    19    10     5    1
    20    12    14    1
    21     5     4    1
    22     4     1    1
    23     1     2    2
    24     1     3    1
    25     1    24    1
    26    24    25    1
    27    25    26    2
    28    25    27    1
    29    25    28    1
    30    28    29    1
    31    29    30    1
    32    29    37    1
    33    30    31    1
    34    30    34    1
    35    31    32    1
    36    31    35    1
    37    32    33    1
    38    32    36    1
    39    33    41    1
    40    33    37    1
    41    41    42    1
    42    34    38    1
    43    35    39    1
    44    36    40    1
    45    42    43    1
@<TRIPOS>MOLECULE
GDU
 43 45 0 0 0
SMALL
GASTEIGER

@<TRIPOS>ATOM
      1 P          21.8570   70.8022   -0.4554 P.3     1  UNL1        0.2189
      2 O          21.5984   69.7266    0.5273 O.2     1  UNL1       -0.5170
      3 O          22.4911   70.1666   -1.7922 O.3     1  UNL1       -0.4371
      4 O          20.4759   71.5432   -0.8165 O.3     1  UNL1       -0.3112
      5 C          20.0728   71.0643   -2.1005 C.3     1  UNL1        0.1811
      6 C          18.1965   72.5000   -4.8108 C.3     1  UNL1        0.2383
      7 C          17.2714   71.3950   -4.2396 C.3     1  UNL1        0.1895
      8 O          15.8957   71.7457   -4.4054 O.3     1  UNL1       -0.3779
      9 C          17.6632   71.3871   -2.7390 C.3     1  UNL1        0.1713
     10 C          19.0606   72.0338   -2.7136 C.3     1  UNL1        0.1764
     11 O          19.4252   72.3249   -4.0740 O.3     1  UNL1       -0.3308
     12 O          16.7336   72.1587   -1.9758 O.3     1  UNL1       -0.3794
     13 H          15.3760   71.0204   -4.0315 H       1  UNL1        0.2106
     14 H          15.8692   71.7382   -2.0792 H       1  UNL1        0.2105
     15 N          18.4209   72.2982   -6.2432 N.ar    1  UNL1       -0.2551
     16 C          19.0848   71.2084   -6.6672 C.ar    1  UNL1        0.3323
     17 N          19.3014   70.9973   -7.9789 N.ar    1  UNL1       -0.2743
     18 C          18.8623   71.8848   -8.8920 C.ar    1  UNL1        0.2626
     19 C          18.1664   73.0403   -8.4596 C.ar    1  UNL1        0.0795
     20 C          17.9592   73.2253   -7.1385 C.ar    1  UNL1        0.0869
     21 O          19.4865   70.3987   -5.8553 O.2     1  UNL1       -0.2464
     22 O          19.0621   71.6971  -10.0791 O.2     1  UNL1       -0.2670
     23 H          19.7787   70.2032   -8.2673 H       1  UNL1        0.1734
     24 O          22.8895   71.8655    0.1735 O.3     1  UNL1       -0.2703
     25 P          22.0946   72.6646    1.3222 P.3     1  UNL1        0.2208
     26 O          21.4053   73.8299    0.7253 O.2     1  UNL1       -0.5170
     27 O          21.0078   71.6885    2.0006 O.3     1  UNL1       -0.4371
     28 O          23.1332   73.1704    2.4426 O.3     1  UNL1       -0.2858
     29 C          22.8316   74.5426    2.6989 C.3     1  UNL1        0.2704
     30 C          24.1073   75.2745    3.1188 C.3     1  UNL1        0.1967
     31 C          24.6779   74.6031    4.3717 C.3     1  UNL1        0.1715
     32 C          23.5792   74.5427    5.4389 C.3     1  UNL1        0.1694
     33 C          22.3433   73.8640    4.8431 C.3     1  UNL1        0.1761
     34 O          25.0657   75.2109    2.0612 O.3     1  UNL1       -0.3775
     35 O          25.7851   75.3625    4.8615 O.3     1  UNL1       -0.3794
     36 O          23.2473   75.8671    5.8584 O.3     1  UNL1       -0.3794
     37 O          21.8601   74.6276    3.7389 O.3     1  UNL1       -0.3258
     38 H          24.6623   75.6376    1.2931 H       1  UNL1        0.2106
     39 H          26.4438   75.3840    4.1558 H       1  UNL1        0.2105
     40 H          24.0541   76.2565    6.2202 H       1  UNL1        0.2105
     41 C          21.2516   73.7678    5.9112 C.3     1  UNL1        0.1693
     42 O          20.0341   73.3259    5.3083 O.3     1  UNL1       -0.3794
     43 H          19.3740   73.2780    6.0134 H       1  UNL1        0.2105
@<TRIPOS>BOND
     1    15    16   ar
     2    15    20   ar
     3    15     6    1
     4    16    17   ar
     5    16    21    2
     6    17    18   ar
     7    17    23    1
     8    18    19   ar
     9    18    22    2
    10    19    20   ar
    11     6     7    1
    12     6    11    1
    13     7     8    1
    14     7     9    1
    15     8    13    1
    16     9    10    1
    17     9    12    1
    18    10    11    1
    19    10     5    1
    20    12    14    1
    21     5     4    1
    22     4     1    1
    23     1     2    2
    24     1     3    1
    25     1    24    1
    26    24    25    1
    27    25    26    2
    28    25    27    1
    29    25    28    1
    30    28    29    1
    31    29    30    1
    32    29    37    1
    33    30    31    1
    34    30    34    1
    35    31    32    1
    36    31    35    1
    37    32    33    1
    38    32    36    1
    39    33    41    1
    40    33    37    1
    41    41    42    1
    42    34    38    1
    43    35    39    1
    44    36    40    1
    45    42    43    1
@<TRIPOS>MOLECULE
GDU
 43 45 0 0 0
SMALL
GASTEIGER

@<TRIPOS>ATOM
      1 P          22.0583   73.0914   -4.1494 P.3     1  UNL1        0.2189
      2 O          21.8245   72.0028   -3.1748 O.2     1  UNL1       -0.5170
      3 O          23.4241   72.8073   -4.9537 O.3     1  UNL1       -0.4371
      4 O          20.8295   73.1579   -5.1851 O.3     1  UNL1       -0.3112
      5 C          21.2643   72.5159   -6.3848 C.3     1  UNL1        0.1811
      6 C          18.0828   71.9884   -7.9745 C.3     1  UNL1        0.2383
      7 C          19.1084   71.9566   -9.1364 C.3     1  UNL1        0.1895
      8 O          18.6647   71.0920  -10.1847 O.3     1  UNL1       -0.3779
      9 C          20.3694   71.3807   -8.4411 C.3     1  UNL1        0.1713
     10 C          20.1301   71.6556   -6.9448 C.3     1  UNL1        0.1764
     11 O          18.8812   72.3593   -6.8305 O.3     1  UNL1       -0.3308
     12 O          20.4789   69.9775   -8.6875 O.3     1  UNL1       -0.3794
     13 H          19.3438   71.1172  -10.8732 H       1  UNL1        0.2106
     14 H          20.5670   69.8671   -9.6440 H       1  UNL1        0.2105
     15 N          17.0457   72.9903   -8.2263 N.ar    1  UNL1       -0.2551
     16 C          15.9008   72.9567   -7.5217 C.ar    1  UNL1        0.3323
     17 N          14.9328   73.8682   -7.7313 N.ar    1  UNL1       -0.2743
     18 C          15.0928   74.8281   -8.6626 C.ar    1  UNL1        0.2626
     19 C          16.2911   74.8723   -9.4164 C.ar    1  UNL1        0.0795
     20 C          17.2475   73.9485   -9.1830 C.ar    1  UNL1        0.0869
     21 O          15.7424   72.0970   -6.6780 O.2     1  UNL1       -0.2464
     22 O          14.2151   75.6507   -8.8563 O.2     1  UNL1       -0.2670
     23 H          14.1147   73.8315   -7.2106 H       1  UNL1        0.1734
     24 O          22.1793   74.4936   -3.3675 O.3     1  UNL1       -0.2703
     25 P          21.0616   74.4803   -2.2096 P.3     1  UNL1        0.2208
     26 O          20.5858   75.8602   -1.9678 O.2     1  UNL1       -0.5170
     27 O          19.8233   73.5591   -2.6701 O.3     1  UNL1       -0.4371
     28 O          21.6970   73.8856   -0.8558 O.3     1  UNL1       -0.2858
     29 C          20.6313   73.2658   -0.1347 C.3     1  UNL1        0.2704
     30 C          20.4431   73.9766    1.2065 C.3     1  UNL1        0.1967
     31 C          21.7508   73.8981    2.0002 C.3     1  UNL1        0.1715
     32 C          22.1791   72.4293    2.0949 C.3     1  UNL1        0.1694
     33 C          22.2376   71.8360    0.6851 C.3     1  UNL1        0.1761
     34 O          20.1010   75.3450    0.9790 O.3     1  UNL1       -0.3775
     35 O          21.5486   74.4272    3.3123 O.3     1  UNL1       -0.3794
     36 O          21.2337   71.7058    2.8841 O.3     1  UNL1       -0.3794
     37 O          20.9443   71.8924    0.0851 O.3     1  UNL1       -0.3258
     38 H          19.2779   75.3462    0.4716 H       1  UNL1        0.2106
     39 H          21.2699   75.3453    3.2039 H       1  UNL1        0.2105
     40 H          21.2264   72.1167    3.7584 H       1  UNL1        0.2105
     41 C          22.6977   70.3787    0.7655 C.3     1  UNL1        0.1693
     42 O          21.5748   69.5148    0.5814 O.3     1  UNL1       -0.3794
     43 H          21.9069   68.6082    0.6383 H       1  UNL1        0.2105
@<TRIPOS>BOND
     1    15    16   ar
     2    15    20   ar
     3    15     6    1
     4    16    17   ar
     5    16    21    2
     6    17    18   ar
     7    17    23    1
     8    18    19   ar
     9    18    22    2
    10    19    20   ar
    11     6     7    1
    12     6    11    1
    13     7     8    1
    14     7     9    1
    15     8    13    1
    16     9    10    1
    17     9    12    1
    18    10    11    1
    19    10     5    1
    20    12    14    1
    21     5     4    1
    22     4     1    1
    23     1     2    2
    24     1     3    1
    25     1    24    1
    26    24    25    1
    27    25    26    2
    28    25    27    1
    29    25    28    1
    30    28    29    1
    31    29    30    1
    32    29    37    1
    33    30    31    1
    34    30    34    1
    35    31    32    1
    36    31    35    1
    37    32    33    1
    38    32    36    1
    39    33    41    1
    40    33    37    1
    41    41    42    1
    42    34    38    1
    43    35    39    1
    44    36    40    1
    45    42    43    1
@<TRIPOS>MOLECULE
GDU
 43 45 0 0 0
SMALL
GASTEIGER

@<TRIPOS>ATOM
      1 P          23.4405   74.1066   -4.2195 P.3     1  UNL1        0.2189
      2 O          23.2353   75.1602   -5.2380 O.2     1  UNL1       -0.5170
      3 O          25.0183   73.8921   -3.9798 O.3     1  UNL1       -0.4371
      4 O          22.7435   74.5505   -2.8397 O.3     1  UNL1       -0.3112
      5 C          23.0550   73.5431   -1.8760 C.3     1  UNL1        0.1811
      6 C          20.8849   73.0596    0.9497 C.3     1  UNL1        0.2383
      7 C          20.4488   74.4222    0.3528 C.3     1  UNL1        0.1895
      8 O          19.0554   74.6527    0.5728 O.3     1  UNL1       -0.3779
      9 C          20.7453   74.2254   -1.1567 C.3     1  UNL1        0.1713
     10 C          21.7697   73.0761   -1.1902 C.3     1  UNL1        0.1764
     11 O          22.0488   72.7080    0.1717 O.3     1  UNL1       -0.3308
     12 O          19.5535   73.8627   -1.8568 O.3     1  UNL1       -0.3794
     13 H          18.8495   75.5124    0.1798 H       1  UNL1        0.2106
     14 H          18.9317   74.5952   -1.7495 H       1  UNL1        0.2105
     15 N          21.2337   73.2017    2.3642 N.ar    1  UNL1       -0.2551
     16 C          21.6930   72.1386    3.0478 C.ar    1  UNL1        0.3323
     17 N          22.0241   72.2432    4.3483 N.ar    1  UNL1       -0.2743
     18 C          21.8904   73.4190    4.9916 C.ar    1  UNL1        0.2626
     19 C          21.4023   74.5459    4.2858 C.ar    1  UNL1        0.0795
     20 C          21.0816   74.4143    2.9810 C.ar    1  UNL1        0.0869
     21 O          21.8195   71.0716    2.4809 O.2     1  UNL1       -0.2464
     22 O          22.1853   73.5135    6.1700 O.2     1  UNL1       -0.2670
     23 H          22.3581   71.4667    4.8250 H       1  UNL1        0.1734
     24 O          22.7852   72.7289   -4.7343 O.3     1  UNL1       -0.2703
     25 P          21.8742   73.0935   -6.0099 P.3     1  UNL1        0.2208
     26 O          21.3672   74.4769   -5.8745 O.2     1  UNL1       -0.5170
     27 O          22.7578   72.9753   -7.3514 O.3     1  UNL1       -0.4371
     28 O          20.6335   72.0720   -6.0943 O.3     1  UNL1       -0.2858
     29 C          19.5178   72.8142   -6.5883 C.3     1  UNL1        0.2704
     30 C          18.2557   72.4019   -5.8291 C.3     1  UNL1        0.1967
     31 C          18.0304   70.8983   -6.0156 C.3     1  UNL1        0.1715
     32 C          18.0197   70.5869   -7.5164 C.3     1  UNL1        0.1694
     33 C          19.3017   71.1355   -8.1477 C.3     1  UNL1        0.1761
     34 O          18.4157   72.6948   -4.4399 O.3     1  UNL1       -0.3775
     35 O          16.7783   70.5250   -5.4364 O.3     1  UNL1       -0.3794
     36 O          16.8819   71.2005   -8.1237 O.3     1  UNL1       -0.3794
     37 O          19.3531   72.5515   -7.9799 O.3     1  UNL1       -0.3258
     38 H          18.5618   73.6481   -4.3707 H       1  UNL1        0.2106
     39 H          16.8259   70.7491   -4.4985 H       1  UNL1        0.2105
     40 H          16.1007   70.8303   -7.6923 H       1  UNL1        0.2105
     41 C          19.3172   70.7996   -9.6407 C.3     1  UNL1        0.1693
     42 O          18.6498   71.8328  -10.3674 O.3     1  UNL1       -0.3794
     43 H          18.6822   71.5838  -11.3014 H       1  UNL1        0.2105
@<TRIPOS>BOND
     1    15    16   ar
     2    15    20   ar
     3    15     6    1
     4    16    17   ar
     5    16    21    2
     6    17    18   ar
     7    17    23    1
     8    18    19   ar
     9    18    22    2
    10    19    20   ar
    11     6     7    1
    12     6    11    1
    13     7     8    1
    14     7     9    1
    15     8    13    1
    16     9    10    1
    17     9    12    1
    18    10    11    1
    19    10     5    1
    20    12    14    1
    21     5     4    1
    22     4     1    1
    23     1     2    2
    24     1     3    1
    25     1    24    1
    26    24    25    1
    27    25    26    2
    28    25    27    1
    29    25    28    1
    30    28    29    1
    31    29    30    1
    32    29    37    1
    33    30    31    1
    34    30    34    1
    35    31    32    1
    36    31    35    1
    37    32    33    1
    38    32    36    1
    39    33    41    1
    40    33    37    1
    41    41    42    1
    42    34    38    1
    43    35    39    1
    44    36    40    1
    45    42    43    1
@<TRIPOS>MOLECULE
GDU
 43 45 0 0 0
SMALL
GASTEIGER

@<TRIPOS>ATOM
      1 P          20.3953   70.3838   -2.4012 P.3     1  UNL1        0.2189
      2 O          19.3776   69.3661   -2.0577 O.2     1  UNL1       -0.5170
      3 O          21.8016   69.6575   -2.6975 O.3     1  UNL1       -0.4371
      4 O          19.9243   71.1947   -3.7079 O.3     1  UNL1       -0.3112
      5 C          18.6840   70.6220   -4.1255 C.3     1  UNL1        0.1811
      6 C          18.7065   72.6985   -7.0606 C.3     1  UNL1        0.2383
      7 C          18.3610   71.2826   -7.5884 C.3     1  UNL1        0.1895
      8 O          17.5239   71.3595   -8.7445 O.3     1  UNL1       -0.3779
      9 C          17.5932   70.6674   -6.3895 C.3     1  UNL1        0.1713
     10 C          18.0379   71.5170   -5.1846 C.3     1  UNL1        0.1764
     11 O          18.9962   72.4762   -5.6641 O.3     1  UNL1       -0.3308
     12 O          16.1827   70.7739   -6.5919 O.3     1  UNL1       -0.3794
     13 H          17.3470   70.4497   -9.0217 H       1  UNL1        0.2106
     14 H          15.9757   70.2713   -7.3915 H       1  UNL1        0.2105
     15 N          19.8795   73.2368   -7.7513 N.ar    1  UNL1       -0.2551
     16 C          20.7848   72.3961   -8.2824 C.ar    1  UNL1        0.3323
     17 N          21.8702   72.8651   -8.9257 N.ar    1  UNL1       -0.2743
     18 C          22.0727   74.1918   -9.0395 C.ar    1  UNL1        0.2626
     19 C          21.1305   75.0893   -8.4800 C.ar    1  UNL1        0.0795
     20 C          20.0486   74.5922   -7.8438 C.ar    1  UNL1        0.0869
     21 O          20.6154   71.1967   -8.1881 O.2     1  UNL1       -0.2464
     22 O          23.0573   74.6173   -9.6174 O.2     1  UNL1       -0.2670
     23 H          22.5111   72.2439   -9.3066 H       1  UNL1        0.1734
     24 O          20.5694   71.4047   -1.1683 O.3     1  UNL1       -0.2703
     25 P          21.7781   70.8443   -0.2656 P.3     1  UNL1        0.2208
     26 O          21.4281   69.5018    0.2486 O.2     1  UNL1       -0.5170
     27 O          23.1139   70.7443   -1.1599 O.3     1  UNL1       -0.4371
     28 O          22.0345   71.8432    0.9699 O.3     1  UNL1       -0.2858
     29 C          21.5109   73.1164    0.5897 C.3     1  UNL1        0.2704
     30 C          22.6423   74.1454    0.5650 C.3     1  UNL1        0.1967
     31 C          23.2817   74.2168    1.9551 C.3     1  UNL1        0.1715
     32 C          22.1806   74.4826    2.9879 C.3     1  UNL1        0.1694
     33 C          21.0844   73.4259    2.8299 C.3     1  UNL1        0.1761
     34 O          23.6246   73.7538   -0.3957 O.3     1  UNL1       -0.3775
     35 O          24.2406   75.2759    1.9887 O.3     1  UNL1       -0.3794
     36 O          21.6309   75.7837    2.7761 O.3     1  UNL1       -0.3794
     37 O          20.5128   73.5166    1.5257 O.3     1  UNL1       -0.3258
     38 H          23.1773   73.7150   -1.2521 H       1  UNL1        0.2106
     39 H          24.9047   75.0736    1.3177 H       1  UNL1        0.2105
     40 H          22.3557   76.4140    2.8795 H       1  UNL1        0.2105
     41 C          19.9960   73.6618    3.8795 C.3     1  UNL1        0.1693
     42 O          20.5911   74.1653    5.0768 O.3     1  UNL1       -0.3794
     43 H          19.8733   74.3008    5.7105 H       1  UNL1        0.2105
@<TRIPOS>BOND
     1    15    16   ar
     2    15    20   ar
     3    15     6    1
     4    16    17   ar
     5    16    21    2
     6    17    18   ar
     7    17    23    1
     8    18    19   ar
     9    18    22    2
    10    19    20   ar
    11     6     7    1
    12     6    11    1
    13     7     8    1
    14     7     9    1
    15     8    13    1
    16     9    10    1
    17     9    12    1
    18    10    11    1
    19    10     5    1
    20    12    14    1
    21     5     4    1
    22     4     1    1
    23     1     2    2
    24     1     3    1
    25     1    24    1
    26    24    25    1
    27    25    26    2
    28    25    27    1
    29    25    28    1
    30    28    29    1
    31    29    30    1
    32    29    37    1
    33    30    31    1
    34    30    34    1
    35    31    32    1
    36    31    35    1
    37    32    33    1
    38    32    36    1
    39    33    41    1
    40    33    37    1
    41    41    42    1
    42    34    38    1
    43    35    39    1
    44    36    40    1
    45    42    43    1
@<TRIPOS>MOLECULE
GDU
 43 45 0 0 0
SMALL
GASTEIGER

@<TRIPOS>ATOM
      1 P          22.4468   72.2919   -2.9297 P.3     1  UNL1        0.2189
      2 O          23.4993   72.1514   -3.9602 O.2     1  UNL1       -0.5170
      3 O          21.4193   73.4521   -3.3669 O.3     1  UNL1       -0.4371
      4 O          21.6532   70.9010   -2.7795 O.3     1  UNL1       -0.3112
      5 C          20.8770   70.7371   -3.9674 C.3     1  UNL1        0.1811
      6 C          17.3754   71.1928   -4.6446 C.3     1  UNL1        0.2383
      7 C          17.6447   69.7022   -4.9741 C.3     1  UNL1        0.1895
      8 O          16.4835   68.9069   -4.7242 O.3     1  UNL1       -0.3779
      9 C          18.7811   69.3497   -3.9794 C.3     1  UNL1        0.1713
     10 C          19.3902   70.7146   -3.6081 C.3     1  UNL1        0.1764
     11 O          18.6899   71.7184   -4.3632 O.3     1  UNL1       -0.3308
     12 O          18.2492   68.7005   -2.8229 O.3     1  UNL1       -0.3794
     13 H          16.7165   67.9951   -4.9484 H       1  UNL1        0.2106
     14 H          17.8310   67.8838   -3.1276 H       1  UNL1        0.2105
     15 N          16.7810   71.8781   -5.7935 N.ar    1  UNL1       -0.2551
     16 C          17.0599   71.4558   -7.0393 C.ar    1  UNL1        0.3323
     17 N          16.5238   72.0661   -8.1126 N.ar    1  UNL1       -0.2743
     18 C          15.7024   73.1218   -7.9548 C.ar    1  UNL1        0.2626
     19 C          15.4042   73.5813   -6.6486 C.ar    1  UNL1        0.0795
     20 C          15.9521   72.9483   -5.5895 C.ar    1  UNL1        0.0869
     21 O          17.7988   70.5044   -7.1975 O.2     1  UNL1       -0.2464
     22 O          15.2204   73.6778   -8.9259 O.2     1  UNL1       -0.2670
     23 H          16.7326   71.7452   -9.0044 H       1  UNL1        0.1734
     24 O          23.1242   72.6795   -1.5214 O.3     1  UNL1       -0.2703
     25 P          22.3185   71.8803   -0.3804 P.3     1  UNL1        0.2208
     26 O          20.8698   71.9231   -0.6779 O.2     1  UNL1       -0.5170
     27 O          22.8139   70.3481   -0.3472 O.3     1  UNL1       -0.4371
     28 O          22.5938   72.5631    1.0507 O.3     1  UNL1       -0.2858
     29 C          22.1103   73.9046    0.9703 C.3     1  UNL1        0.2704
     30 C          23.2366   74.8742    1.3318 C.3     1  UNL1        0.1967
     31 C          23.7290   74.5607    2.7481 C.3     1  UNL1        0.1715
     32 C          22.5268   74.5737    3.6989 C.3     1  UNL1        0.1694
     33 C          21.4544   73.6246    3.1584 C.3     1  UNL1        0.1761
     34 O          24.3134   74.7241    0.4049 O.3     1  UNL1       -0.3775
     35 O          24.6777   75.5486    3.1562 O.3     1  UNL1       -0.3794
     36 O          21.9999   75.8984    3.7849 O.3     1  UNL1       -0.3794
     37 O          21.0203   74.0701    1.8743 O.3     1  UNL1       -0.3258
     38 H          23.9570   74.9236   -0.4715 H       1  UNL1        0.2106
     39 H          25.4078   75.5129    2.5254 H       1  UNL1        0.2105
     40 H          22.7092   76.4604    4.1232 H       1  UNL1        0.2105
     41 C          20.2631   73.6039    4.1188 C.3     1  UNL1        0.1693
     42 O          19.3290   74.6162    3.7396 O.3     1  UNL1       -0.3794
     43 H          18.5951   74.5693    4.3676 H       1  UNL1        0.2105
@<TRIPOS>BOND
     1    15    16   ar
     2    15    20   ar
     3    15     6    1
     4    16    17   ar
     5    16    21    2
     6    17    18   ar
     7    17    23    1
     8    18    19   ar
     9    18    22    2
    10    19    20   ar
    11     6     7    1
    12     6    11    1
    13     7     8    1
    14     7     9    1
    15     8    13    1
    16     9    10    1
    17     9    12    1
    18    10    11    1
    19    10     5    1
    20    12    14    1
    21     5     4    1
    22     4     1    1
    23     1     2    2
    24     1     3    1
    25     1    24    1
    26    24    25    1
    27    25    26    2
    28    25    27    1
    29    25    28    1
    30    28    29    1
    31    29    30    1
    32    29    37    1
    33    30    31    1
    34    30    34    1
    35    31    32    1
    36    31    35    1
    37    32    33    1
    38    32    36    1
    39    33    41    1
    40    33    37    1
    41    41    42    1
    42    34    38    1
    43    35    39    1
    44    36    40    1
    45    42    43    1
@<TRIPOS>MOLECULE
GDU
 43 45 0 0 0
SMALL
GASTEIGER

@<TRIPOS>ATOM
      1 P          21.4393   73.3220   -8.3966 P.3     1  UNL1        0.2189
      2 O          22.3626   73.6225   -9.5132 O.2     1  UNL1       -0.5170
      3 O          20.3719   74.5183   -8.2462 O.3     1  UNL1       -0.4371
      4 O          20.6637   71.9454   -8.6968 O.3     1  UNL1       -0.3112
      5 C          19.3860   72.2979   -9.2295 C.3     1  UNL1        0.1811
      6 C          17.8817   70.6679   -6.3998 C.3     1  UNL1        0.2383
      7 C          17.2663   72.0906   -6.4018 C.3     1  UNL1        0.1895
      8 O          15.9406   72.0735   -5.8674 O.3     1  UNL1       -0.3779
      9 C          17.2487   72.4349   -7.9139 C.3     1  UNL1        0.1713
     10 C          18.2966   71.4867   -8.5258 C.3     1  UNL1        0.1764
     11 O          18.8720   70.7277   -7.4482 O.3     1  UNL1       -0.3308
     12 O          15.9552   72.1862   -8.4679 O.3     1  UNL1       -0.3794
     13 H          15.6165   72.9845   -5.8964 H       1  UNL1        0.2106
     14 H          15.3358   72.7660   -8.0043 H       1  UNL1        0.2105
     15 N          18.5121   70.3780   -5.1108 N.ar    1  UNL1       -0.2551
     16 C          19.5181   71.1543   -4.6710 C.ar    1  UNL1        0.3323
     17 N          20.1124   70.9116   -3.4878 N.ar    1  UNL1       -0.2743
     18 C          19.7128   69.8751   -2.7261 C.ar    1  UNL1        0.2626
     19 C          18.6581   69.0454   -3.1794 C.ar    1  UNL1        0.0795
     20 C          18.0767   69.3138   -4.3678 C.ar    1  UNL1        0.0869
     21 O          19.8892   72.0932   -5.3469 O.2     1  UNL1       -0.2464
     22 O          20.2533   69.6517   -1.6573 O.2     1  UNL1       -0.2670
     23 H          20.8342   71.4847   -3.1840 H       1  UNL1        0.1734
     24 O          22.2794   73.1793   -7.0305 O.3     1  UNL1       -0.2703
     25 P          22.5340   74.6705   -6.4813 P.3     1  UNL1        0.2208
     26 O          23.4069   75.4016   -7.4261 O.2     1  UNL1       -0.5170
     27 O          21.1256   75.4404   -6.3472 O.3     1  UNL1       -0.4371
     28 O          23.2442   74.5984   -5.0390 O.3     1  UNL1       -0.2858
     29 C          22.2267   74.8287   -4.0635 C.3     1  UNL1        0.2704
     30 C          22.6934   75.9088   -3.0863 C.3     1  UNL1        0.1967
     31 C          23.9911   75.4475   -2.4157 C.3     1  UNL1        0.1715
     32 C          23.7582   74.0646   -1.7969 C.3     1  UNL1        0.1694
     33 C          23.2122   73.1231   -2.8733 C.3     1  UNL1        0.1761
     34 O          22.9261   77.1273   -3.7950 O.3     1  UNL1       -0.3775
     35 O          24.3607   76.3769   -1.3949 O.3     1  UNL1       -0.3794
     36 O          22.8176   74.1719   -0.7274 O.3     1  UNL1       -0.3794
     37 O          21.9646   73.6180   -3.3578 O.3     1  UNL1       -0.3258
     38 H          22.0868   77.3757   -4.2059 H       1  UNL1        0.2106
     39 H          24.4848   77.2317   -1.8263 H       1  UNL1        0.2105
     40 H          23.1997   74.7768   -0.0783 H       1  UNL1        0.2105
     41 C          23.0084   71.7298   -2.2741 C.3     1  UNL1        0.1693
     42 O          23.4305   70.7412   -3.2151 O.3     1  UNL1       -0.3794
     43 H          23.2866   69.8798   -2.7996 H       1  UNL1        0.2105
@<TRIPOS>BOND
     1    15    16   ar
     2    15    20   ar
     3    15     6    1
     4    16    17   ar
     5    16    21    2
     6    17    18   ar
     7    17    23    1
     8    18    19   ar
     9    18    22    2
    10    19    20   ar
    11     6     7    1
    12     6    11    1
    13     7     8    1
    14     7     9    1
    15     8    13    1
    16     9    10    1
    17     9    12    1
    18    10    11    1
    19    10     5    1
    20    12    14    1
    21     5     4    1
    22     4     1    1
    23     1     2    2
    24     1     3    1
    25     1    24    1
    26    24    25    1
    27    25    26    2
    28    25    27    1
    29    25    28    1
    30    28    29    1
    31    29    30    1
    32    29    37    1
    33    30    31    1
    34    30    34    1
    35    31    32    1
    36    31    35    1
    37    32    33    1
    38    32    36    1
    39    33    41    1
    40    33    37    1
    41    41    42    1
    42    34    38    1
    43    35    39    1
    44    36    40    1
    45    42    43    1
@<TRIPOS>MOLECULE
GDU
 43 45 0 0 0
SMALL
GASTEIGER

@<TRIPOS>ATOM
      1 P          19.3136   71.2301   -3.1930 P.3     1  UNL1        0.2189
      2 O          19.9028   70.5487   -4.3669 O.2     1  UNL1       -0.5170
      3 O          18.9639   70.1408   -2.0599 O.3     1  UNL1       -0.4371
      4 O          20.3658   72.2958   -2.6064 O.3     1  UNL1       -0.3112
      5 C          20.3043   72.1973   -1.1827 C.3     1  UNL1        0.1811
      6 C          22.7434   72.2797    1.4576 C.3     1  UNL1        0.2383
      7 C          22.3660   70.7822    1.3231 C.3     1  UNL1        0.1895
      8 O          23.4727   69.9447    1.6655 O.3     1  UNL1       -0.3779
      9 C          22.0308   70.6660   -0.1866 C.3     1  UNL1        0.1713
     10 C          21.7219   72.1129   -0.6138 C.3     1  UNL1        0.1764
     11 O          21.8280   72.9399    0.5579 O.3     1  UNL1       -0.3308
     12 O          23.1515   70.1523   -0.9092 O.3     1  UNL1       -0.3794
     13 H          23.1732   69.0307    1.5619 H       1  UNL1        0.2106
     14 H          23.3318   69.2704   -0.5564 H       1  UNL1        0.2105
     15 N          22.5412   72.7434    2.8312 N.ar    1  UNL1       -0.2551
     16 C          21.3582   72.5385    3.4369 C.ar    1  UNL1        0.3323
     17 N          21.1474   72.9518    4.7005 N.ar    1  UNL1       -0.2743
     18 C          22.1208   73.5898    5.3785 C.ar    1  UNL1        0.2626
     19 C          23.3701   73.8177    4.7512 C.ar    1  UNL1        0.0795
     20 C          23.5562   73.3890    3.4847 C.ar    1  UNL1        0.0869
     21 O          20.4708   71.9640    2.8381 O.2     1  UNL1       -0.2464
     22 O          21.9294   73.9685    6.5206 O.2     1  UNL1       -0.2670
     23 H          20.2888   72.7917    5.1235 H       1  UNL1        0.1734
     24 O          17.9665   71.9924   -3.6364 O.3     1  UNL1       -0.2703
     25 P          17.3501   71.1690   -4.8742 P.3     1  UNL1        0.2208
     26 O          17.1939   69.7481   -4.4921 O.2     1  UNL1       -0.5170
     27 O          15.9119   71.7810   -5.2626 O.3     1  UNL1       -0.4371
     28 O          18.3386   71.2799   -6.1394 O.3     1  UNL1       -0.2858
     29 C          18.1790   72.5935   -6.6767 C.3     1  UNL1        0.2704
     30 C          17.8505   72.4973   -8.1674 C.3     1  UNL1        0.1967
     31 C          18.9847   71.7552   -8.8810 C.3     1  UNL1        0.1715
     32 C          20.3101   72.4497   -8.5486 C.3     1  UNL1        0.1694
     33 C          20.4530   72.5478   -7.0278 C.3     1  UNL1        0.1761
     34 O          16.6251   71.7839   -8.3425 O.3     1  UNL1       -0.3775
     35 O          18.7648   71.7856  -10.2928 O.3     1  UNL1       -0.3794
     36 O          20.3199   73.7589   -9.1196 O.3     1  UNL1       -0.3794
     37 O          19.3859   73.3299   -6.4935 O.3     1  UNL1       -0.3258
     38 H          15.9427   72.2819   -7.8722 H       1  UNL1        0.2106
     39 H          17.9180   71.3504  -10.4536 H       1  UNL1        0.2105
     40 H          20.2220   73.6485  -10.0744 H       1  UNL1        0.2105
     41 C          21.7896   73.2092   -6.6844 C.3     1  UNL1        0.1693
     42 O          22.7970   72.7398   -7.5820 O.3     1  UNL1       -0.3794
     43 H          23.6212   73.1801   -7.3328 H       1  UNL1        0.2105
@<TRIPOS>BOND
     1    15    16   ar
     2    15    20   ar
     3    15     6    1
     4    16    17   ar
     5    16    21    2
     6    17    18   ar
     7    17    23    1
     8    18    19   ar
     9    18    22    2
    10    19    20   ar
    11     6     7    1
    12     6    11    1
    13     7     8    1
    14     7     9    1
    15     8    13    1
    16     9    10    1
    17     9    12    1
    18    10    11    1
    19    10     5    1
    20    12    14    1
    21     5     4    1
    22     4     1    1
    23     1     2    2
    24     1     3    1
    25     1    24    1
    26    24    25    1
    27    25    26    2
    28    25    27    1
    29    25    28    1
    30    28    29    1
    31    29    30    1
    32    29    37    1
    33    30    31    1
    34    30    34    1
    35    31    32    1
    36    31    35    1
    37    32    33    1
    38    32    36    1
    39    33    41    1
    40    33    37    1
    41    41    42    1
    42    34    38    1
    43    35    39    1
    44    36    40    1
    45    42    43    1
@<TRIPOS>MOLECULE
GDU
 43 45 0 0 0
SMALL
GASTEIGER

@<TRIPOS>ATOM
      1 P          22.7752   71.7595   -3.2404 P.3     1  UNL1        0.2189
      2 O          23.4964   70.4965   -2.9677 O.2     1  UNL1       -0.5170
      3 O          23.7268   72.7499   -4.0810 O.3     1  UNL1       -0.4371
      4 O          21.4448   71.4460   -4.0880 O.3     1  UNL1       -0.3112
      5 C          21.0939   72.6519   -4.7686 C.3     1  UNL1        0.1811
      6 C          19.9581   73.1331   -8.1458 C.3     1  UNL1        0.2383
      7 C          21.0921   74.1744   -7.9646 C.3     1  UNL1        0.1895
      8 O          21.7642   74.4169   -9.2025 O.3     1  UNL1       -0.3779
      9 C          22.0301   73.4609   -6.9564 C.3     1  UNL1        0.1713
     10 C          21.1255   72.4145   -6.2795 C.3     1  UNL1        0.1764
     11 O          19.8043   72.5693   -6.8259 O.3     1  UNL1       -0.3308
     12 O          23.1120   72.8279   -7.6425 O.3     1  UNL1       -0.3794
     13 H          22.4542   75.0705   -9.0218 H       1  UNL1        0.2106
     14 H          23.6051   73.5268   -8.0932 H       1  UNL1        0.2105
     15 N          18.7200   73.7852   -8.5756 N.ar    1  UNL1       -0.2551
     16 C          18.1106   73.3813   -9.7041 C.ar    1  UNL1        0.3323
     17 N          16.9693   73.9618  -10.1196 N.ar    1  UNL1       -0.2743
     18 C          16.4221   74.9689   -9.4122 C.ar    1  UNL1        0.2626
     19 C          17.0561   75.4088   -8.2245 C.ar    1  UNL1        0.0795
     20 C          18.1974   74.8064   -7.8283 C.ar    1  UNL1        0.0869
     21 O          18.5921   72.4736  -10.3525 O.2     1  UNL1       -0.2464
     22 O          15.3917   75.4982   -9.7900 O.2     1  UNL1       -0.2670
     23 H          16.5407   73.6546  -10.9343 H       1  UNL1        0.1734
     24 O          22.3731   72.4584   -1.8468 O.3     1  UNL1       -0.2703
     25 P          21.8092   71.2959   -0.8874 P.3     1  UNL1        0.2208
     26 O          20.7200   70.5712   -1.5785 O.2     1  UNL1       -0.5170
     27 O          22.9978   70.2678   -0.5348 O.3     1  UNL1       -0.4371
     28 O          21.2440   71.9471    0.4715 O.3     1  UNL1       -0.2858
     29 C          22.2762   72.7872    0.9897 C.3     1  UNL1        0.2704
     30 C          22.5785   72.3896    2.4353 C.3     1  UNL1        0.1967
     31 C          21.3002   72.5271    3.2680 C.3     1  UNL1        0.1715
     32 C          20.7454   73.9441    3.0837 C.3     1  UNL1        0.1694
     33 C          20.5800   74.2232    1.5878 C.3     1  UNL1        0.1761
     34 O          23.0336   71.0359    2.4742 O.3     1  UNL1       -0.3775
     35 O          21.5991   72.3016    4.6473 O.3     1  UNL1       -0.3794
     36 O          21.6511   74.8898    3.6539 O.3     1  UNL1       -0.3794
     37 O          21.8494   74.1467    0.9407 O.3     1  UNL1       -0.3258
     38 H          23.8335   70.9948    1.9325 H       1  UNL1        0.2106
     39 H          21.9550   71.4065    4.7138 H       1  UNL1        0.2105
     40 H          21.7287   74.6726    4.5920 H       1  UNL1        0.2105
     41 C          19.9940   75.6235    1.3937 C.3     1  UNL1        0.1693
     42 O          18.6219   75.5159    1.0109 O.3     1  UNL1       -0.3794
     43 H          18.2908   76.4177    0.8997 H       1  UNL1        0.2105
@<TRIPOS>BOND
     1    15    16   ar
     2    15    20   ar
     3    15     6    1
     4    16    17   ar
     5    16    21    2
     6    17    18   ar
     7    17    23    1
     8    18    19   ar
     9    18    22    2
    10    19    20   ar
    11     6     7    1
    12     6    11    1
    13     7     8    1
    14     7     9    1
    15     8    13    1
    16     9    10    1
    17     9    12    1
    18    10    11    1
    19    10     5    1
    20    12    14    1
    21     5     4    1
    22     4     1    1
    23     1     2    2
    24     1     3    1
    25     1    24    1
    26    24    25    1
    27    25    26    2
    28    25    27    1
    29    25    28    1
    30    28    29    1
    31    29    30    1
    32    29    37    1
    33    30    31    1
    34    30    34    1
    35    31    32    1
    36    31    35    1
    37    32    33    1
    38    32    36    1
    39    33    41    1
    40    33    37    1
    41    41    42    1
    42    34    38    1
    43    35    39    1
    44    36    40    1
    45    42    43    1
@<TRIPOS>MOLECULE
GDU
 43 45 0 0 0
SMALL
GASTEIGER

@<TRIPOS>ATOM
      1 P          18.0023   70.2165   -3.4060 P.3     1  UNL1        0.2189
      2 O          18.4602   69.2742   -2.3609 O.2     1  UNL1       -0.5170
      3 O          16.5628   70.8119   -2.9981 O.3     1  UNL1       -0.4371
      4 O          19.0607   71.4195   -3.5455 O.3     1  UNL1       -0.3112
      5 C          19.3880   71.8385   -2.2197 C.3     1  UNL1        0.1811
      6 C          22.4502   72.3616   -0.4097 C.3     1  UNL1        0.2383
      7 C          22.3108   70.8205   -0.5012 C.3     1  UNL1        0.1895
      8 O          23.5948   70.1937   -0.5399 O.3     1  UNL1       -0.3779
      9 C          21.5669   70.6412   -1.8502 C.3     1  UNL1        0.1713
     10 C          20.9032   72.0088   -2.0963 C.3     1  UNL1        0.1764
     11 O          21.2103   72.8459   -0.9679 O.3     1  UNL1       -0.3308
     12 O          22.4925   70.3317   -2.8939 O.3     1  UNL1       -0.3794
     13 H          23.4384   69.2407   -0.5961 H       1  UNL1        0.2106
     14 H          22.9170   69.4970   -2.6534 H       1  UNL1        0.2105
     15 N          22.5895   72.7872    0.9840 N.ar    1  UNL1       -0.2551
     16 C          22.0934   72.0178    1.9690 C.ar    1  UNL1        0.3323
     17 N          22.2112   72.3844    3.2588 N.ar    1  UNL1       -0.2743
     18 C          22.8227   73.5395    3.5842 C.ar    1  UNL1        0.2626
     19 C          23.3451   74.3629    2.5569 C.ar    1  UNL1        0.0795
     20 C          23.2170   73.9693    1.2719 C.ar    1  UNL1        0.0869
     21 O          21.5395   70.9728    1.6908 O.2     1  UNL1       -0.2464
     22 O          22.9256   73.8745    4.7511 O.2     1  UNL1       -0.2670
     23 H          21.8510   71.8147    3.9570 H       1  UNL1        0.1734
     24 O          17.8817   69.4402   -4.8114 O.3     1  UNL1       -0.2703
     25 P          17.2209   70.4692   -5.8576 P.3     1  UNL1        0.2208
     26 O          16.3153   69.7337   -6.7676 O.2     1  UNL1       -0.5170
     27 O          16.3828   71.5861   -5.0548 O.3     1  UNL1       -0.4371
     28 O          18.3806   71.1835   -6.7149 O.3     1  UNL1       -0.2858
     29 C          18.0763   72.5786   -6.7431 C.3     1  UNL1        0.2704
     30 C          17.5218   72.9511   -8.1190 C.3     1  UNL1        0.1967
     31 C          18.5631   72.6029   -9.1871 C.3     1  UNL1        0.1715
     32 C          19.8900   73.2741   -8.8151 C.3     1  UNL1        0.1694
     33 C          20.2661   72.8752   -7.3859 C.3     1  UNL1        0.1761
     34 O          16.3193   72.2198   -8.3644 O.3     1  UNL1       -0.3775
     35 O          18.1221   73.0786  -10.4606 O.3     1  UNL1       -0.3794
     36 O          19.7478   74.6929   -8.8985 O.3     1  UNL1       -0.3794
     37 O          19.2608   73.3270   -6.4797 O.3     1  UNL1       -0.3258
     38 H          15.6968   72.4640   -7.6660 H       1  UNL1        0.2106
     39 H          17.2821   72.6407  -10.6474 H       1  UNL1        0.2105
     40 H          19.5058   74.8967   -9.8113 H       1  UNL1        0.2105
     41 C          21.6074   73.5128   -7.0165 C.3     1  UNL1        0.1693
     42 O          22.6434   72.5346   -7.1199 O.3     1  UNL1       -0.3794
     43 H          23.4699   72.9759   -6.8802 H       1  UNL1        0.2105
@<TRIPOS>BOND
     1    15    16   ar
     2    15    20   ar
     3    15     6    1
     4    16    17   ar
     5    16    21    2
     6    17    18   ar
     7    17    23    1
     8    18    19   ar
     9    18    22    2
    10    19    20   ar
    11     6     7    1
    12     6    11    1
    13     7     8    1
    14     7     9    1
    15     8    13    1
    16     9    10    1
    17     9    12    1
    18    10    11    1
    19    10     5    1
    20    12    14    1
    21     5     4    1
    22     4     1    1
    23     1     2    2
    24     1     3    1
    25     1    24    1
    26    24    25    1
    27    25    26    2
    28    25    27    1
    29    25    28    1
    30    28    29    1
    31    29    30    1
    32    29    37    1
    33    30    31    1
    34    30    34    1
    35    31    32    1
    36    31    35    1
    37    32    33    1
    38    32    36    1
    39    33    41    1
    40    33    37    1
    41    41    42    1
    42    34    38    1
    43    35    39    1
    44    36    40    1
    45    42    43    1
