@<TRIPOS>MOLECULE
GDU
 43 45 0 0 0
SMALL
GASTEIGER

@<TRIPOS>ATOM
      1 P          20.9775   71.2071   -2.3818 P.3     1  UNL1        0.2189
      2 O          20.8969   70.8100   -0.9587 O.2     1  UNL1       -0.5170
      3 O          21.4205   69.9382   -3.2688 O.3     1  UNL1       -0.4371
      4 O          19.5392   71.7310   -2.8755 O.3     1  UNL1       -0.3112
      5 C          18.5708   70.7993   -2.3910 C.3     1  UNL1        0.1811
      6 C          16.9687   70.5421   -5.5995 C.3     1  UNL1        0.2383
      7 C          16.9591   69.0954   -5.0427 C.3     1  UNL1        0.1895
      8 O          15.8204   68.3737   -5.5177 O.3     1  UNL1       -0.3779
      9 C          16.8628   69.3364   -3.5137 C.3     1  UNL1        0.1713
     10 C          17.3635   70.7812   -3.3303 C.3     1  UNL1        0.1764
     11 O          17.7458   71.2724   -4.6267 O.3     1  UNL1       -0.3308
     12 O          15.5098   69.2089   -3.0720 O.3     1  UNL1       -0.3794
     13 H          15.8741   67.4861   -5.1370 H       1  UNL1        0.2106
     14 H          15.2358   68.3025   -3.2672 H       1  UNL1        0.2105
     15 N          17.6128   70.5873   -6.9132 N.ar    1  UNL1       -0.2551
     16 C          16.8666   70.4723   -8.0260 C.ar    1  UNL1        0.3323
     17 N          17.4336   70.5141   -9.2461 N.ar    1  UNL1       -0.2743
     18 C          18.7664   70.6627   -9.3719 C.ar    1  UNL1        0.2626
     19 C          19.5656   70.7793   -8.2083 C.ar    1  UNL1        0.0795
     20 C          18.9708   70.7384   -6.9971 C.ar    1  UNL1        0.0869
     21 O          15.6631   70.3381   -7.9285 O.2     1  UNL1       -0.2464
     22 O          19.2811   70.6959  -10.4757 O.2     1  UNL1       -0.2670
     23 H          16.8793   70.4338  -10.0387 H       1  UNL1        0.1734
     24 O          22.0647   72.3829   -2.5491 O.3     1  UNL1       -0.2703
     25 P          22.5134   72.3871   -4.0946 P.3     1  UNL1        0.2208
     26 O          23.9648   72.1151   -4.1874 O.2     1  UNL1       -0.5170
     27 O          21.7021   71.2468   -4.8918 O.3     1  UNL1       -0.4371
     28 O          22.1933   73.8247   -4.7435 O.3     1  UNL1       -0.2858
     29 C          21.2923   73.5989   -5.8284 C.3     1  UNL1        0.2704
     30 C          22.0582   73.6734   -7.1502 C.3     1  UNL1        0.1967
     31 C          22.7136   75.0527   -7.2696 C.3     1  UNL1        0.1715
     32 C          21.6356   76.1257   -7.0790 C.3     1  UNL1        0.1694
     33 C          20.9027   75.8661   -5.7605 C.3     1  UNL1        0.1761
     34 O          23.0645   72.6596   -7.1781 O.3     1  UNL1       -0.3775
     35 O          23.3090   75.1911   -8.5615 O.3     1  UNL1       -0.3794
     36 O          20.7095   76.0708   -8.1650 O.3     1  UNL1       -0.3794
     37 O          20.2671   74.5894   -5.8064 O.3     1  UNL1       -0.3258
     38 H          22.6083   71.8113   -7.0932 H       1  UNL1        0.2106
     39 H          23.9695   74.4914   -8.6416 H       1  UNL1        0.2105
     40 H          21.2148   76.2336   -8.9721 H       1  UNL1        0.2105
     41 C          19.8466   76.9522   -5.5437 C.3     1  UNL1        0.1693
     42 O          18.9834   76.5688   -4.4718 O.3     1  UNL1       -0.3794
     43 H          18.3347   77.2785   -4.3673 H       1  UNL1        0.2105
@<TRIPOS>BOND
     1    15    16   ar
     2    15    20   ar
     3    15     6    1
     4    16    17   ar
     5    16    21    2
     6    17    18   ar
     7    17    23    1
     8    18    19   ar
     9    18    22    2
    10    19    20   ar
    11     6     7    1
    12     6    11    1
    13     7     8    1
    14     7     9    1
    15     8    13    1
    16     9    10    1
    17     9    12    1
    18    10    11    1
    19    10     5    1
    20    12    14    1
    21     5     4    1
    22     4     1    1
    23     1     2    2
    24     1     3    1
    25     1    24    1
    26    24    25    1
    27    25    26    2
    28    25    27    1
    29    25    28    1
    30    28    29    1
    31    29    30    1
    32    29    37    1
    33    30    31    1
    34    30    34    1
    35    31    32    1
    36    31    35    1
    37    32    33    1
    38    32    36    1
    39    33    41    1
    40    33    37    1
    41    41    42    1
    42    34    38    1
    43    35    39    1
    44    36    40    1
    45    42    43    1
@<TRIPOS>MOLECULE
GDU
 43 45 0 0 0
SMALL
GASTEIGER

@<TRIPOS>ATOM
      1 P          20.7593   72.0752   -1.7972 P.3     1  UNL1        0.2189
      2 O          21.5406   70.8783   -2.1801 O.2     1  UNL1       -0.5170
      3 O          20.9420   73.2165   -2.9183 O.3     1  UNL1       -0.4371
      4 O          19.2036   71.6851   -1.6771 O.3     1  UNL1       -0.3112
      5 C          19.0138   70.4982   -2.4490 C.3     1  UNL1        0.1811
      6 C          17.2116   70.5183   -5.5601 C.3     1  UNL1        0.2383
      7 C          17.0663   69.0668   -5.0356 C.3     1  UNL1        0.1895
      8 O          15.8263   68.4941   -5.4570 O.3     1  UNL1       -0.3779
      9 C          17.0863   69.2732   -3.4986 C.3     1  UNL1        0.1713
     10 C          17.7607   70.6453   -3.3140 C.3     1  UNL1        0.1764
     11 O          18.1225   71.1266   -4.6200 O.3     1  UNL1       -0.3308
     12 O          15.7551   69.2886   -2.9793 O.3     1  UNL1       -0.3794
     13 H          15.7985   67.5955   -5.0997 H       1  UNL1        0.2106
     14 H          15.3672   68.4256   -3.1775 H       1  UNL1        0.2105
     15 N          17.7803   70.5272   -6.9089 N.ar    1  UNL1       -0.2551
     16 C          16.9674   70.4344   -7.9760 C.ar    1  UNL1        0.3323
     17 N          17.4644   70.4438   -9.2269 N.ar    1  UNL1       -0.2743
     18 C          18.7927   70.5369   -9.4301 C.ar    1  UNL1        0.2626
     19 C          19.6616   70.6294   -8.3154 C.ar    1  UNL1        0.0795
     20 C          19.1363   70.6220   -7.0718 C.ar    1  UNL1        0.0869
     21 O          15.7670   70.3504   -7.8085 O.2     1  UNL1       -0.2464
     22 O          19.2439   70.5406  -10.5619 O.2     1  UNL1       -0.2670
     23 H          16.8627   70.3804   -9.9856 H       1  UNL1        0.1734
     24 O          21.2863   72.6280   -0.3798 O.3     1  UNL1       -0.2703
     25 P          22.0849   71.4211    0.3241 P.3     1  UNL1        0.2208
     26 O          21.1679   70.2792    0.5340 O.2     1  UNL1       -0.5170
     27 O          23.3052   70.9619   -0.6215 O.3     1  UNL1       -0.4371
     28 O          22.6632   71.9141    1.7428 O.3     1  UNL1       -0.2858
     29 C          22.4574   73.3259    1.8068 C.3     1  UNL1        0.2704
     30 C          23.7652   74.0466    1.4754 C.3     1  UNL1        0.1967
     31 C          24.8415   73.6110    2.4746 C.3     1  UNL1        0.1715
     32 C          24.3127   73.8394    3.8951 C.3     1  UNL1        0.1694
     33 C          22.9633   73.1322    4.0435 C.3     1  UNL1        0.1761
     34 O          24.1757   73.7079    0.1495 O.3     1  UNL1       -0.3775
     35 O          26.0265   74.3835    2.2708 O.3     1  UNL1       -0.3794
     36 O          24.1516   75.2397    4.1256 O.3     1  UNL1       -0.3794
     37 O          22.0270   73.6827    3.1182 O.3     1  UNL1       -0.3258
     38 H          23.4670   73.9930   -0.4433 H       1  UNL1        0.2106
     39 H          26.3156   74.2187    1.3644 H       1  UNL1        0.2105
     40 H          25.0224   75.6434    4.0161 H       1  UNL1        0.2105
     41 C          22.4424   73.3253    5.4695 C.3     1  UNL1        0.1693
     42 O          21.0509   73.6462    5.4280 O.3     1  UNL1       -0.3794
     43 H          20.7622   73.7588    6.3441 H       1  UNL1        0.2105
@<TRIPOS>BOND
     1    15    16   ar
     2    15    20   ar
     3    15     6    1
     4    16    17   ar
     5    16    21    2
     6    17    18   ar
     7    17    23    1
     8    18    19   ar
     9    18    22    2
    10    19    20   ar
    11     6     7    1
    12     6    11    1
    13     7     8    1
    14     7     9    1
    15     8    13    1
    16     9    10    1
    17     9    12    1
    18    10    11    1
    19    10     5    1
    20    12    14    1
    21     5     4    1
    22     4     1    1
    23     1     2    2
    24     1     3    1
    25     1    24    1
    26    24    25    1
    27    25    26    2
    28    25    27    1
    29    25    28    1
    30    28    29    1
    31    29    30    1
    32    29    37    1
    33    30    31    1
    34    30    34    1
    35    31    32    1
    36    31    35    1
    37    32    33    1
    38    32    36    1
    39    33    41    1
    40    33    37    1
    41    41    42    1
    42    34    38    1
    43    35    39    1
    44    36    40    1
    45    42    43    1
@<TRIPOS>MOLECULE
GDU
 43 45 0 0 0
SMALL
GASTEIGER

@<TRIPOS>ATOM
      1 P          23.0651   71.7319   -3.4105 P.3     1  UNL1        0.2189
      2 O          24.2860   70.9957   -3.0144 O.2     1  UNL1       -0.5170
      3 O          22.9785   73.1113   -2.5843 O.3     1  UNL1       -0.4371
      4 O          23.1184   72.0523   -4.9858 O.3     1  UNL1       -0.3112
      5 C          22.4077   73.2755   -5.1835 C.3     1  UNL1        0.1811
      6 C          19.4556   72.1098   -6.8727 C.3     1  UNL1        0.2383
      7 C          19.0665   73.5088   -6.3300 C.3     1  UNL1        0.1895
      8 O          18.1093   74.1390   -7.1843 O.3     1  UNL1       -0.3779
      9 C          20.4223   74.2608   -6.3689 C.3     1  UNL1        0.1713
     10 C          21.4739   73.1359   -6.3871 C.3     1  UNL1        0.1764
     11 O          20.7679   71.8851   -6.3151 O.3     1  UNL1       -0.3308
     12 O          20.5159   75.0615   -7.5487 O.3     1  UNL1       -0.3794
     13 H          17.9104   75.0007   -6.7922 H       1  UNL1        0.2106
     14 H          19.7973   75.7069   -7.5070 H       1  UNL1        0.2105
     15 N          18.5143   71.0919   -6.4029 N.ar    1  UNL1       -0.2551
     16 C          17.5188   70.6817   -7.2084 C.ar    1  UNL1        0.3323
     17 N          16.6421   69.7446   -6.8020 N.ar    1  UNL1       -0.2743
     18 C          16.7431   69.2071   -5.5711 C.ar    1  UNL1        0.2626
     19 C          17.7833   69.6337   -4.7096 C.ar    1  UNL1        0.0795
     20 C          18.6515   70.5719   -5.1439 C.ar    1  UNL1        0.0869
     21 O          17.4152   71.1571   -8.3216 O.2     1  UNL1       -0.2464
     22 O          15.9472   68.3623   -5.2006 O.2     1  UNL1       -0.2670
     23 H          15.9322   69.4572   -7.3981 H       1  UNL1        0.1734
     24 O          21.7690   70.8326   -3.0881 O.3     1  UNL1       -0.2703
     25 P          20.9630   71.5802   -1.9127 P.3     1  UNL1        0.2208
     26 O          20.2969   72.7829   -2.4594 O.2     1  UNL1       -0.5170
     27 O          19.8541   70.5830   -1.3044 O.3     1  UNL1       -0.4371
     28 O          21.9876   72.0147   -0.7502 O.3     1  UNL1       -0.2858
     29 C          21.5982   71.3114    0.4303 C.3     1  UNL1        0.2704
     30 C          20.9940   72.2955    1.4332 C.3     1  UNL1        0.1967
     31 C          22.0325   73.3721    1.7629 C.3     1  UNL1        0.1715
     32 C          23.3233   72.6840    2.2210 C.3     1  UNL1        0.1694
     33 C          23.7522   71.6711    1.1565 C.3     1  UNL1        0.1761
     34 O          19.8335   72.9056    0.8654 O.3     1  UNL1       -0.3775
     35 O          21.5373   74.2132    2.8068 O.3     1  UNL1       -0.3794
     36 O          23.0930   72.0130    3.4606 O.3     1  UNL1       -0.3794
     37 O          22.7400   70.6774    1.0021 O.3     1  UNL1       -0.3258
     38 H          19.2117   72.1920    0.6675 H       1  UNL1        0.2106
     39 H          20.7220   74.6142    2.4802 H       1  UNL1        0.2105
     40 H          22.8204   72.6867    4.0972 H       1  UNL1        0.2105
     41 C          25.0593   71.0026    1.5884 C.3     1  UNL1        0.1693
     42 O          24.7797   69.6987    2.1009 O.3     1  UNL1       -0.3794
     43 H          25.6274   69.3123    2.3605 H       1  UNL1        0.2105
@<TRIPOS>BOND
     1    15    16   ar
     2    15    20   ar
     3    15     6    1
     4    16    17   ar
     5    16    21    2
     6    17    18   ar
     7    17    23    1
     8    18    19   ar
     9    18    22    2
    10    19    20   ar
    11     6     7    1
    12     6    11    1
    13     7     8    1
    14     7     9    1
    15     8    13    1
    16     9    10    1
    17     9    12    1
    18    10    11    1
    19    10     5    1
    20    12    14    1
    21     5     4    1
    22     4     1    1
    23     1     2    2
    24     1     3    1
    25     1    24    1
    26    24    25    1
    27    25    26    2
    28    25    27    1
    29    25    28    1
    30    28    29    1
    31    29    30    1
    32    29    37    1
    33    30    31    1
    34    30    34    1
    35    31    32    1
    36    31    35    1
    37    32    33    1
    38    32    36    1
    39    33    41    1
    40    33    37    1
    41    41    42    1
    42    34    38    1
    43    35    39    1
    44    36    40    1
    45    42    43    1
@<TRIPOS>MOLECULE
GDU
 43 45 0 0 0
SMALL
GASTEIGER

@<TRIPOS>ATOM
      1 P          20.4410   72.3215   -1.9577 P.3     1  UNL1        0.2189
      2 O          21.8531   72.7471   -2.0779 O.2     1  UNL1       -0.5170
      3 O          19.4791   73.6034   -2.1140 O.3     1  UNL1       -0.4371
      4 O          20.1022   71.2526   -3.1107 O.3     1  UNL1       -0.3112
      5 C          19.0641   70.4124   -2.6040 C.3     1  UNL1        0.1811
      6 C          17.2465   70.4565   -5.7059 C.3     1  UNL1        0.2383
      7 C          17.0855   69.0068   -5.1812 C.3     1  UNL1        0.1895
      8 O          15.8363   68.4499   -5.5964 O.3     1  UNL1       -0.3779
      9 C          17.1159   69.2123   -3.6442 C.3     1  UNL1        0.1713
     10 C          17.8086   70.5756   -3.4626 C.3     1  UNL1        0.1764
     11 O          18.1698   71.0528   -4.7703 O.3     1  UNL1       -0.3308
     12 O          15.7877   69.2443   -3.1181 O.3     1  UNL1       -0.3794
     13 H          15.7989   67.5516   -5.2393 H       1  UNL1        0.2106
     14 H          15.3878   68.3863   -3.3146 H       1  UNL1        0.2105
     15 N          17.8084   70.4587   -7.0576 N.ar    1  UNL1       -0.2551
     16 C          16.9864   70.4394   -8.1215 C.ar    1  UNL1        0.3323
     17 N          17.4773   70.4445   -9.3749 N.ar    1  UNL1       -0.2743
     18 C          18.8078   70.4592   -9.5840 C.ar    1  UNL1        0.2626
     19 C          19.6859   70.4738   -8.4727 C.ar    1  UNL1        0.0795
     20 C          19.1669   70.4726   -7.2265 C.ar    1  UNL1        0.0869
     21 O          15.7838   70.4266   -7.9487 O.2     1  UNL1       -0.2464
     22 O          19.2531   70.4590  -10.7181 O.2     1  UNL1       -0.2670
     23 H          16.8692   70.4347  -10.1312 H       1  UNL1        0.1734
     24 O          20.2054   71.6484   -0.5141 O.3     1  UNL1       -0.2703
     25 P          21.6600   71.3141    0.0878 P.3     1  UNL1        0.2208
     26 O          21.5632   70.1464    0.9913 O.2     1  UNL1       -0.5170
     27 O          22.6745   70.9771   -1.1169 O.3     1  UNL1       -0.4371
     28 O          22.2073   72.5853    0.9090 O.3     1  UNL1       -0.2858
     29 C          22.7219   72.0902    2.1459 C.3     1  UNL1        0.2704
     30 C          21.8770   72.6293    3.3012 C.3     1  UNL1        0.1967
     31 C          21.9143   74.1604    3.2741 C.3     1  UNL1        0.1715
     32 C          23.3783   74.6149    3.2691 C.3     1  UNL1        0.1694
     33 C          24.1093   73.9261    2.1140 C.3     1  UNL1        0.1761
     34 O          20.5285   72.1794    3.1586 O.3     1  UNL1       -0.3775
     35 O          21.2525   74.6774    4.4305 O.3     1  UNL1       -0.3794
     36 O          23.9927   74.2607    4.5088 O.3     1  UNL1       -0.3794
     37 O          24.0753   72.5116    2.2982 O.3     1  UNL1       -0.3258
     38 H          20.5538   71.2129    3.1738 H       1  UNL1        0.2106
     39 H          20.3420   74.3577    4.3982 H       1  UNL1        0.2105
     40 H          23.4975   74.7110    5.2054 H       1  UNL1        0.2105
     41 C          25.5642   74.3994    2.0790 C.3     1  UNL1        0.1693
     42 O          26.3847   73.4671    2.7852 O.3     1  UNL1       -0.3794
     43 H          27.2912   73.8009    2.7389 H       1  UNL1        0.2105
@<TRIPOS>BOND
     1    15    16   ar
     2    15    20   ar
     3    15     6    1
     4    16    17   ar
     5    16    21    2
     6    17    18   ar
     7    17    23    1
     8    18    19   ar
     9    18    22    2
    10    19    20   ar
    11     6     7    1
    12     6    11    1
    13     7     8    1
    14     7     9    1
    15     8    13    1
    16     9    10    1
    17     9    12    1
    18    10    11    1
    19    10     5    1
    20    12    14    1
    21     5     4    1
    22     4     1    1
    23     1     2    2
    24     1     3    1
    25     1    24    1
    26    24    25    1
    27    25    26    2
    28    25    27    1
    29    25    28    1
    30    28    29    1
    31    29    30    1
    32    29    37    1
    33    30    31    1
    34    30    34    1
    35    31    32    1
    36    31    35    1
    37    32    33    1
    38    32    36    1
    39    33    41    1
    40    33    37    1
    41    41    42    1
    42    34    38    1
    43    35    39    1
    44    36    40    1
    45    42    43    1
@<TRIPOS>MOLECULE
GDU
 43 45 0 0 0
SMALL
GASTEIGER

@<TRIPOS>ATOM
      1 P          20.6177   71.4357   -2.9126 P.3     1  UNL1        0.2189
      2 O          20.7881   72.3140   -4.0912 O.2     1  UNL1       -0.5170
      3 O          20.2796   72.3331   -1.6191 O.3     1  UNL1       -0.4371
      4 O          19.4124   70.4050   -3.1807 O.3     1  UNL1       -0.3112
      5 C          18.2404   70.9788   -2.5996 C.3     1  UNL1        0.1811
      6 C          16.7946   70.5128   -5.8584 C.3     1  UNL1        0.2383
      7 C          16.7872   69.0986   -5.2236 C.3     1  UNL1        0.1895
      8 O          15.6861   68.3274   -5.7093 O.3     1  UNL1       -0.3779
      9 C          16.6152   69.4200   -3.7162 C.3     1  UNL1        0.1713
     10 C          17.0787   70.8832   -3.5902 C.3     1  UNL1        0.1764
     11 O          17.5112   71.3116   -4.8931 O.3     1  UNL1       -0.3308
     12 O          15.2459   69.2869   -3.3300 O.3     1  UNL1       -0.3794
     13 H          15.7392   67.4631   -5.2780 H       1  UNL1        0.2106
     14 H          14.9989   68.3655   -3.4871 H       1  UNL1        0.2105
     15 N          17.4981   70.5007   -7.1420 N.ar    1  UNL1       -0.2551
     16 C          16.7947   70.5064   -8.2881 C.ar    1  UNL1        0.3323
     17 N          17.4171   70.4992   -9.4815 N.ar    1  UNL1       -0.2743
     18 C          18.7623   70.4760   -9.5467 C.ar    1  UNL1        0.2626
     19 C          19.5162   70.4640   -8.3477 C.ar    1  UNL1        0.0795
     20 C          18.8667   70.4759   -7.1643 C.ar    1  UNL1        0.0869
     21 O          15.5807   70.5278   -8.2451 O.2     1  UNL1       -0.2464
     22 O          19.3265   70.4646  -10.6265 O.2     1  UNL1       -0.2670
     23 H          16.8937   70.5078  -10.2987 H       1  UNL1        0.1734
     24 O          21.9791   70.6158   -2.6543 O.3     1  UNL1       -0.2703
     25 P          23.1097   71.6963   -2.2744 P.3     1  UNL1        0.2208
     26 O          24.4386   71.0462   -2.2915 O.2     1  UNL1       -0.5170
     27 O          23.0863   72.8969   -3.3478 O.3     1  UNL1       -0.4371
     28 O          22.8182   72.2857   -0.8055 O.3     1  UNL1       -0.2858
     29 C          23.3226   71.3331    0.1314 C.3     1  UNL1        0.2704
     30 C          22.2199   70.9627    1.1245 C.3     1  UNL1        0.1967
     31 C          21.7494   72.2311    1.8430 C.3     1  UNL1        0.1715
     32 C          22.9696   72.9296    2.4537 C.3     1  UNL1        0.1694
     33 C          24.0154   73.1526    1.3584 C.3     1  UNL1        0.1761
     34 O          21.1232   70.3729    0.4241 O.3     1  UNL1       -0.3775
     35 O          20.8255   71.8830    2.8763 O.3     1  UNL1       -0.3794
     36 O          23.5203   72.1123    3.4875 O.3     1  UNL1       -0.3794
     37 O          24.4323   71.8955    0.8277 O.3     1  UNL1       -0.3258
     38 H          21.4661   69.5842   -0.0177 H       1  UNL1        0.2106
     39 H          20.0829   71.4374    2.4492 H       1  UNL1        0.2105
     40 H          22.8272   71.9940    4.1500 H       1  UNL1        0.2105
     41 C          25.2243   73.8806    1.9506 C.3     1  UNL1        0.1693
     42 O          24.8184   74.6126    3.1083 O.3     1  UNL1       -0.3794
     43 H          25.6073   75.0549    3.4506 H       1  UNL1        0.2105
@<TRIPOS>BOND
     1    15    16   ar
     2    15    20   ar
     3    15     6    1
     4    16    17   ar
     5    16    21    2
     6    17    18   ar
     7    17    23    1
     8    18    19   ar
     9    18    22    2
    10    19    20   ar
    11     6     7    1
    12     6    11    1
    13     7     8    1
    14     7     9    1
    15     8    13    1
    16     9    10    1
    17     9    12    1
    18    10    11    1
    19    10     5    1
    20    12    14    1
    21     5     4    1
    22     4     1    1
    23     1     2    2
    24     1     3    1
    25     1    24    1
    26    24    25    1
    27    25    26    2
    28    25    27    1
    29    25    28    1
    30    28    29    1
    31    29    30    1
    32    29    37    1
    33    30    31    1
    34    30    34    1
    35    31    32    1
    36    31    35    1
    37    32    33    1
    38    32    36    1
    39    33    41    1
    40    33    37    1
    41    41    42    1
    42    34    38    1
    43    35    39    1
    44    36    40    1
    45    42    43    1
@<TRIPOS>MOLECULE
GDU
 43 45 0 0 0
SMALL
GASTEIGER

@<TRIPOS>ATOM
      1 P          16.5026   70.8744   -2.6482 P.3     1  UNL1        0.2189
      2 O          16.7284   72.1690   -1.9681 O.2     1  UNL1       -0.5170
      3 O          17.5346   69.7796   -2.0743 O.3     1  UNL1       -0.4371
      4 O          14.9948   70.3828   -2.3803 O.3     1  UNL1       -0.3112
      5 C          15.0184   69.6120   -1.1779 C.3     1  UNL1        0.1811
      6 C          12.5209   68.1576    0.9610 C.3     1  UNL1        0.2383
      7 C          12.5065   69.6665    1.3160 C.3     1  UNL1        0.1895
      8 O          11.2017   70.0812    1.7268 O.3     1  UNL1       -0.3779
      9 C          12.8954   70.3218   -0.0347 C.3     1  UNL1        0.1713
     10 C          13.5940   69.1908   -0.8120 C.3     1  UNL1        0.1764
     11 O          13.6309   68.0374    0.0462 O.3     1  UNL1       -0.3308
     12 O          11.7282   70.7677   -0.7281 O.3     1  UNL1       -0.3794
     13 H          11.2609   71.0246    1.9327 H       1  UNL1        0.2106
     14 H          11.3043   71.4300   -0.1657 H       1  UNL1        0.2105
     15 N          12.7485   67.3460    2.1578 N.ar    1  UNL1       -0.2551
     16 C          12.5310   66.0197    2.1154 C.ar    1  UNL1        0.3323
     17 N          12.7360   65.2503    3.2007 N.ar    1  UNL1       -0.2743
     18 C          13.1553   65.8018    4.3558 C.ar    1  UNL1        0.2626
     19 C          13.3830   67.1984    4.4168 C.ar    1  UNL1        0.0795
     20 C          13.1736   67.9461    3.3125 C.ar    1  UNL1        0.0869
     21 O          12.1531   65.5079    1.0803 O.2     1  UNL1       -0.2464
     22 O          13.3365   65.1068    5.3400 O.2     1  UNL1       -0.2670
     23 H          12.5780   64.2941    3.1509 H       1  UNL1        0.1734
     24 O          16.7370   71.0528   -4.2311 O.3     1  UNL1       -0.2703
     25 P          17.1424   69.6064   -4.8088 P.3     1  UNL1        0.2208
     26 O          18.2900   69.0733   -4.0422 O.2     1  UNL1       -0.5170
     27 O          15.8908   68.6025   -4.6678 O.3     1  UNL1       -0.4371
     28 O          17.5483   69.7415   -6.3602 O.3     1  UNL1       -0.2858
     29 C          17.6988   71.1359   -6.6299 C.3     1  UNL1        0.2704
     30 C          17.6331   71.3725   -8.1396 C.3     1  UNL1        0.1967
     31 C          18.7447   70.5671   -8.8193 C.3     1  UNL1        0.1715
     32 C          20.0818   70.9247   -8.1606 C.3     1  UNL1        0.1694
     33 C          19.9622   70.7199   -6.6484 C.3     1  UNL1        0.1761
     34 O          16.3617   70.9494   -8.6354 O.3     1  UNL1       -0.3775
     35 O          18.7903   70.8910  -10.2105 O.3     1  UNL1       -0.3794
     36 O          20.4021   72.2884   -8.4391 O.3     1  UNL1       -0.3794
     37 O          18.9544   71.5832   -6.1240 O.3     1  UNL1       -0.3258
     38 H          15.6937   71.4764   -8.1761 H       1  UNL1        0.2106
     39 H          17.9281   70.6616  -10.5797 H       1  UNL1        0.2105
     40 H          20.4614   72.3714   -9.3998 H       1  UNL1        0.2105
     41 C          21.3030   71.0415   -5.9843 C.3     1  UNL1        0.1693
     42 O          21.1348   72.1324   -5.0773 O.3     1  UNL1       -0.3794
     43 H          22.0002   72.3024   -4.6805 H       1  UNL1        0.2105
@<TRIPOS>BOND
     1    15    16   ar
     2    15    20   ar
     3    15     6    1
     4    16    17   ar
     5    16    21    2
     6    17    18   ar
     7    17    23    1
     8    18    19   ar
     9    18    22    2
    10    19    20   ar
    11     6     7    1
    12     6    11    1
    13     7     8    1
    14     7     9    1
    15     8    13    1
    16     9    10    1
    17     9    12    1
    18    10    11    1
    19    10     5    1
    20    12    14    1
    21     5     4    1
    22     4     1    1
    23     1     2    2
    24     1     3    1
    25     1    24    1
    26    24    25    1
    27    25    26    2
    28    25    27    1
    29    25    28    1
    30    28    29    1
    31    29    30    1
    32    29    37    1
    33    30    31    1
    34    30    34    1
    35    31    32    1
    36    31    35    1
    37    32    33    1
    38    32    36    1
    39    33    41    1
    40    33    37    1
    41    41    42    1
    42    34    38    1
    43    35    39    1
    44    36    40    1
    45    42    43    1
@<TRIPOS>MOLECULE
GDU
 43 45 0 0 0
SMALL
GASTEIGER

@<TRIPOS>ATOM
      1 P          20.7329   71.4020   -1.0885 P.3     1  UNL1        0.2189
      2 O          21.1305   72.8145   -0.8979 O.2     1  UNL1       -0.5170
      3 O          20.8891   70.6080    0.3036 O.3     1  UNL1       -0.4371
      4 O          19.2012   71.3362   -1.5748 O.3     1  UNL1       -0.3112
      5 C          19.1301   70.3264   -2.5826 C.3     1  UNL1        0.1811
      6 C          17.2823   70.4561   -5.6642 C.3     1  UNL1        0.2383
      7 C          17.0893   69.0046   -5.1556 C.3     1  UNL1        0.1895
      8 O          15.8218   68.4853   -5.5644 O.3     1  UNL1       -0.3779
      9 C          17.1409   69.1899   -3.6167 C.3     1  UNL1        0.1713
     10 C          17.8704   70.5326   -3.4258 C.3     1  UNL1        0.1764
     11 O          18.2304   71.0167   -4.7312 O.3     1  UNL1       -0.3308
     12 O          15.8195   69.2496   -3.0762 O.3     1  UNL1       -0.3794
     13 H          15.7649   67.5839   -5.2179 H       1  UNL1        0.2106
     14 H          15.3955   68.4047   -3.2789 H       1  UNL1        0.2105
     15 N          17.8301   70.4608   -7.0217 N.ar    1  UNL1       -0.2551
     16 C          16.9971   70.4407   -8.0771 C.ar    1  UNL1        0.3323
     17 N          17.4749   70.4480   -9.3354 N.ar    1  UNL1       -0.2743
     18 C          18.8031   70.4658   -9.5584 C.ar    1  UNL1        0.2626
     19 C          19.6927   70.4814   -8.4563 C.ar    1  UNL1        0.0795
     20 C          19.1867   70.4779   -7.2047 C.ar    1  UNL1        0.0869
     21 O          15.7964   70.4250   -7.8917 O.2     1  UNL1       -0.2464
     22 O          19.2366   70.4676  -10.6971 O.2     1  UNL1       -0.2670
     23 H          16.8590   70.4375  -10.0853 H       1  UNL1        0.1734
     24 O          21.6799   70.7243   -2.2004 O.3     1  UNL1       -0.2703
     25 P          23.0450   71.5760   -2.2325 P.3     1  UNL1        0.2208
     26 O          23.4890   71.8483   -0.8477 O.2     1  UNL1       -0.5170
     27 O          24.1825   70.7373   -3.0051 O.3     1  UNL1       -0.4371
     28 O          22.7924   72.9681   -2.9996 O.3     1  UNL1       -0.2858
     29 C          23.9380   73.2040   -3.8193 C.3     1  UNL1        0.2704
     30 C          24.3101   74.6863   -3.7597 C.3     1  UNL1        0.1967
     31 C          23.1187   75.5193   -4.2426 C.3     1  UNL1        0.1715
     32 C          22.6916   75.0090   -5.6235 C.3     1  UNL1        0.1694
     33 C          22.4401   73.5014   -5.5411 C.3     1  UNL1        0.1761
     34 O          24.6332   75.0450   -2.4150 O.3     1  UNL1       -0.3775
     35 O          23.4990   76.8940   -4.3326 O.3     1  UNL1       -0.3794
     36 O          23.7259   75.2746   -6.5719 O.3     1  UNL1       -0.3794
     37 O          23.6428   72.8327   -5.1637 O.3     1  UNL1       -0.3258
     38 H          25.3814   74.4925   -2.1510 H       1  UNL1        0.2106
     39 H          23.7704   77.1678   -3.4474 H       1  UNL1        0.2105
     40 H          23.8537   76.2321   -6.5860 H       1  UNL1        0.2105
     41 C          21.9797   72.9874   -6.9070 C.3     1  UNL1        0.1693
     42 O          21.2403   74.0108   -7.5756 O.3     1  UNL1       -0.3794
     43 H          20.9699   73.6479   -8.4302 H       1  UNL1        0.2105
@<TRIPOS>BOND
     1    15    16   ar
     2    15    20   ar
     3    15     6    1
     4    16    17   ar
     5    16    21    2
     6    17    18   ar
     7    17    23    1
     8    18    19   ar
     9    18    22    2
    10    19    20   ar
    11     6     7    1
    12     6    11    1
    13     7     8    1
    14     7     9    1
    15     8    13    1
    16     9    10    1
    17     9    12    1
    18    10    11    1
    19    10     5    1
    20    12    14    1
    21     5     4    1
    22     4     1    1
    23     1     2    2
    24     1     3    1
    25     1    24    1
    26    24    25    1
    27    25    26    2
    28    25    27    1
    29    25    28    1
    30    28    29    1
    31    29    30    1
    32    29    37    1
    33    30    31    1
    34    30    34    1
    35    31    32    1
    36    31    35    1
    37    32    33    1
    38    32    36    1
    39    33    41    1
    40    33    37    1
    41    41    42    1
    42    34    38    1
    43    35    39    1
    44    36    40    1
    45    42    43    1
@<TRIPOS>MOLECULE
GDU
 43 45 0 0 0
SMALL
GASTEIGER

@<TRIPOS>ATOM
      1 P          20.4864   71.3046   -2.1114 P.3     1  UNL1        0.2189
      2 O          19.6016   70.2720   -1.5278 O.2     1  UNL1       -0.5170
      3 O          21.9004   70.6408   -2.5027 O.3     1  UNL1       -0.4371
      4 O          19.7988   71.9185   -3.4294 O.3     1  UNL1       -0.3112
      5 C          18.6459   72.6420   -2.9959 C.3     1  UNL1        0.1811
      6 C          17.1400   71.4433   -6.0328 C.3     1  UNL1        0.2383
      7 C          17.1498   70.2121   -5.0911 C.3     1  UNL1        0.1895
      8 O          16.0424   69.3511   -5.3658 O.3     1  UNL1       -0.3779
      9 C          17.0054   70.8703   -3.6942 C.3     1  UNL1        0.1713
     10 C          17.4659   72.3230   -3.9157 C.3     1  UNL1        0.1764
     11 O          17.8720   72.4413   -5.2902 O.3     1  UNL1       -0.3308
     12 O          15.6441   70.8304   -3.2615 O.3     1  UNL1       -0.3794
     13 H          16.1068   68.6084   -4.7492 H       1  UNL1        0.2106
     14 H          15.3975   69.8977   -3.1986 H       1  UNL1        0.2105
     15 N          17.8190   71.1370   -7.2930 N.ar    1  UNL1       -0.2551
     16 C          17.1073   70.6885   -8.3421 C.ar    1  UNL1        0.3323
     17 N          17.7067   70.4028   -9.5129 N.ar    1  UNL1       -0.2743
     18 C          19.0382   70.5534   -9.6497 C.ar    1  UNL1        0.2626
     19 C          19.8015   71.0195   -8.5514 C.ar    1  UNL1        0.0795
     20 C          19.1745   71.3025   -7.3898 C.ar    1  UNL1        0.0869
     21 O          15.9053   70.5481   -8.2339 O.2     1  UNL1       -0.2464
     22 O          19.5823   70.2905  -10.7077 O.2     1  UNL1       -0.2670
     23 H          17.1769   70.0842  -10.2610 H       1  UNL1        0.1734
     24 O          20.7253   72.4767   -1.0337 O.3     1  UNL1       -0.2703
     25 P          21.5390   71.8246    0.1922 P.3     1  UNL1        0.2208
     26 O          21.0540   70.4470    0.4286 O.2     1  UNL1       -0.5170
     27 O          23.1089   71.7863   -0.1661 O.3     1  UNL1       -0.4371
     28 O          21.3139   72.7088    1.5179 O.3     1  UNL1       -0.2858
     29 C          22.5831   73.2623    1.8681 C.3     1  UNL1        0.2704
     30 C          23.0626   72.6447    3.1826 C.3     1  UNL1        0.1967
     31 C          22.0276   72.9313    4.2749 C.3     1  UNL1        0.1715
     32 C          21.7681   74.4413    4.3201 C.3     1  UNL1        0.1694
     33 C          21.3845   74.9225    2.9186 C.3     1  UNL1        0.1761
     34 O          23.2124   71.2330    3.0216 O.3     1  UNL1       -0.3775
     35 O          22.5284   72.4897    5.5386 O.3     1  UNL1       -0.3794
     36 O          22.9491   75.1163    4.7557 O.3     1  UNL1       -0.3794
     37 O          22.4596   74.6751    2.0136 O.3     1  UNL1       -0.3258
     38 H          23.8658   71.0999    2.3215 H       1  UNL1        0.2106
     39 H          22.6880   71.5407    5.4602 H       1  UNL1        0.2105
     40 H          23.1556   74.7785    5.6369 H       1  UNL1        0.2105
     41 C          21.0898   76.4237    2.9595 C.3     1  UNL1        0.1693
     42 O          19.8621   76.6860    2.2775 O.3     1  UNL1       -0.3794
     43 H          19.7129   77.6402    2.3268 H       1  UNL1        0.2105
@<TRIPOS>BOND
     1    15    16   ar
     2    15    20   ar
     3    15     6    1
     4    16    17   ar
     5    16    21    2
     6    17    18   ar
     7    17    23    1
     8    18    19   ar
     9    18    22    2
    10    19    20   ar
    11     6     7    1
    12     6    11    1
    13     7     8    1
    14     7     9    1
    15     8    13    1
    16     9    10    1
    17     9    12    1
    18    10    11    1
    19    10     5    1
    20    12    14    1
    21     5     4    1
    22     4     1    1
    23     1     2    2
    24     1     3    1
    25     1    24    1
    26    24    25    1
    27    25    26    2
    28    25    27    1
    29    25    28    1
    30    28    29    1
    31    29    30    1
    32    29    37    1
    33    30    31    1
    34    30    34    1
    35    31    32    1
    36    31    35    1
    37    32    33    1
    38    32    36    1
    39    33    41    1
    40    33    37    1
    41    41    42    1
    42    34    38    1
    43    35    39    1
    44    36    40    1
    45    42    43    1
@<TRIPOS>MOLECULE
GDU
 43 45 0 0 0
SMALL
GASTEIGER

@<TRIPOS>ATOM
      1 P          22.8313   72.2710   -3.9747 P.3     1  UNL1        0.2189
      2 O          24.2748   72.4016   -3.6770 O.2     1  UNL1       -0.5170
      3 O          22.0630   73.6049   -3.5018 O.3     1  UNL1       -0.4371
      4 O          22.6256   72.0656   -5.5566 O.3     1  UNL1       -0.3112
      5 C          21.3113   72.5313   -5.8669 C.3     1  UNL1        0.1811
      6 C          18.4088   70.4380   -5.5195 C.3     1  UNL1        0.2383
      7 C          18.0153   71.4718   -6.6055 C.3     1  UNL1        0.1895
      8 O          17.0953   70.9039   -7.5406 O.3     1  UNL1       -0.3779
      9 C          19.3792   71.7678   -7.2817 C.3     1  UNL1        0.1713
     10 C          20.4192   71.3425   -6.2286 C.3     1  UNL1        0.1764
     11 O          19.6982   70.9010   -5.0652 O.3     1  UNL1       -0.3308
     12 O          19.5226   70.9966   -8.4761 O.3     1  UNL1       -0.3794
     13 H          16.8915   71.5950   -8.1861 H       1  UNL1        0.2106
     14 H          18.8096   71.2662   -9.0708 H       1  UNL1        0.2105
     15 N          17.4412   70.4468   -4.4211 N.ar    1  UNL1       -0.2551
     16 C          16.4725   69.5151   -4.3783 C.ar    1  UNL1        0.3323
     17 N          15.5725   69.4988   -3.3775 N.ar    1  UNL1       -0.2743
     18 C          15.6226   70.4271   -2.4028 C.ar    1  UNL1        0.2626
     19 C          16.6340   71.4181   -2.4381 C.ar    1  UNL1        0.0795
     20 C          17.5265   71.4088   -3.4509 C.ar    1  UNL1        0.0869
     21 O          16.4149   68.6710   -5.2502 O.2     1  UNL1       -0.2464
     22 O          14.8055   70.4160   -1.4991 O.2     1  UNL1       -0.2670
     23 H          14.8827   68.8164   -3.3601 H       1  UNL1        0.1734
     24 O          22.2343   71.0011   -3.1852 O.3     1  UNL1       -0.2703
     25 P          21.3806   71.5791   -1.9494 P.3     1  UNL1        0.2208
     26 O          20.6565   72.7964   -2.3769 O.2     1  UNL1       -0.5170
     27 O          20.3209   70.4678   -1.4632 O.3     1  UNL1       -0.4371
     28 O          22.3715   71.9418   -0.7343 O.3     1  UNL1       -0.2858
     29 C          21.9235   71.2010    0.4017 C.3     1  UNL1        0.2704
     30 C          21.1914   72.1377    1.3640 C.3     1  UNL1        0.1967
     31 C          22.1445   73.2584    1.7907 C.3     1  UNL1        0.1715
     32 C          23.4269   72.6268    2.3442 C.3     1  UNL1        0.1694
     33 C          23.9909   71.6538    1.3058 C.3     1  UNL1        0.1761
     34 O          20.0517   72.6994    0.7108 O.3     1  UNL1       -0.3775
     35 O          21.5249   74.0569    2.8010 O.3     1  UNL1       -0.3794
     36 O          23.1309   71.9251    3.5525 O.3     1  UNL1       -0.3794
     37 O          23.0456   70.6144    1.0569 O.3     1  UNL1       -0.3258
     38 H          19.4845   71.9596    0.4541 H       1  UNL1        0.2106
     39 H          20.7196   74.4228    2.4138 H       1  UNL1        0.2105
     40 H          22.7743   72.5741    4.1729 H       1  UNL1        0.2105
     41 C          25.2906   71.0431    1.8348 C.3     1  UNL1        0.1693
     42 O          24.9868   69.9044    2.6423 O.3     1  UNL1       -0.3794
     43 H          25.8305   69.5496    2.9545 H       1  UNL1        0.2105
@<TRIPOS>BOND
     1    15    16   ar
     2    15    20   ar
     3    15     6    1
     4    16    17   ar
     5    16    21    2
     6    17    18   ar
     7    17    23    1
     8    18    19   ar
     9    18    22    2
    10    19    20   ar
    11     6     7    1
    12     6    11    1
    13     7     8    1
    14     7     9    1
    15     8    13    1
    16     9    10    1
    17     9    12    1
    18    10    11    1
    19    10     5    1
    20    12    14    1
    21     5     4    1
    22     4     1    1
    23     1     2    2
    24     1     3    1
    25     1    24    1
    26    24    25    1
    27    25    26    2
    28    25    27    1
    29    25    28    1
    30    28    29    1
    31    29    30    1
    32    29    37    1
    33    30    31    1
    34    30    34    1
    35    31    32    1
    36    31    35    1
    37    32    33    1
    38    32    36    1
    39    33    41    1
    40    33    37    1
    41    41    42    1
    42    34    38    1
    43    35    39    1
    44    36    40    1
    45    42    43    1
@<TRIPOS>MOLECULE
GDU
 43 45 0 0 0
SMALL
GASTEIGER

@<TRIPOS>ATOM
      1 P          23.4703   72.3324   -3.2242 P.3     1  UNL1        0.2189
      2 O          24.0577   70.9745   -3.2491 O.2     1  UNL1       -0.5170
      3 O          24.5235   73.3839   -3.8392 O.3     1  UNL1       -0.4371
      4 O          22.1211   72.3500   -4.0995 O.3     1  UNL1       -0.3112
      5 C          22.5182   72.3884   -5.4711 C.3     1  UNL1        0.1811
      6 C          19.4062   70.7080   -6.1185 C.3     1  UNL1        0.2383
      7 C          19.2388   72.1029   -6.7736 C.3     1  UNL1        0.1895
      8 O          18.3789   72.0312   -7.9132 O.3     1  UNL1       -0.3779
      9 C          20.6922   72.4392   -7.1976 C.3     1  UNL1        0.1713
     10 C          21.5614   71.5342   -6.3049 C.3     1  UNL1        0.1764
     11 O          20.6752   70.8056   -5.4377 O.3     1  UNL1       -0.3308
     12 O          20.8932   72.1326   -8.5787 O.3     1  UNL1       -0.3794
     13 H          18.3166   72.9273   -8.2723 H       1  UNL1        0.2106
     14 H          20.2809   72.6873   -9.0808 H       1  UNL1        0.2105
     15 N          18.3269   70.4514   -5.1634 N.ar    1  UNL1       -0.2551
     16 C          17.2113   69.8211   -5.5714 C.ar    1  UNL1        0.3323
     17 N          16.2057   69.5698   -4.7126 N.ar    1  UNL1       -0.2743
     18 C          16.2977   69.9569   -3.4258 C.ar    1  UNL1        0.2626
     19 C          17.4645   70.6270   -2.9832 C.ar    1  UNL1        0.0795
     20 C          18.4598   70.8625   -3.8644 C.ar    1  UNL1        0.0869
     21 O          17.1140   69.4655   -6.7290 O.2     1  UNL1       -0.2464
     22 O          15.3860   69.7342   -2.6488 O.2     1  UNL1       -0.2670
     23 H          15.4095   69.1100   -5.0232 H       1  UNL1        0.1734
     24 O          23.1310   72.7415   -1.7044 O.3     1  UNL1       -0.2703
     25 P          21.6265   72.2497   -1.4135 P.3     1  UNL1        0.2208
     26 O          20.6724   73.1521   -2.0949 O.2     1  UNL1       -0.5170
     27 O          21.4358   70.7498   -1.9686 O.3     1  UNL1       -0.4371
     28 O          21.3502   72.2730    0.1718 O.3     1  UNL1       -0.2858
     29 C          22.0308   73.4144    0.6949 C.3     1  UNL1        0.2704
     30 C          22.9377   72.9821    1.8482 C.3     1  UNL1        0.1967
     31 C          22.0834   72.3179    2.9323 C.3     1  UNL1        0.1715
     32 C          20.9497   73.2749    3.3175 C.3     1  UNL1        0.1694
     33 C          20.1917   73.6836    2.0521 C.3     1  UNL1        0.1761
     34 O          23.9120   72.0536    1.3687 O.3     1  UNL1       -0.3775
     35 O          22.8916   72.0413    4.0781 O.3     1  UNL1       -0.3794
     36 O          21.4963   74.4339    3.9483 O.3     1  UNL1       -0.3794
     37 O          21.0745   74.3636    1.1608 O.3     1  UNL1       -0.3258
     38 H          24.4205   72.5109    0.6851 H       1  UNL1        0.2106
     39 H          23.5957   71.4480    3.7873 H       1  UNL1        0.2105
     40 H          21.9678   74.1287    4.7343 H       1  UNL1        0.2105
     41 C          19.0357   74.6126    2.4297 C.3     1  UNL1        0.1693
     42 O          19.2044   75.8716    1.7758 O.3     1  UNL1       -0.3794
     43 H          18.4569   76.4260    2.0389 H       1  UNL1        0.2105
@<TRIPOS>BOND
     1    15    16   ar
     2    15    20   ar
     3    15     6    1
     4    16    17   ar
     5    16    21    2
     6    17    18   ar
     7    17    23    1
     8    18    19   ar
     9    18    22    2
    10    19    20   ar
    11     6     7    1
    12     6    11    1
    13     7     8    1
    14     7     9    1
    15     8    13    1
    16     9    10    1
    17     9    12    1
    18    10    11    1
    19    10     5    1
    20    12    14    1
    21     5     4    1
    22     4     1    1
    23     1     2    2
    24     1     3    1
    25     1    24    1
    26    24    25    1
    27    25    26    2
    28    25    27    1
    29    25    28    1
    30    28    29    1
    31    29    30    1
    32    29    37    1
    33    30    31    1
    34    30    34    1
    35    31    32    1
    36    31    35    1
    37    32    33    1
    38    32    36    1
    39    33    41    1
    40    33    37    1
    41    41    42    1
    42    34    38    1
    43    35    39    1
    44    36    40    1
    45    42    43    1
@<TRIPOS>MOLECULE
GDU
 43 45 0 0 0
SMALL
GASTEIGER

@<TRIPOS>ATOM
      1 P          20.7792   71.4787   -1.5379 P.3     1  UNL1        0.2189
      2 O          19.8483   70.3481   -1.3266 O.2     1  UNL1       -0.5170
      3 O          22.2667   70.9112   -1.7792 O.3     1  UNL1       -0.4371
      4 O          20.3127   72.3254   -2.8233 O.3     1  UNL1       -0.3112
      5 C          21.5009   72.7344   -3.5027 C.3     1  UNL1        0.1811
      6 C          20.4087   71.1604   -6.5452 C.3     1  UNL1        0.2383
      7 C          20.9864   72.5254   -6.9990 C.3     1  UNL1        0.1895
      8 O          21.5431   72.4323   -8.3123 O.3     1  UNL1       -0.3779
      9 C          22.0958   72.7754   -5.9445 C.3     1  UNL1        0.1713
     10 C          21.6924   71.8808   -4.7576 C.3     1  UNL1        0.1764
     11 O          20.4538   71.2376   -5.1046 O.3     1  UNL1       -0.3308
     12 O          23.3713   72.3890   -6.4600 O.3     1  UNL1       -0.3794
     13 H          21.8832   73.3104   -8.5339 H       1  UNL1        0.2106
     14 H          23.5401   72.9431   -7.2340 H       1  UNL1        0.2105
     15 N          19.0299   71.0012   -7.0103 N.ar    1  UNL1       -0.2551
     16 C          18.7842   70.3367   -8.1533 C.ar    1  UNL1        0.3323
     17 N          17.5254   70.1732   -8.6012 N.ar    1  UNL1       -0.2743
     18 C          16.4868   70.6842   -7.9125 C.ar    1  UNL1        0.2626
     19 C          16.7310   71.3915   -6.7098 C.ar    1  UNL1        0.0795
     20 C          18.0027   71.5372   -6.2811 C.ar    1  UNL1        0.0869
     21 O          19.7108   69.8697   -8.7852 O.2     1  UNL1       -0.2464
     22 O          15.3474   70.5409   -8.3196 O.2     1  UNL1       -0.2670
     23 H          17.3661   69.6872   -9.4259 H       1  UNL1        0.1734
     24 O          20.7729   72.4279   -0.2373 O.3     1  UNL1       -0.2703
     25 P          21.6983   71.7118    0.8675 P.3     1  UNL1        0.2208
     26 O          21.4213   70.2584    0.8757 O.2     1  UNL1       -0.5170
     27 O          23.2492   71.9599    0.5106 O.3     1  UNL1       -0.4371
     28 O          21.3777   72.3284    2.3191 O.3     1  UNL1       -0.2858
     29 C          21.9321   73.6444    2.3426 C.3     1  UNL1        0.2704
     30 C          22.9277   73.7569    3.4982 C.3     1  UNL1        0.1967
     31 C          22.2024   73.4520    4.8126 C.3     1  UNL1        0.1715
     32 C          20.9750   74.3640    4.9180 C.3     1  UNL1        0.1694
     33 C          20.1259   74.2038    3.6545 C.3     1  UNL1        0.1761
     34 O          23.9900   72.8207    3.3077 O.3     1  UNL1       -0.3775
     35 O          23.0807   73.6959    5.9133 O.3     1  UNL1       -0.3794
     36 O          21.3983   75.7221    5.0459 O.3     1  UNL1       -0.3794
     37 O          20.8846   74.5966    2.5117 O.3     1  UNL1       -0.3258
     38 H          24.4126   73.0455    2.4676 H       1  UNL1        0.2106
     39 H          23.8409   73.1115    5.7996 H       1  UNL1        0.2105
     40 H          21.9327   75.7742    5.8490 H       1  UNL1        0.2105
     41 C          18.8794   75.0849    3.7646 C.3     1  UNL1        0.1693
     42 O          17.9022   74.4273    4.5731 O.3     1  UNL1       -0.3794
     43 H          17.1350   75.0144    4.6178 H       1  UNL1        0.2105
@<TRIPOS>BOND
     1    15    16   ar
     2    15    20   ar
     3    15     6    1
     4    16    17   ar
     5    16    21    2
     6    17    18   ar
     7    17    23    1
     8    18    19   ar
     9    18    22    2
    10    19    20   ar
    11     6     7    1
    12     6    11    1
    13     7     8    1
    14     7     9    1
    15     8    13    1
    16     9    10    1
    17     9    12    1
    18    10    11    1
    19    10     5    1
    20    12    14    1
    21     5     4    1
    22     4     1    1
    23     1     2    2
    24     1     3    1
    25     1    24    1
    26    24    25    1
    27    25    26    2
    28    25    27    1
    29    25    28    1
    30    28    29    1
    31    29    30    1
    32    29    37    1
    33    30    31    1
    34    30    34    1
    35    31    32    1
    36    31    35    1
    37    32    33    1
    38    32    36    1
    39    33    41    1
    40    33    37    1
    41    41    42    1
    42    34    38    1
    43    35    39    1
    44    36    40    1
    45    42    43    1
@<TRIPOS>MOLECULE
GDU
 43 45 0 0 0
SMALL
GASTEIGER

@<TRIPOS>ATOM
      1 P          20.2470   71.1658   -1.6576 P.3     1  UNL1        0.2189
      2 O          20.2958   70.8324   -0.2168 O.2     1  UNL1       -0.5170
      3 O          21.5563   70.5790   -2.3887 O.3     1  UNL1       -0.4371
      4 O          18.9297   70.5177   -2.3145 O.3     1  UNL1       -0.3112
      5 C          18.0274   71.5931   -2.5790 C.3     1  UNL1        0.1811
      6 C          16.8131   70.5007   -5.7821 C.3     1  UNL1        0.2383
      7 C          17.1420   69.1898   -5.0229 C.3     1  UNL1        0.1895
      8 O          16.2767   68.1300   -5.4368 O.3     1  UNL1       -0.3779
      9 C          16.8631   69.5884   -3.5503 C.3     1  UNL1        0.1713
     10 C          16.9473   71.1261   -3.5565 C.3     1  UNL1        0.1764
     11 O          17.2887   71.5334   -4.8928 O.3     1  UNL1       -0.3308
     12 O          15.5611   69.1536   -3.1531 O.3     1  UNL1       -0.3794
     13 H          16.5326   67.3469   -4.9298 H       1  UNL1        0.2106
     14 H          15.5532   68.1896   -3.2267 H       1  UNL1        0.2105
     15 N          17.5255   70.5520   -7.0598 N.ar    1  UNL1       -0.2551
     16 C          16.8315   70.5344   -8.2115 C.ar    1  UNL1        0.3323
     17 N          17.4620   70.5841   -9.3997 N.ar    1  UNL1       -0.2743
     18 C          18.8066   70.6427   -9.4540 C.ar    1  UNL1        0.2626
     19 C          19.5510   70.6562   -8.2491 C.ar    1  UNL1        0.0795
     20 C          18.8932   70.6097   -7.0711 C.ar    1  UNL1        0.0869
     21 O          15.6181   70.4822   -8.1783 O.2     1  UNL1       -0.2464
     22 O          19.3784   70.6829  -10.5291 O.2     1  UNL1       -0.2670
     23 H          16.9450   70.5748  -10.2209 H       1  UNL1        0.1734
     24 O          20.2059   72.7655   -1.8362 O.3     1  UNL1       -0.2703
     25 P          20.5790   73.4043   -0.4070 P.3     1  UNL1        0.2208
     26 O          21.2514   74.7066   -0.6094 O.2     1  UNL1       -0.5170
     27 O          19.2333   73.6233    0.4505 O.3     1  UNL1       -0.4371
     28 O          21.5634   72.4086    0.3866 O.3     1  UNL1       -0.2858
     29 C          22.8446   73.0384    0.4291 C.3     1  UNL1        0.2704
     30 C          23.9386   71.9711    0.3720 C.3     1  UNL1        0.1967
     31 C          23.7659   71.0161    1.5571 C.3     1  UNL1        0.1715
     32 C          23.7255   71.8403    2.8488 C.3     1  UNL1        0.1694
     33 C          22.6453   72.9171    2.7186 C.3     1  UNL1        0.1761
     34 O          23.8323   71.2417   -0.8519 O.3     1  UNL1       -0.3775
     35 O          24.8641   70.1027    1.6017 O.3     1  UNL1       -0.3794
     36 O          24.9966   72.4553    3.0632 O.3     1  UNL1       -0.3794
     37 O          22.9633   73.7893    1.6351 O.3     1  UNL1       -0.3258
     38 H          23.9398   71.8819   -1.5684 H       1  UNL1        0.2106
     39 H          24.8576   69.6162    0.7677 H       1  UNL1        0.2105
     40 H          25.6444   71.7421    3.1331 H       1  UNL1        0.2105
     41 C          22.5732   73.7243    4.0168 C.3     1  UNL1        0.1693
     42 O          21.5205   73.2134    4.8365 O.3     1  UNL1       -0.3794
     43 H          21.5092   73.7475    5.6427 H       1  UNL1        0.2105
@<TRIPOS>BOND
     1    15    16   ar
     2    15    20   ar
     3    15     6    1
     4    16    17   ar
     5    16    21    2
     6    17    18   ar
     7    17    23    1
     8    18    19   ar
     9    18    22    2
    10    19    20   ar
    11     6     7    1
    12     6    11    1
    13     7     8    1
    14     7     9    1
    15     8    13    1
    16     9    10    1
    17     9    12    1
    18    10    11    1
    19    10     5    1
    20    12    14    1
    21     5     4    1
    22     4     1    1
    23     1     2    2
    24     1     3    1
    25     1    24    1
    26    24    25    1
    27    25    26    2
    28    25    27    1
    29    25    28    1
    30    28    29    1
    31    29    30    1
    32    29    37    1
    33    30    31    1
    34    30    34    1
    35    31    32    1
    36    31    35    1
    37    32    33    1
    38    32    36    1
    39    33    41    1
    40    33    37    1
    41    41    42    1
    42    34    38    1
    43    35    39    1
    44    36    40    1
    45    42    43    1
@<TRIPOS>MOLECULE
GDU
 43 45 0 0 0
SMALL
GASTEIGER

@<TRIPOS>ATOM
      1 P          15.4061   69.8513   -1.7776 P.3     1  UNL1        0.2189
      2 O          15.3831   69.3598   -3.1731 O.2     1  UNL1       -0.5170
      3 O          14.0892   70.7350   -1.4982 O.3     1  UNL1       -0.4371
      4 O          15.4367   68.5998   -0.7678 O.3     1  UNL1       -0.3112
      5 C          14.4123   68.8253    0.2018 C.3     1  UNL1        0.1811
      6 C          13.0540   66.4171    2.5003 C.3     1  UNL1        0.2383
      7 C          11.8310   67.2544    2.0462 C.3     1  UNL1        0.1895
      8 O          10.6408   66.4628    2.0511 O.3     1  UNL1       -0.3779
      9 C          12.2267   67.6494    0.5996 C.3     1  UNL1        0.1713
     10 C          13.7586   67.4935    0.5748 C.3     1  UNL1        0.1764
     11 O          14.1727   67.0987    1.8942 O.3     1  UNL1       -0.3308
     12 O          11.6123   66.7698   -0.3442 O.3     1  UNL1       -0.3794
     13 H           9.9209   67.0400    1.7607 H       1  UNL1        0.2106
     14 H          10.6564   66.8699   -0.2393 H       1  UNL1        0.2105
     15 N          13.1741   66.4247    3.9591 N.ar    1  UNL1       -0.2551
     16 C          13.3123   67.5929    4.6108 C.ar    1  UNL1        0.3323
     17 N          13.4212   67.6279    5.9520 N.ar    1  UNL1       -0.2743
     18 C          13.4032   66.4857    6.6657 C.ar    1  UNL1        0.2626
     19 C          13.2640   65.2474    5.9922 C.ar    1  UNL1        0.0795
     20 C          13.1525   65.2412    4.6469 C.ar    1  UNL1        0.0869
     21 O          13.3297   68.6314    3.9805 O.2     1  UNL1       -0.2464
     22 O          13.5065   66.5161    7.8793 O.2     1  UNL1       -0.2670
     23 H          13.5159   68.4802    6.4062 H       1  UNL1        0.1734
     24 O          16.7172   70.7579   -1.5505 O.3     1  UNL1       -0.2703
     25 P          17.8738   70.1494   -2.4896 P.3     1  UNL1        0.2208
     26 O          19.1748   70.2402   -1.7909 O.2     1  UNL1       -0.5170
     27 O          17.5455   68.6061   -2.8130 O.3     1  UNL1       -0.4371
     28 O          17.9430   70.9817   -3.8652 O.3     1  UNL1       -0.2858
     29 C          18.3928   70.0775   -4.8751 C.3     1  UNL1        0.2704
     30 C          19.7400   70.5532   -5.4211 C.3     1  UNL1        0.1967
     31 C          19.5758   71.9647   -5.9931 C.3     1  UNL1        0.1715
     32 C          18.4282   71.9512   -7.0092 C.3     1  UNL1        0.1694
     33 C          17.1790   71.3708   -6.3416 C.3     1  UNL1        0.1761
     34 O          20.7041   70.5716   -4.3669 O.3     1  UNL1       -0.3775
     35 O          20.7866   72.3653   -6.6380 O.3     1  UNL1       -0.3794
     36 O          18.7933   71.1470   -8.1317 O.3     1  UNL1       -0.3794
     37 O          17.4334   70.0289   -5.9286 O.3     1  UNL1       -0.3258
     38 H          20.7695   69.6666   -4.0328 H       1  UNL1        0.2106
     39 H          21.4803   72.3478   -5.9666 H       1  UNL1        0.2105
     40 H          19.5852   71.5455   -8.5157 H       1  UNL1        0.2105
     41 C          16.0174   71.3846   -7.3378 C.3     1  UNL1        0.1693
     42 O          16.3372   70.5506   -8.4527 O.3     1  UNL1       -0.3794
     43 H          15.5813   70.5862   -9.0548 H       1  UNL1        0.2105
@<TRIPOS>BOND
     1    15    16   ar
     2    15    20   ar
     3    15     6    1
     4    16    17   ar
     5    16    21    2
     6    17    18   ar
     7    17    23    1
     8    18    19   ar
     9    18    22    2
    10    19    20   ar
    11     6     7    1
    12     6    11    1
    13     7     8    1
    14     7     9    1
    15     8    13    1
    16     9    10    1
    17     9    12    1
    18    10    11    1
    19    10     5    1
    20    12    14    1
    21     5     4    1
    22     4     1    1
    23     1     2    2
    24     1     3    1
    25     1    24    1
    26    24    25    1
    27    25    26    2
    28    25    27    1
    29    25    28    1
    30    28    29    1
    31    29    30    1
    32    29    37    1
    33    30    31    1
    34    30    34    1
    35    31    32    1
    36    31    35    1
    37    32    33    1
    38    32    36    1
    39    33    41    1
    40    33    37    1
    41    41    42    1
    42    34    38    1
    43    35    39    1
    44    36    40    1
    45    42    43    1
@<TRIPOS>MOLECULE
GDU
 43 45 0 0 0
SMALL
GASTEIGER

@<TRIPOS>ATOM
      1 P          21.8900   73.0239   -6.5755 P.3     1  UNL1        0.2189
      2 O          22.6260   73.7488   -7.6350 O.2     1  UNL1       -0.5170
      3 O          20.5517   73.8367   -6.1997 O.3     1  UNL1       -0.4371
      4 O          21.4964   71.5564   -7.1029 O.3     1  UNL1       -0.3112
      5 C          20.6255   71.7382   -8.2205 C.3     1  UNL1        0.1811
      6 C          17.5908   70.2691   -6.9718 C.3     1  UNL1        0.2383
      7 C          17.1323   71.1684   -8.1482 C.3     1  UNL1        0.1895
      8 O          15.9693   70.6283   -8.7798 O.3     1  UNL1       -0.3779
      9 C          18.3562   71.1086   -9.0989 C.3     1  UNL1        0.1713
     10 C          19.5197   70.6818   -8.1848 C.3     1  UNL1        0.1764
     11 O          18.9981   70.5656   -6.8496 O.3     1  UNL1       -0.3308
     12 O          18.1411   70.1431  -10.1301 O.3     1  UNL1       -0.3794
     13 H          15.7368   71.2320   -9.4991 H       1  UNL1        0.2106
     14 H          17.3665   70.4347  -10.6297 H       1  UNL1        0.2105
     15 N          16.8804   70.6232   -5.7418 N.ar    1  UNL1       -0.2551
     16 C          16.5028   69.6556   -4.8877 C.ar    1  UNL1        0.3323
     17 N          15.8515   69.9545   -3.7483 N.ar    1  UNL1       -0.2743
     18 C          15.5575   71.2344   -3.4488 C.ar    1  UNL1        0.2626
     19 C          15.9440   72.2636   -4.3419 C.ar    1  UNL1        0.0795
     20 C          16.5998   71.9364   -5.4756 C.ar    1  UNL1        0.0869
     21 O          16.7614   68.4965   -5.1441 O.2     1  UNL1       -0.2464
     22 O          14.9638   71.5056   -2.4200 O.2     1  UNL1       -0.2670
     23 H          15.5903   69.2439   -3.1413 H       1  UNL1        0.1734
     24 O          22.8220   72.8940   -5.2690 O.3     1  UNL1       -0.2703
     25 P          21.9038   72.2764   -4.1004 P.3     1  UNL1        0.2208
     26 O          20.7803   71.5244   -4.7015 O.2     1  UNL1       -0.5170
     27 O          22.7882   71.2835   -3.1915 O.3     1  UNL1       -0.4371
     28 O          21.3252   73.4671   -3.1852 O.3     1  UNL1       -0.2858
     29 C          22.4491   74.2109   -2.7126 C.3     1  UNL1        0.2704
     30 C          22.4815   74.1684   -1.1841 C.3     1  UNL1        0.1967
     31 C          21.1759   74.7575   -0.6411 C.3     1  UNL1        0.1715
     32 C          20.9756   76.1496   -1.2508 C.3     1  UNL1        0.1694
     33 C          21.0555   76.0414   -2.7755 C.3     1  UNL1        0.1761
     34 O          22.6165   72.8153   -0.7457 O.3     1  UNL1       -0.3775
     35 O          21.2511   74.8604    0.7824 O.3     1  UNL1       -0.3794
     36 O          21.9944   77.0305   -0.7754 O.3     1  UNL1       -0.3794
     37 O          22.3439   75.5614   -3.1572 O.3     1  UNL1       -0.3258
     38 H          23.4459   72.4836   -1.1159 H       1  UNL1        0.2106
     39 H          21.3888   73.9666    1.1207 H       1  UNL1        0.2105
     40 H          21.9097   77.0633    0.1864 H       1  UNL1        0.2105
     41 C          20.8225   77.4208   -3.3959 C.3     1  UNL1        0.1693
     42 O          19.7860   78.0951   -2.6803 O.3     1  UNL1       -0.3794
     43 H          19.6711   78.9581   -3.1013 H       1  UNL1        0.2105
@<TRIPOS>BOND
     1    15    16   ar
     2    15    20   ar
     3    15     6    1
     4    16    17   ar
     5    16    21    2
     6    17    18   ar
     7    17    23    1
     8    18    19   ar
     9    18    22    2
    10    19    20   ar
    11     6     7    1
    12     6    11    1
    13     7     8    1
    14     7     9    1
    15     8    13    1
    16     9    10    1
    17     9    12    1
    18    10    11    1
    19    10     5    1
    20    12    14    1
    21     5     4    1
    22     4     1    1
    23     1     2    2
    24     1     3    1
    25     1    24    1
    26    24    25    1
    27    25    26    2
    28    25    27    1
    29    25    28    1
    30    28    29    1
    31    29    30    1
    32    29    37    1
    33    30    31    1
    34    30    34    1
    35    31    32    1
    36    31    35    1
    37    32    33    1
    38    32    36    1
    39    33    41    1
    40    33    37    1
    41    41    42    1
    42    34    38    1
    43    35    39    1
    44    36    40    1
    45    42    43    1
@<TRIPOS>MOLECULE
GDU
 43 45 0 0 0
SMALL
GASTEIGER

@<TRIPOS>ATOM
      1 P          18.5354   70.4947   -2.5220 P.3     1  UNL1        0.2189
      2 O          19.1347   70.1071   -3.8182 O.2     1  UNL1       -0.5170
      3 O          17.3127   69.5047   -2.1787 O.3     1  UNL1       -0.4371
      4 O          19.6479   70.3949   -1.3647 O.3     1  UNL1       -0.3112
      5 C          20.8040   71.0852   -1.8415 C.3     1  UNL1        0.1811
      6 C          22.8880   72.8647    0.4861 C.3     1  UNL1        0.2383
      7 C          23.2371   73.4761   -0.8949 C.3     1  UNL1        0.1895
      8 O          23.6152   74.8484   -0.7641 O.3     1  UNL1       -0.3779
      9 C          21.8936   73.3428   -1.6581 C.3     1  UNL1        0.1713
     10 C          21.1373   72.2397   -0.8948 C.3     1  UNL1        0.1764
     11 O          22.0004   71.7749    0.1574 O.3     1  UNL1       -0.3308
     12 O          21.1710   74.5749   -1.6164 O.3     1  UNL1       -0.3794
     13 H          23.8190   75.1675   -1.6543 H       1  UNL1        0.2106
     14 H          21.7207   75.2371   -2.0569 H       1  UNL1        0.2105
     15 N          24.0929   72.3659    1.1513 N.ar    1  UNL1       -0.2551
     16 C          24.6121   71.1796    0.7888 C.ar    1  UNL1        0.3323
     17 N          25.7210   70.6999    1.3820 N.ar    1  UNL1       -0.2743
     18 C          26.3259   71.4003    2.3606 C.ar    1  UNL1        0.2626
     19 C          25.7869   72.6488    2.7568 C.ar    1  UNL1        0.0795
     20 C          24.6763   73.1085    2.1424 C.ar    1  UNL1        0.0869
     21 O          24.0777   70.5366   -0.0927 O.2     1  UNL1       -0.2464
     22 O          27.3271   70.9647    2.9014 O.2     1  UNL1       -0.2670
     23 H          26.0845   69.8438    1.1048 H       1  UNL1        0.1734
     24 O          17.9899   72.0068   -2.6149 O.3     1  UNL1       -0.2703
     25 P          16.9324   72.0477   -3.8273 P.3     1  UNL1        0.2208
     26 O          15.7108   71.3076   -3.4412 O.2     1  UNL1       -0.5170
     27 O          16.5511   73.5779   -4.1551 O.3     1  UNL1       -0.4371
     28 O          17.5836   71.3669   -5.1321 O.3     1  UNL1       -0.2858
     29 C          17.6449   72.3768   -6.1402 C.3     1  UNL1        0.2704
     30 C          16.5159   72.1587   -7.1486 C.3     1  UNL1        0.1967
     31 C          16.6633   70.7659   -7.7687 C.3     1  UNL1        0.1715
     32 C          18.0805   70.6298   -8.3367 C.3     1  UNL1        0.1694
     33 C          19.0916   70.9621   -7.2367 C.3     1  UNL1        0.1761
     34 O          15.2549   72.2575   -6.4841 O.3     1  UNL1       -0.3775
     35 O          15.7056   70.6032   -8.8170 O.3     1  UNL1       -0.3794
     36 O          18.2449   71.5318   -9.4319 O.3     1  UNL1       -0.3794
     37 O          18.9056   72.3086   -6.8026 O.3     1  UNL1       -0.3258
     38 H          15.2087   73.1453   -6.1039 H       1  UNL1        0.2106
     39 H          14.8329   70.7082   -8.4176 H       1  UNL1        0.2105
     40 H          17.5861   71.2893  -10.0955 H       1  UNL1        0.2105
     41 C          20.5111   70.7960   -7.7840 C.3     1  UNL1        0.1693
     42 O          20.9015   71.9904   -8.4637 O.3     1  UNL1       -0.3794
     43 H          21.7995   71.8450   -8.7918 H       1  UNL1        0.2105
@<TRIPOS>BOND
     1    15    16   ar
     2    15    20   ar
     3    15     6    1
     4    16    17   ar
     5    16    21    2
     6    17    18   ar
     7    17    23    1
     8    18    19   ar
     9    18    22    2
    10    19    20   ar
    11     6     7    1
    12     6    11    1
    13     7     8    1
    14     7     9    1
    15     8    13    1
    16     9    10    1
    17     9    12    1
    18    10    11    1
    19    10     5    1
    20    12    14    1
    21     5     4    1
    22     4     1    1
    23     1     2    2
    24     1     3    1
    25     1    24    1
    26    24    25    1
    27    25    26    2
    28    25    27    1
    29    25    28    1
    30    28    29    1
    31    29    30    1
    32    29    37    1
    33    30    31    1
    34    30    34    1
    35    31    32    1
    36    31    35    1
    37    32    33    1
    38    32    36    1
    39    33    41    1
    40    33    37    1
    41    41    42    1
    42    34    38    1
    43    35    39    1
    44    36    40    1
    45    42    43    1
@<TRIPOS>MOLECULE
GDU
 43 45 0 0 0
SMALL
GASTEIGER

@<TRIPOS>ATOM
      1 P          16.9288   73.3360   -2.6792 P.3     1  UNL1        0.2189
      2 O          16.4267   72.3127   -1.7355 O.2     1  UNL1       -0.5170
      3 O          15.6827   74.0979   -3.3573 O.3     1  UNL1       -0.4371
      4 O          17.8396   74.3977   -1.8855 O.3     1  UNL1       -0.3112
      5 C          19.1061   73.7744   -1.6665 C.3     1  UNL1        0.1811
      6 C          20.8767   72.6386    1.2493 C.3     1  UNL1        0.2383
      7 C          20.8611   74.1831    1.3806 C.3     1  UNL1        0.1895
      8 O          20.8482   74.5779    2.7544 O.3     1  UNL1       -0.3779
      9 C          19.5254   74.5547    0.6857 C.3     1  UNL1        0.1713
     10 C          19.2153   73.3371   -0.2047 C.3     1  UNL1        0.1764
     11 O          20.3003   72.4054   -0.0533 O.3     1  UNL1       -0.3308
     12 O          18.4945   74.7489    1.6560 O.3     1  UNL1       -0.3794
     13 H          20.8392   75.5452    2.7664 H       1  UNL1        0.2106
     14 H          18.7738   75.4842    2.2181 H       1  UNL1        0.2105
     15 N          22.2474   72.1278    1.3057 N.ar    1  UNL1       -0.2551
     16 C          22.4714   70.8061    1.2000 C.ar    1  UNL1        0.3323
     17 N          23.7223   70.3109    1.2452 N.ar    1  UNL1       -0.2743
     18 C          24.7746   71.1357    1.4078 C.ar    1  UNL1        0.2626
     19 C          24.5534   72.5297    1.5264 C.ar    1  UNL1        0.0795
     20 C          23.2891   73.0001    1.4734 C.ar    1  UNL1        0.0869
     21 O          21.5321   70.0497    1.0523 O.2     1  UNL1       -0.2464
     22 O          25.9068   70.6880    1.4536 O.2     1  UNL1       -0.2670
     23 H          23.8658   69.3547    1.1629 H       1  UNL1        0.1734
     24 O          17.8078   72.6231   -3.8244 O.3     1  UNL1       -0.2703
     25 P          17.6186   73.4914   -5.1662 P.3     1  UNL1        0.2208
     26 O          16.1783   73.5924   -5.4891 O.2     1  UNL1       -0.5170
     27 O          18.2220   74.9674   -4.9394 O.3     1  UNL1       -0.4371
     28 O          18.3935   72.7773   -6.3826 O.3     1  UNL1       -0.2858
     29 C          19.0271   71.6153   -5.8458 C.3     1  UNL1        0.2704
     30 C          20.5393   71.8385   -5.7930 C.3     1  UNL1        0.1967
     31 C          21.0503   72.1283   -7.2077 C.3     1  UNL1        0.1715
     32 C          20.5896   70.9989   -8.1360 C.3     1  UNL1        0.1694
     33 C          19.0722   70.8407   -8.0125 C.3     1  UNL1        0.1761
     34 O          20.8300   72.9478   -4.9409 O.3     1  UNL1       -0.3775
     35 O          22.4779   72.1935   -7.1986 O.3     1  UNL1       -0.3794
     36 O          21.2339   69.7803   -7.7621 O.3     1  UNL1       -0.3794
     37 O          18.7323   70.4911   -6.6715 O.3     1  UNL1       -0.3258
     38 H          20.4852   72.7250   -4.0654 H       1  UNL1        0.2106
     39 H          22.7217   72.9066   -6.5950 H       1  UNL1        0.2105
     40 H          22.1846   69.9281   -7.8494 H       1  UNL1        0.2105
     41 C          18.5971   69.7380   -8.9613 C.3     1  UNL1        0.1693
     42 O          17.7921   70.3122   -9.9925 O.3     1  UNL1       -0.3794
     43 H          17.5144   69.5861  -10.5678 H       1  UNL1        0.2105
@<TRIPOS>BOND
     1    15    16   ar
     2    15    20   ar
     3    15     6    1
     4    16    17   ar
     5    16    21    2
     6    17    18   ar
     7    17    23    1
     8    18    19   ar
     9    18    22    2
    10    19    20   ar
    11     6     7    1
    12     6    11    1
    13     7     8    1
    14     7     9    1
    15     8    13    1
    16     9    10    1
    17     9    12    1
    18    10    11    1
    19    10     5    1
    20    12    14    1
    21     5     4    1
    22     4     1    1
    23     1     2    2
    24     1     3    1
    25     1    24    1
    26    24    25    1
    27    25    26    2
    28    25    27    1
    29    25    28    1
    30    28    29    1
    31    29    30    1
    32    29    37    1
    33    30    31    1
    34    30    34    1
    35    31    32    1
    36    31    35    1
    37    32    33    1
    38    32    36    1
    39    33    41    1
    40    33    37    1
    41    41    42    1
    42    34    38    1
    43    35    39    1
    44    36    40    1
    45    42    43    1
@<TRIPOS>MOLECULE
GDU
 43 45 0 0 0
SMALL
GASTEIGER

@<TRIPOS>ATOM
      1 P          21.4214   71.2307   -1.9837 P.3     1  UNL1        0.2189
      2 O          21.3844   70.2037   -3.0483 O.2     1  UNL1       -0.5170
      3 O          20.7086   70.6562   -0.6589 O.3     1  UNL1       -0.4371
      4 O          22.9499   71.6049   -1.6512 O.3     1  UNL1       -0.3112
      5 C          22.9178   72.6933   -0.7267 C.3     1  UNL1        0.1811
      6 C          24.2976   72.6215    2.5927 C.3     1  UNL1        0.2383
      7 C          23.9292   71.1460    2.2925 C.3     1  UNL1        0.1895
      8 O          24.8147   70.2514    2.9697 O.3     1  UNL1       -0.3779
      9 C          24.1308   71.0668    0.7568 C.3     1  UNL1        0.1713
     10 C          24.0474   72.5327    0.2923 C.3     1  UNL1        0.1764
     11 O          23.7764   73.3375    1.4529 O.3     1  UNL1       -0.3308
     12 O          25.4101   70.5095    0.4490 O.3     1  UNL1       -0.3794
     13 H          24.5325   69.3544    2.7425 H       1  UNL1        0.2106
     14 H          25.4217   69.6151    0.8160 H       1  UNL1        0.2105
     15 N          23.6530   73.0757    3.8260 N.ar    1  UNL1       -0.2551
     16 C          22.3677   72.7588    4.0623 C.ar    1  UNL1        0.3323
     17 N          21.7524   73.1609    5.1900 N.ar    1  UNL1       -0.2743
     18 C          22.4158   73.8998    6.1001 C.ar    1  UNL1        0.2626
     19 C          23.7684   74.2460    5.8618 C.ar    1  UNL1        0.0795
     20 C          24.3625   73.8260    4.7246 C.ar    1  UNL1        0.0869
     21 O          21.7565   72.0925    3.2508 O.2     1  UNL1       -0.2464
     22 O          21.8584   74.2682    7.1189 O.2     1  UNL1       -0.2670
     23 H          20.8256   72.9195    5.3463 H       1  UNL1        0.1734
     24 O          20.6414   72.5479   -2.4827 O.3     1  UNL1       -0.2703
     25 P          20.4537   72.4040   -4.0746 P.3     1  UNL1        0.2208
     26 O          20.6921   73.7140   -4.7196 O.2     1  UNL1       -0.5170
     27 O          21.5070   71.3266   -4.6437 O.3     1  UNL1       -0.4371
     28 O          18.9561   71.9106   -4.3970 O.3     1  UNL1       -0.2858
     29 C          19.0655   70.6245   -5.0085 C.3     1  UNL1        0.2704
     30 C          18.1170   70.5478   -6.2059 C.3     1  UNL1        0.1967
     31 C          16.6845   70.7974   -5.7240 C.3     1  UNL1        0.1715
     32 C          16.3745   69.8223   -4.5827 C.3     1  UNL1        0.1694
     33 C          17.4550   69.9558   -3.5067 C.3     1  UNL1        0.1761
     34 O          18.4796   71.5396   -7.1681 O.3     1  UNL1       -0.3775
     35 O          15.7712   70.5842   -6.8024 O.3     1  UNL1       -0.3794
     36 O          16.3580   68.4862   -5.0870 O.3     1  UNL1       -0.3794
     37 O          18.7271   69.6177   -4.0575 O.3     1  UNL1       -0.3258
     38 H          19.3883   71.3481   -7.4373 H       1  UNL1        0.2106
     39 H          16.0104   71.2082   -7.4993 H       1  UNL1        0.2105
     40 H          15.6690   68.4508   -5.7633 H       1  UNL1        0.2105
     41 C          17.1361   69.0106   -2.3461 C.3     1  UNL1        0.1693
     42 O          15.7195   68.9077   -2.1922 O.3     1  UNL1       -0.3794
     43 H          15.5614   68.3042   -1.4532 H       1  UNL1        0.2105
@<TRIPOS>BOND
     1    15    16   ar
     2    15    20   ar
     3    15     6    1
     4    16    17   ar
     5    16    21    2
     6    17    18   ar
     7    17    23    1
     8    18    19   ar
     9    18    22    2
    10    19    20   ar
    11     6     7    1
    12     6    11    1
    13     7     8    1
    14     7     9    1
    15     8    13    1
    16     9    10    1
    17     9    12    1
    18    10    11    1
    19    10     5    1
    20    12    14    1
    21     5     4    1
    22     4     1    1
    23     1     2    2
    24     1     3    1
    25     1    24    1
    26    24    25    1
    27    25    26    2
    28    25    27    1
    29    25    28    1
    30    28    29    1
    31    29    30    1
    32    29    37    1
    33    30    31    1
    34    30    34    1
    35    31    32    1
    36    31    35    1
    37    32    33    1
    38    32    36    1
    39    33    41    1
    40    33    37    1
    41    41    42    1
    42    34    38    1
    43    35    39    1
    44    36    40    1
    45    42    43    1
@<TRIPOS>MOLECULE
GDU
 43 45 0 0 0
SMALL
GASTEIGER

@<TRIPOS>ATOM
      1 P          22.7057   71.5116   -2.8429 P.3     1  UNL1        0.2189
      2 O          22.6533   72.9306   -3.2591 O.2     1  UNL1       -0.5170
      3 O          24.1541   70.9023   -3.1952 O.3     1  UNL1       -0.4371
      4 O          22.4504   71.4069   -1.2584 O.3     1  UNL1       -0.3112
      5 C          22.7392   72.6926   -0.7069 C.3     1  UNL1        0.1811
      6 C          24.1366   72.7248    2.6057 C.3     1  UNL1        0.2383
      7 C          23.7789   71.2385    2.3488 C.3     1  UNL1        0.1895
      8 O          24.6753   70.3704    3.0459 O.3     1  UNL1       -0.3779
      9 C          23.9734   71.1181    0.8148 C.3     1  UNL1        0.1713
     10 C          23.8754   72.5697    0.3101 C.3     1  UNL1        0.1764
     11 O          23.6036   73.4044    1.4492 O.3     1  UNL1       -0.3308
     12 O          25.2557   70.5629    0.5158 O.3     1  UNL1       -0.3794
     13 H          24.3994   69.4652    2.8453 H       1  UNL1        0.2106
     14 H          25.2766   69.6793    0.9076 H       1  UNL1        0.2105
     15 N          23.4945   73.2080    3.8293 N.ar    1  UNL1       -0.2551
     16 C          22.1954   72.9408    4.0509 C.ar    1  UNL1        0.3323
     17 N          21.5821   73.3703    5.1694 N.ar    1  UNL1       -0.2743
     18 C          22.2617   74.0873    6.0850 C.ar    1  UNL1        0.2626
     19 C          23.6292   74.3813    5.8622 C.ar    1  UNL1        0.0795
     20 C          24.2209   73.9347    4.7340 C.ar    1  UNL1        0.0869
     21 O          21.5695   72.2947    3.2343 O.2     1  UNL1       -0.2464
     22 O          21.7061   74.4806    7.0955 O.2     1  UNL1       -0.2670
     23 H          20.6449   73.1646    5.3151 H       1  UNL1        0.1734
     24 O          21.5706   70.6812   -3.6267 O.3     1  UNL1       -0.2703
     25 P          21.1051   71.5881   -4.8720 P.3     1  UNL1        0.2208
     26 O          20.4799   72.8315   -4.3699 O.2     1  UNL1       -0.5170
     27 O          22.3867   71.9589   -5.7743 O.3     1  UNL1       -0.4371
     28 O          20.0410   70.7730   -5.7627 O.3     1  UNL1       -0.2858
     29 C          19.1446   71.7344   -6.3213 C.3     1  UNL1        0.2704
     30 C          17.7203   71.4363   -5.8505 C.3     1  UNL1        0.1967
     31 C          17.3362   70.0199   -6.2893 C.3     1  UNL1        0.1715
     32 C          17.5630   69.8965   -7.8002 C.3     1  UNL1        0.1694
     33 C          19.0010   70.3098   -8.1231 C.3     1  UNL1        0.1761
     34 O          17.6572   71.5315   -4.4263 O.3     1  UNL1       -0.3775
     35 O          15.9602   69.7800   -5.9867 O.3     1  UNL1       -0.3794
     36 O          16.6491   70.7489   -8.4917 O.3     1  UNL1       -0.3794
     37 O          19.2076   71.6699   -7.7441 O.3     1  UNL1       -0.3258
     38 H          17.9129   72.4349   -4.1955 H       1  UNL1        0.2106
     39 H          15.8623   69.8796   -5.0313 H       1  UNL1        0.2105
     40 H          15.7594   70.4563   -8.2547 H       1  UNL1        0.2105
     41 C          19.2485   70.1575   -9.6256 C.3     1  UNL1        0.1693
     42 O          18.6620   71.2608  -10.3183 O.3     1  UNL1       -0.3794
     43 H          18.8406   71.1273  -11.2594 H       1  UNL1        0.2105
@<TRIPOS>BOND
     1    15    16   ar
     2    15    20   ar
     3    15     6    1
     4    16    17   ar
     5    16    21    2
     6    17    18   ar
     7    17    23    1
     8    18    19   ar
     9    18    22    2
    10    19    20   ar
    11     6     7    1
    12     6    11    1
    13     7     8    1
    14     7     9    1
    15     8    13    1
    16     9    10    1
    17     9    12    1
    18    10    11    1
    19    10     5    1
    20    12    14    1
    21     5     4    1
    22     4     1    1
    23     1     2    2
    24     1     3    1
    25     1    24    1
    26    24    25    1
    27    25    26    2
    28    25    27    1
    29    25    28    1
    30    28    29    1
    31    29    30    1
    32    29    37    1
    33    30    31    1
    34    30    34    1
    35    31    32    1
    36    31    35    1
    37    32    33    1
    38    32    36    1
    39    33    41    1
    40    33    37    1
    41    41    42    1
    42    34    38    1
    43    35    39    1
    44    36    40    1
    45    42    43    1
@<TRIPOS>MOLECULE
GDU
 43 45 0 0 0
SMALL
GASTEIGER

@<TRIPOS>ATOM
      1 P          22.5411   73.8037   -5.0961 P.3     1  UNL1        0.2189
      2 O          23.1524   74.8962   -5.8850 O.2     1  UNL1       -0.5170
      3 O          23.2618   72.4106   -5.4604 O.3     1  UNL1       -0.4371
      4 O          22.7226   74.1076   -3.5272 O.3     1  UNL1       -0.3112
      5 C          21.6080   73.5143   -2.8592 C.3     1  UNL1        0.1811
      6 C          23.2076   71.5636   -0.2973 C.3     1  UNL1        0.2383
      7 C          21.7314   71.6741    0.1625 C.3     1  UNL1        0.1895
      8 O          21.3405   70.5167    0.9048 O.3     1  UNL1       -0.3779
      9 C          20.9746   71.7457   -1.1893 C.3     1  UNL1        0.1713
     10 C          22.0461   72.2083   -2.1940 C.3     1  UNL1        0.1764
     11 O          23.2637   72.4192   -1.4585 O.3     1  UNL1       -0.3308
     12 O          20.4668   70.4586   -1.5464 O.3     1  UNL1       -0.3794
     13 H          20.4168   70.6481    1.1603 H       1  UNL1        0.2106
     14 H          19.8476   70.1989   -0.8507 H       1  UNL1        0.2105
     15 N          24.1127   72.0496    0.7456 N.ar    1  UNL1       -0.2551
     16 C          24.7057   71.1731    1.5754 C.ar    1  UNL1        0.3323
     17 N          25.5448   71.5935    2.5403 N.ar    1  UNL1       -0.2743
     18 C          25.7973   72.9072    2.6971 C.ar    1  UNL1        0.2626
     19 C          25.1752   73.8423    1.8341 C.ar    1  UNL1        0.0795
     20 C          24.3413   73.3934    0.8720 C.ar    1  UNL1        0.0869
     21 O          24.4881   69.9849    1.4459 O.2     1  UNL1       -0.2464
     22 O          26.5529   73.2890    3.5733 O.2     1  UNL1       -0.2670
     23 H          25.9674   70.9466    3.1275 H       1  UNL1        0.1734
     24 O          20.9728   73.7027   -5.4466 O.3     1  UNL1       -0.2703
     25 P          20.7877   72.4120   -6.3900 P.3     1  UNL1        0.2208
     26 O          21.5644   72.5964   -7.6357 O.2     1  UNL1       -0.5170
     27 O          21.3173   71.1021   -5.6168 O.3     1  UNL1       -0.4371
     28 O          19.2299   72.2281   -6.7500 O.3     1  UNL1       -0.2858
     29 C          19.0106   70.8299   -6.9416 C.3     1  UNL1        0.2704
     30 C          18.0624   70.6205   -8.1232 C.3     1  UNL1        0.1967
     31 C          16.7413   71.3408   -7.8361 C.3     1  UNL1        0.1715
     32 C          16.2085   70.8651   -6.4798 C.3     1  UNL1        0.1694
     33 C          17.2976   71.0580   -5.4217 C.3     1  UNL1        0.1761
     34 O          18.6519   71.1538   -9.3103 O.3     1  UNL1       -0.3775
     35 O          15.7942   71.0335   -8.8613 O.3     1  UNL1       -0.3794
     36 O          15.8557   69.4835   -6.5630 O.3     1  UNL1       -0.3794
     37 O          18.4408   70.2736   -5.7590 O.3     1  UNL1       -0.3258
     38 H          19.4819   70.6774   -9.4479 H       1  UNL1        0.2106
     39 H          16.1750   71.3384   -9.6946 H       1  UNL1        0.2105
     40 H          15.1737   69.4093   -7.2432 H       1  UNL1        0.2105
     41 C          16.7638   70.6178   -4.0567 C.3     1  UNL1        0.1693
     42 O          15.4221   71.0825   -3.8984 O.3     1  UNL1       -0.3794
     43 H          15.1234   70.7842   -3.0283 H       1  UNL1        0.2105
@<TRIPOS>BOND
     1    15    16   ar
     2    15    20   ar
     3    15     6    1
     4    16    17   ar
     5    16    21    2
     6    17    18   ar
     7    17    23    1
     8    18    19   ar
     9    18    22    2
    10    19    20   ar
    11     6     7    1
    12     6    11    1
    13     7     8    1
    14     7     9    1
    15     8    13    1
    16     9    10    1
    17     9    12    1
    18    10    11    1
    19    10     5    1
    20    12    14    1
    21     5     4    1
    22     4     1    1
    23     1     2    2
    24     1     3    1
    25     1    24    1
    26    24    25    1
    27    25    26    2
    28    25    27    1
    29    25    28    1
    30    28    29    1
    31    29    30    1
    32    29    37    1
    33    30    31    1
    34    30    34    1
    35    31    32    1
    36    31    35    1
    37    32    33    1
    38    32    36    1
    39    33    41    1
    40    33    37    1
    41    41    42    1
    42    34    38    1
    43    35    39    1
    44    36    40    1
    45    42    43    1
@<TRIPOS>MOLECULE
GDU
 43 45 0 0 0
SMALL
GASTEIGER

@<TRIPOS>ATOM
      1 P          21.4981   73.5628   -2.0216 P.3     1  UNL1        0.2189
      2 O          22.2949   74.7978   -1.8498 O.2     1  UNL1       -0.5170
      3 O          22.4819   72.2882   -2.0429 O.3     1  UNL1       -0.4371
      4 O          20.4602   73.4192   -0.8014 O.3     1  UNL1       -0.3112
      5 C          21.1277   73.8963    0.3679 C.3     1  UNL1        0.1811
      6 C          23.2363   71.9237    2.5103 C.3     1  UNL1        0.2383
      7 C          22.5244   72.9126    3.4686 C.3     1  UNL1        0.1895
      8 O          22.3417   72.3286    4.7604 O.3     1  UNL1       -0.3779
      9 C          21.1613   73.1267    2.7605 C.3     1  UNL1        0.1713
     10 C          21.4308   72.7213    1.2994 C.3     1  UNL1        0.1764
     11 O          22.8207   72.3655    1.2006 O.3     1  UNL1       -0.3308
     12 O          20.1594   72.2902    3.3421 O.3     1  UNL1       -0.3794
     13 H          21.8962   72.9919    5.3057 H       1  UNL1        0.2106
     14 H          20.0789   72.5527    4.2691 H       1  UNL1        0.2105
     15 N          24.6901   72.0223    2.6507 N.ar    1  UNL1       -0.2551
     16 C          25.4552   70.9359    2.4446 C.ar    1  UNL1        0.3323
     17 N          26.7944   71.0005    2.5637 N.ar    1  UNL1       -0.2743
     18 C          27.3918   72.1590    2.9030 C.ar    1  UNL1        0.2626
     19 C          26.5981   73.3102    3.1288 C.ar    1  UNL1        0.0795
     20 C          25.2575   73.2187    2.9984 C.ar    1  UNL1        0.0869
     21 O          24.9306   69.8839    2.1375 O.2     1  UNL1       -0.2464
     22 O          28.6036   72.2173    3.0158 O.2     1  UNL1       -0.2670
     23 H          27.3315   70.2075    2.4071 H       1  UNL1        0.1734
     24 O          20.6880   73.6369   -3.4111 O.3     1  UNL1       -0.2703
     25 P          20.8556   72.2048   -4.1259 P.3     1  UNL1        0.2208
     26 O          22.2731   72.0025   -4.4982 O.2     1  UNL1       -0.5170
     27 O          20.3966   71.0416   -3.1108 O.3     1  UNL1       -0.4371
     28 O          19.9398   72.1535   -5.4483 O.3     1  UNL1       -0.2858
     29 C          19.8732   70.7858   -5.8541 C.3     1  UNL1        0.2704
     30 C          20.3840   70.6552   -7.2899 C.3     1  UNL1        0.1967
     31 C          19.5263   71.5335   -8.2060 C.3     1  UNL1        0.1715
     32 C          18.0531   71.1628   -8.0015 C.3     1  UNL1        0.1694
     33 C          17.7184   71.2568   -6.5108 C.3     1  UNL1        0.1761
     34 O          21.7462   71.0814   -7.3539 O.3     1  UNL1       -0.3775
     35 O          19.8954   71.3102   -9.5685 O.3     1  UNL1       -0.3794
     36 O          17.8271   69.8304   -8.4637 O.3     1  UNL1       -0.3794
     37 O          18.5231   70.3344   -5.7777 O.3     1  UNL1       -0.3258
     38 H          22.2464   70.5071   -6.7582 H       1  UNL1        0.2106
     39 H          20.8288   71.5443   -9.6475 H       1  UNL1        0.2105
     40 H          18.0557   69.8172   -9.4023 H       1  UNL1        0.2105
     41 C          16.2402   70.9217   -6.2996 C.3     1  UNL1        0.1693
     42 O          16.1002   69.5207   -6.0577 O.3     1  UNL1       -0.3794
     43 H          15.1566   69.3517   -5.9293 H       1  UNL1        0.2105
@<TRIPOS>BOND
     1    15    16   ar
     2    15    20   ar
     3    15     6    1
     4    16    17   ar
     5    16    21    2
     6    17    18   ar
     7    17    23    1
     8    18    19   ar
     9    18    22    2
    10    19    20   ar
    11     6     7    1
    12     6    11    1
    13     7     8    1
    14     7     9    1
    15     8    13    1
    16     9    10    1
    17     9    12    1
    18    10    11    1
    19    10     5    1
    20    12    14    1
    21     5     4    1
    22     4     1    1
    23     1     2    2
    24     1     3    1
    25     1    24    1
    26    24    25    1
    27    25    26    2
    28    25    27    1
    29    25    28    1
    30    28    29    1
    31    29    30    1
    32    29    37    1
    33    30    31    1
    34    30    34    1
    35    31    32    1
    36    31    35    1
    37    32    33    1
    38    32    36    1
    39    33    41    1
    40    33    37    1
    41    41    42    1
    42    34    38    1
    43    35    39    1
    44    36    40    1
    45    42    43    1
