@<TRIPOS>MOLECULE
*****
 43 45 0 0 0
SMALL
GASTEIGER

@<TRIPOS>ATOM
      1 P          22.9876   71.6437   -2.7437 P.3     1  UNL1        0.2189
      2 O          23.8080   72.9660   -3.1861 O.co2   1  UNL1       -0.4371
      3 O          23.5376   70.3508   -3.2703 O.2     1  UNL1       -0.5170
      4 O          21.4596   71.9779   -3.1580 O.3     1  UNL1       -0.3112
      5 C          20.6007   70.9033   -3.4975 C.3     1  UNL1        0.1811
      6 O          18.7518   71.9566   -4.6137 O.3     1  UNL1       -0.3308
      7 O          17.0218   70.7576   -2.4782 O.3     1  UNL1       -0.3794
      8 O          16.6258   69.0684   -4.5821 O.3     1  UNL1       -0.3779
      9 C          18.1818   70.2171   -3.1088 C.3     1  UNL1        0.1713
     10 C          17.8529   69.7659   -4.5166 C.3     1  UNL1        0.1895
     11 C          19.1552   71.3617   -3.3608 C.3     1  UNL1        0.1764
     12 C          17.8167   71.0848   -5.2698 C.3     1  UNL1        0.2383
     13 H          16.3855   70.0451   -2.3069 H       1  UNL1        0.2105
     14 H          16.6995   68.2369   -4.0883 H       1  UNL1        0.2106
     15 O          16.0522   70.3507   -7.3496 O.2     1  UNL1       -0.2464
     16 O          19.3994   70.5601  -10.5109 O.2     1  UNL1       -0.2670
     17 N          18.2003   70.9404   -6.6458 N.ar    1  UNL1       -0.2551
     18 N          17.7203   70.4557   -8.9220 N.ar    1  UNL1       -0.2743
     19 C          17.2372   70.5668   -7.6119 C.ar    1  UNL1        0.3323
     20 C          19.5185   71.1688   -7.0254 C.ar    1  UNL1        0.0869
     21 C          19.9633   71.0574   -8.2788 C.ar    1  UNL1        0.0795
     22 C          19.0211   70.6710   -9.3488 C.ar    1  UNL1        0.2626
     23 H          17.0673   70.1962   -9.6120 H       1  UNL1        0.1734
     24 O          22.9596   71.7558   -1.1314 O.3     1  UNL1       -0.2703
     25 P          22.4814   70.7027   -0.0021 P.3     1  UNL1        0.2208
     26 O          23.7186   69.6637    0.0839 O.co2   1  UNL1       -0.4371
     27 O          21.1528   70.0618   -0.2816 O.2     1  UNL1       -0.5170
     28 O          22.5469   71.5301    1.3821 O.3     1  UNL1       -0.2858
     29 O          21.4562   72.2333    3.3651 O.3     1  UNL1       -0.3258
     30 O          21.1971   75.7351    1.1924 O.3     1  UNL1       -0.3794
     31 O          23.0185   75.5719    3.4068 O.3     1  UNL1       -0.3794
     32 O          20.8622   73.1843   -0.1346 O.3     1  UNL1       -0.3775
     33 C          21.8046   74.5186    1.6354 C.3     1  UNL1        0.1715
     34 C          22.0033   74.6056    3.1499 C.3     1  UNL1        0.1694
     35 C          20.8921   73.3464    1.2793 C.3     1  UNL1        0.1967
     36 C          22.4011   73.2440    3.7356 C.3     1  UNL1        0.1761
     37 C          21.3488   72.0506    1.9520 C.3     1  UNL1        0.2704
     38 H          21.7716   76.4833    1.4150 H       1  UNL1        0.2105
     39 H          22.7552   76.4268    3.0315 H       1  UNL1        0.2105
     40 H          20.5713   74.0113   -0.5486 H       1  UNL1        0.2106
     41 O          21.1260   73.1998    5.7557 O.3     1  UNL1       -0.3794
     42 C          22.4508   73.2703    5.2617 C.3     1  UNL1        0.1693
     43 H          21.1421   73.2153    6.7259 H       1  UNL1        0.2105
@<TRIPOS>UNITY_ATOM_ATTR
2 1
charge -1
26 1
charge -1
@<TRIPOS>BOND
     1    25    28    1
     2    25    24    1
     3    25    26    1
     4    25    27    2
     5     1     4    1
     6     1    24    1
     7     1     2    1
     8     1     3    2
     9     6    11    1
    10     6    12    1
    11    29    36    1
    12    29    37    1
    13     7     9    1
    14     7    13    1
    15     8    10    1
    16     8    14    1
    17    28    37    1
    18     4     5    1
    19    30    33    1
    20    30    38    1
    21    31    34    1
    22    31    39    1
    23    32    35    1
    24    32    40    1
    25    41    42    1
    26    41    43    1
    27    15    19    2
    28    16    22    2
    29    17    12    1
    30    17    19   ar
    31    17    20   ar
    32    18    19   ar
    33    18    22   ar
    34    18    23    1
    35     9    10    1
    36     9    11    1
    37    10    12    1
    38    11     5    1
    39    33    34    1
    40    33    35    1
    41    34    36    1
    42    35    37    1
    43    36    42    1
    44    20    21   ar
    45    21    22   ar
@<TRIPOS>MOLECULE
*****
 43 45 0 0 0
SMALL
GASTEIGER

@<TRIPOS>ATOM
      1 P          21.6961   70.4876   -1.1267 P.3     1  UNL1        0.2189
      2 O          23.2845   70.5543   -1.4268 O.co2   1  UNL1       -0.4371
      3 O          21.3276   69.9252    0.2147 O.2     1  UNL1       -0.5170
      4 O          21.0915   69.7046   -2.4071 O.3     1  UNL1       -0.3112
      5 C          20.7566   70.4543   -3.5618 C.3     1  UNL1        0.1811
      6 O          19.0023   71.7223   -4.6051 O.3     1  UNL1       -0.3308
      7 O          17.2055   70.6505   -2.4572 O.3     1  UNL1       -0.3794
      8 O          16.5897   69.0686   -4.5914 O.3     1  UNL1       -0.3779
      9 C          18.2889   70.0107   -3.1297 C.3     1  UNL1        0.1713
     10 C          17.8837   69.6340   -4.5394 C.3     1  UNL1        0.1895
     11 C          19.3698   71.0553   -3.3778 C.3     1  UNL1        0.1764
     12 C          17.9675   70.9695   -5.2588 C.3     1  UNL1        0.2383
     13 H          16.5028   70.0030   -2.2875 H       1  UNL1        0.2105
     14 H          16.5879   68.2209   -4.1201 H       1  UNL1        0.2106
     15 O          16.0884   70.4945   -7.3135 O.2     1  UNL1       -0.2464
     16 O          19.3697   70.4256  -10.5491 O.2     1  UNL1       -0.2670
     17 N          18.3031   70.8236   -6.6472 N.ar    1  UNL1       -0.2551
     18 N          17.7238   70.4607   -8.9229 N.ar    1  UNL1       -0.2743
     19 C          17.2841   70.5864   -7.5989 C.ar    1  UNL1        0.3323
     20 C          19.6301   70.9164   -7.0528 C.ar    1  UNL1        0.0869
     21 C          20.0329   70.7929   -8.3191 C.ar    1  UNL1        0.0795
     22 C          19.0310   70.5438   -9.3756 C.ar    1  UNL1        0.2626
     23 H          17.0315   70.2947   -9.6033 H       1  UNL1        0.1734
     24 O          21.2155   72.0112   -1.3725 O.3     1  UNL1       -0.2703
     25 P          21.7420   73.4047   -0.7448 P.3     1  UNL1        0.2208
     26 O          20.5555   74.4447   -1.1028 O.co2   1  UNL1       -0.4371
     27 O          23.0998   73.8237   -1.2293 O.2     1  UNL1       -0.5170
     28 O          21.6358   73.1993    0.8525 O.3     1  UNL1       -0.2858
     29 O          22.7879   74.8987    2.0363 O.3     1  UNL1       -0.3258
     30 O          21.9820   72.3390    5.1746 O.3     1  UNL1       -0.3794
     31 O          20.5414   74.8140    4.9577 O.3     1  UNL1       -0.3794
     32 O          22.7024   71.2659    2.5844 O.3     1  UNL1       -0.3775
     33 C          21.7218   73.0026    3.9347 C.3     1  UNL1        0.1715
     34 C          21.7044   74.5106    4.1924 C.3     1  UNL1        0.1694
     35 C          22.8186   72.6406    2.9350 C.3     1  UNL1        0.1967
     36 C          21.6974   75.2977    2.8750 C.3     1  UNL1        0.1761
     37 C          22.7513   73.5150    1.6816 C.3     1  UNL1        0.2704
     38 H          21.2889   72.5642    5.8136 H       1  UNL1        0.2105
     39 H          20.5578   74.3102    5.7867 H       1  UNL1        0.2105
     40 H          22.7468   70.7229    3.3864 H       1  UNL1        0.2106
     41 O          22.6862   77.3314    2.1036 O.3     1  UNL1       -0.3794
     42 C          21.8390   76.8006    3.1059 C.3     1  UNL1        0.1693
     43 H          22.7852   78.2874    2.2377 H       1  UNL1        0.2105
@<TRIPOS>UNITY_ATOM_ATTR
2 1
charge -1
26 1
charge -1
@<TRIPOS>BOND
     1    25    28    1
     2    25    24    1
     3    25    26    1
     4    25    27    2
     5     1     4    1
     6     1    24    1
     7     1     2    1
     8     1     3    2
     9     6    11    1
    10     6    12    1
    11    29    36    1
    12    29    37    1
    13     7     9    1
    14     7    13    1
    15     8    10    1
    16     8    14    1
    17    28    37    1
    18     4     5    1
    19    30    33    1
    20    30    38    1
    21    31    34    1
    22    31    39    1
    23    32    35    1
    24    32    40    1
    25    41    42    1
    26    41    43    1
    27    15    19    2
    28    16    22    2
    29    17    12    1
    30    17    19   ar
    31    17    20   ar
    32    18    19   ar
    33    18    22   ar
    34    18    23    1
    35     9    10    1
    36     9    11    1
    37    10    12    1
    38    11     5    1
    39    33    34    1
    40    33    35    1
    41    34    36    1
    42    35    37    1
    43    36    42    1
    44    20    21   ar
    45    21    22   ar
@<TRIPOS>MOLECULE
*****
 43 45 0 0 0
SMALL
GASTEIGER

@<TRIPOS>ATOM
      1 P          22.8278   71.8245   -2.3340 P.3     1  UNL1        0.2189
      2 O          23.5513   73.2676   -2.4411 O.co2   1  UNL1       -0.4371
      3 O          23.3958   70.7627   -3.2292 O.2     1  UNL1       -0.5170
      4 O          21.2595   72.1594   -2.5486 O.3     1  UNL1       -0.3112
      5 C          20.5540   71.4702   -3.5661 C.3     1  UNL1        0.1811
      6 O          18.6044   72.2416   -4.7398 O.3     1  UNL1       -0.3308
      7 O          17.0123   71.0592   -2.4908 O.3     1  UNL1       -0.3794
      8 O          16.7741   69.1715   -4.4443 O.3     1  UNL1       -0.3779
      9 C          18.2167   70.5847   -3.0905 C.3     1  UNL1        0.1713
     10 C          17.9268   69.9888   -4.4522 C.3     1  UNL1        0.1895
     11 C          19.0711   71.7945   -3.4481 C.3     1  UNL1        0.1764
     12 C          17.7566   71.2311   -5.3100 C.3     1  UNL1        0.2383
     13 H          16.4504   70.3044   -2.2534 H       1  UNL1        0.2105
     14 H          16.9322   68.3948   -3.8852 H       1  UNL1        0.2106
     15 O          16.0066   70.3552   -7.3468 O.2     1  UNL1       -0.2464
     16 O          19.3589   70.4228  -10.5090 O.2     1  UNL1       -0.2670
     17 N          18.1454   71.0119   -6.6747 N.ar    1  UNL1       -0.2551
     18 N          17.6772   70.3898   -8.9197 N.ar    1  UNL1       -0.2743
     19 C          17.1895   70.5707   -7.6191 C.ar    1  UNL1        0.3323
     20 C          19.4615   71.2345   -7.0646 C.ar    1  UNL1        0.0869
     21 C          19.9109   71.0560   -8.3085 C.ar    1  UNL1        0.0795
     22 C          18.9763   70.5963   -9.3560 C.ar    1  UNL1        0.2626
     23 H          17.0293   70.0824   -9.5946 H       1  UNL1        0.1734
     24 O          22.9151   71.4905   -0.7548 O.3     1  UNL1       -0.2703
     25 P          22.0399   70.4942    0.1695 P.3     1  UNL1        0.2208
     26 O          23.1623   69.6079    0.9259 O.co2   1  UNL1       -0.4371
     27 O          21.0213   69.6902   -0.5855 O.2     1  UNL1       -0.5170
     28 O          21.4238   71.4417    1.3218 O.3     1  UNL1       -0.2858
     29 O          21.8651   73.7107    0.7990 O.3     1  UNL1       -0.3258
     30 O          20.2325   74.2054    4.5594 O.3     1  UNL1       -0.3794
     31 O          18.7184   74.9755    2.2437 O.3     1  UNL1       -0.3794
     32 O          21.9728   71.9547    4.0256 O.3     1  UNL1       -0.3775
     33 C          20.3811   73.5983    3.2731 C.3     1  UNL1        0.1715
     34 C          20.1076   74.6609    2.2068 C.3     1  UNL1        0.1694
     35 C          21.8024   73.0551    3.1387 C.3     1  UNL1        0.1967
     36 C          20.5053   74.1608    0.8115 C.3     1  UNL1        0.1761
     37 C          22.1114   72.6308    1.7018 C.3     1  UNL1        0.2704
     38 H          19.3319   74.5519    4.6514 H       1  UNL1        0.2105
     39 H          18.4802   75.2896    3.1302 H       1  UNL1        0.2105
     40 H          21.7746   72.2363    4.9318 H       1  UNL1        0.2106
     41 O          21.2250   74.9220   -1.3359 O.3     1  UNL1       -0.3794
     42 C          20.3890   75.2582   -0.2440 C.3     1  UNL1        0.1693
     43 H          21.1609   75.6115   -2.0158 H       1  UNL1        0.2105
@<TRIPOS>UNITY_ATOM_ATTR
2 1
charge -1
26 1
charge -1
@<TRIPOS>BOND
     1    25    28    1
     2    25    24    1
     3    25    26    1
     4    25    27    2
     5     1     4    1
     6     1    24    1
     7     1     2    1
     8     1     3    2
     9     6    11    1
    10     6    12    1
    11    29    36    1
    12    29    37    1
    13     7     9    1
    14     7    13    1
    15     8    10    1
    16     8    14    1
    17    28    37    1
    18     4     5    1
    19    30    33    1
    20    30    38    1
    21    31    34    1
    22    31    39    1
    23    32    35    1
    24    32    40    1
    25    41    42    1
    26    41    43    1
    27    15    19    2
    28    16    22    2
    29    17    12    1
    30    17    19   ar
    31    17    20   ar
    32    18    19   ar
    33    18    22   ar
    34    18    23    1
    35     9    10    1
    36     9    11    1
    37    10    12    1
    38    11     5    1
    39    33    34    1
    40    33    35    1
    41    34    36    1
    42    35    37    1
    43    36    42    1
    44    20    21   ar
    45    21    22   ar
@<TRIPOS>MOLECULE
*****
 43 45 0 0 0
SMALL
GASTEIGER

@<TRIPOS>ATOM
      1 P          23.0454   71.8132   -3.1234 P.3     1  UNL1        0.2189
      2 O          23.8424   72.9189   -3.9950 O.co2   1  UNL1       -0.4371
      3 O          23.5846   70.4167   -3.2255 O.2     1  UNL1       -0.5170
      4 O          21.5022   72.0050   -3.5703 O.3     1  UNL1       -0.3112
      5 C          20.6393   70.8822   -3.5202 C.3     1  UNL1        0.1811
      6 O          18.8005   71.9507   -4.6385 O.3     1  UNL1       -0.3308
      7 O          17.0658   70.8112   -2.4744 O.3     1  UNL1       -0.3794
      8 O          16.6266   69.0994   -4.5512 O.3     1  UNL1       -0.3779
      9 C          18.2121   70.2424   -3.1051 C.3     1  UNL1        0.1713
     10 C          17.8657   69.7770   -4.5041 C.3     1  UNL1        0.1895
     11 C          19.2028   71.3668   -3.3801 C.3     1  UNL1        0.1764
     12 C          17.8463   71.0856   -5.2757 C.3     1  UNL1        0.2383
     13 H          16.4189   70.1120   -2.2885 H       1  UNL1        0.2105
     14 H          16.6899   68.2738   -4.0462 H       1  UNL1        0.2106
     15 O          16.0321   70.4830   -7.3550 O.2     1  UNL1       -0.2464
     16 O          19.3837   70.4535  -10.5184 O.2     1  UNL1       -0.2670
     17 N          18.2175   70.9153   -6.6521 N.ar    1  UNL1       -0.2551
     18 N          17.7024   70.4690   -8.9285 N.ar    1  UNL1       -0.2743
     19 C          17.2294   70.6133   -7.6180 C.ar    1  UNL1        0.3323
     20 C          19.5485   71.0483   -7.0324 C.ar    1  UNL1        0.0869
     21 C          19.9834   70.9063   -8.2862 C.ar    1  UNL1        0.0795
     22 C          19.0151   70.5902   -9.3560 C.ar    1  UNL1        0.2626
     23 H          17.0320   70.2580   -9.6183 H       1  UNL1        0.1734
     24 O          23.0722   72.4373   -1.6325 O.3     1  UNL1       -0.2703
     25 P          23.1560   73.9696   -1.1245 P.3     1  UNL1        0.2208
     26 O          21.6476   74.5144   -1.3383 O.co2   1  UNL1       -0.4371
     27 O          24.2126   74.7878   -1.8086 O.2     1  UNL1       -0.5170
     28 O          23.3268   73.8603    0.4767 O.3     1  UNL1       -0.2858
     29 O          22.0024   74.0890    2.4286 O.3     1  UNL1       -0.3258
     30 O          25.1295   76.5817    3.4574 O.3     1  UNL1       -0.3794
     31 O          24.8653   74.0308    4.7501 O.3     1  UNL1       -0.3794
     32 O          24.1641   76.5269    0.7289 O.3     1  UNL1       -0.3775
     33 C          24.5188   75.4405    2.8491 C.3     1  UNL1        0.1715
     34 C          23.8440   74.6155    3.9468 C.3     1  UNL1        0.1694
     35 C          23.4910   75.9122    1.8223 C.3     1  UNL1        0.1967
     36 C          22.9458   73.5252    3.3472 C.3     1  UNL1        0.1761
     37 C          22.6176   74.7584    1.3262 C.3     1  UNL1        0.2704
     38 H          25.7836   76.2891    4.1101 H       1  UNL1        0.2105
     39 H          25.4256   74.7299    5.1222 H       1  UNL1        0.2105
     40 H          24.7134   77.2557    1.0560 H       1  UNL1        0.2106
     41 O          20.7671   72.8886    4.0937 O.3     1  UNL1       -0.3794
     42 C          22.1416   72.7932    4.4194 C.3     1  UNL1        0.1693
     43 H          20.2430   72.4269    4.7674 H       1  UNL1        0.2105
@<TRIPOS>UNITY_ATOM_ATTR
2 1
charge -1
26 1
charge -1
@<TRIPOS>BOND
     1    25    28    1
     2    25    24    1
     3    25    26    1
     4    25    27    2
     5     1     4    1
     6     1    24    1
     7     1     2    1
     8     1     3    2
     9     6    11    1
    10     6    12    1
    11    29    36    1
    12    29    37    1
    13     7     9    1
    14     7    13    1
    15     8    10    1
    16     8    14    1
    17    28    37    1
    18     4     5    1
    19    30    33    1
    20    30    38    1
    21    31    34    1
    22    31    39    1
    23    32    35    1
    24    32    40    1
    25    41    42    1
    26    41    43    1
    27    15    19    2
    28    16    22    2
    29    17    12    1
    30    17    19   ar
    31    17    20   ar
    32    18    19   ar
    33    18    22   ar
    34    18    23    1
    35     9    10    1
    36     9    11    1
    37    10    12    1
    38    11     5    1
    39    33    34    1
    40    33    35    1
    41    34    36    1
    42    35    37    1
    43    36    42    1
    44    20    21   ar
    45    21    22   ar
@<TRIPOS>MOLECULE
*****
 43 45 0 0 0
SMALL
GASTEIGER

@<TRIPOS>ATOM
      1 P          22.9447   72.0032   -3.0625 P.3     1  UNL1        0.2189
      2 O          23.6141   70.5371   -3.2038 O.co2   1  UNL1       -0.4371
      3 O          22.8427   72.5206   -1.6577 O.2     1  UNL1       -0.5170
      4 O          21.5464   71.8708   -3.8658 O.3     1  UNL1       -0.3112
      5 C          20.6928   70.7814   -3.5621 C.3     1  UNL1        0.1811
      6 O          18.8680   71.9070   -4.6469 O.3     1  UNL1       -0.3308
      7 O          17.1293   70.7784   -2.4803 O.3     1  UNL1       -0.3794
      8 O          16.6297   69.1056   -4.5752 O.3     1  UNL1       -0.3779
      9 C          18.2557   70.1920   -3.1305 C.3     1  UNL1        0.1713
     10 C          17.8846   69.7537   -4.5319 C.3     1  UNL1        0.1895
     11 C          19.2693   71.2969   -3.4007 C.3     1  UNL1        0.1764
     12 C          17.8877   71.0728   -5.2857 C.3     1  UNL1        0.2383
     13 H          16.4682   70.0918   -2.2972 H       1  UNL1        0.2105
     14 H          16.6790   68.2719   -4.0819 H       1  UNL1        0.2106
     15 O          16.0512   70.4561   -7.3411 O.2     1  UNL1       -0.2464
     16 O          19.3567   70.4813  -10.5527 O.2     1  UNL1       -0.2670
     17 N          18.2410   70.9128   -6.6680 N.ar    1  UNL1       -0.2551
     18 N          17.6986   70.4693   -8.9386 N.ar    1  UNL1       -0.2743
     19 C          17.2429   70.6024   -7.6208 C.ar    1  UNL1        0.3323
     20 C          19.5647   71.0639   -7.0669 C.ar    1  UNL1        0.0869
     21 C          19.9831   70.9325   -8.3274 C.ar    1  UNL1        0.0795
     22 C          19.0034   70.6087   -9.3844 C.ar    1  UNL1        0.2626
     23 H          17.0209   70.2528   -9.6195 H       1  UNL1        0.1734
     24 O          23.8465   72.9112   -4.0500 O.3     1  UNL1       -0.2703
     25 P          24.2259   74.4816   -3.9972 P.3     1  UNL1        0.2208
     26 O          23.3867   75.0235   -2.7245 O.co2   1  UNL1       -0.4371
     27 O          23.9595   75.2224   -5.2755 O.2     1  UNL1       -0.5170
     28 O          25.7655   74.5138   -3.5138 O.3     1  UNL1       -0.2858
     29 O          26.9093   76.1214   -2.2009 O.3     1  UNL1       -0.3258
     30 O          29.9621   75.0834   -4.7804 O.3     1  UNL1       -0.3794
     31 O          30.0564   74.2080   -2.0468 O.3     1  UNL1       -0.3794
     32 O          27.2482   75.2934   -5.7653 O.3     1  UNL1       -0.3775
     33 C          28.8011   74.8555   -3.9770 C.3     1  UNL1        0.1715
     34 C          29.1477   75.1953   -2.5261 C.3     1  UNL1        0.1694
     35 C          27.6639   75.7427   -4.4801 C.3     1  UNL1        0.1967
     36 C          27.8883   75.2328   -1.6499 C.3     1  UNL1        0.1761
     37 C          26.4800   75.7470   -3.5114 C.3     1  UNL1        0.2704
     38 H          30.6878   74.5227   -4.4665 H       1  UNL1        0.2105
     39 H          30.8469   74.1943   -2.6090 H       1  UNL1        0.2105
     40 H          28.0065   75.2955   -6.3694 H       1  UNL1        0.2106
     41 O          27.0266   75.5600    0.5545 O.3     1  UNL1       -0.3794
     42 C          28.1901   75.7232   -0.2355 C.3     1  UNL1        0.1693
     43 H          27.2040   75.8677    1.4576 H       1  UNL1        0.2105
@<TRIPOS>UNITY_ATOM_ATTR
2 1
charge -1
26 1
charge -1
@<TRIPOS>BOND
     1    25    28    1
     2    25    24    1
     3    25    26    1
     4    25    27    2
     5     1     4    1
     6     1    24    1
     7     1     2    1
     8     1     3    2
     9     6    11    1
    10     6    12    1
    11    29    36    1
    12    29    37    1
    13     7     9    1
    14     7    13    1
    15     8    10    1
    16     8    14    1
    17    28    37    1
    18     4     5    1
    19    30    33    1
    20    30    38    1
    21    31    34    1
    22    31    39    1
    23    32    35    1
    24    32    40    1
    25    41    42    1
    26    41    43    1
    27    15    19    2
    28    16    22    2
    29    17    12    1
    30    17    19   ar
    31    17    20   ar
    32    18    19   ar
    33    18    22   ar
    34    18    23    1
    35     9    10    1
    36     9    11    1
    37    10    12    1
    38    11     5    1
    39    33    34    1
    40    33    35    1
    41    34    36    1
    42    35    37    1
    43    36    42    1
    44    20    21   ar
    45    21    22   ar
@<TRIPOS>MOLECULE
*****
 43 45 0 0 0
SMALL
GASTEIGER

@<TRIPOS>ATOM
      1 P          22.5452   73.2508   -4.8151 P.3     1  UNL1        0.2189
      2 O          22.6661   73.0099   -6.4103 O.co2   1  UNL1       -0.4371
      3 O          23.5594   72.5201   -3.9851 O.2     1  UNL1       -0.5170
      4 O          20.9964   72.9157   -4.4880 O.3     1  UNL1       -0.3112
      5 C          20.7070   71.8221   -3.6346 C.3     1  UNL1        0.1811
      6 O          18.5357   72.0805   -4.6308 O.3     1  UNL1       -0.3308
      7 O          17.4807   70.5485   -2.2791 O.3     1  UNL1       -0.3794
      8 O          17.5548   68.6532   -4.2384 O.3     1  UNL1       -0.3779
      9 C          18.7104   70.3857   -2.9838 C.3     1  UNL1        0.1713
     10 C          18.4641   69.7312   -4.3271 C.3     1  UNL1        0.1895
     11 C          19.2052   71.7684   -3.3896 C.3     1  UNL1        0.1764
     12 C          17.9200   70.8890   -5.1466 C.3     1  UNL1        0.2383
     13 H          17.1453   69.6786   -2.0093 H       1  UNL1        0.2105
     14 H          17.9467   67.9423   -3.7076 H       1  UNL1        0.2106
     15 O          16.0283   70.3241   -7.1666 O.2     1  UNL1       -0.2464
     16 O          19.2432   70.4462  -10.4666 O.2     1  UNL1       -0.2670
     17 N          18.2351   70.7679   -6.5421 N.ar    1  UNL1       -0.2551
     18 N          17.6306   70.3855   -8.8081 N.ar    1  UNL1       -0.2743
     19 C          17.2114   70.4811   -7.4750 C.ar    1  UNL1        0.3323
     20 C          19.5468   70.9334   -6.9733 C.ar    1  UNL1        0.0869
     21 C          19.9303   70.8378   -8.2480 C.ar    1  UNL1        0.0795
     22 C          18.9222   70.5405   -9.2860 C.ar    1  UNL1        0.2626
     23 H          16.9347   70.1860   -9.4757 H       1  UNL1        0.1734
     24 O          22.6037   74.8610   -4.6852 O.3     1  UNL1       -0.2703
     25 P          23.8052   75.9056   -4.9650 P.3     1  UNL1        0.2208
     26 O          25.1162   75.1099   -4.4495 O.co2   1  UNL1       -0.4371
     27 O          23.6095   77.2526   -4.3317 O.2     1  UNL1       -0.5170
     28 O          23.9532   75.9371   -6.5719 O.3     1  UNL1       -0.2858
     29 O          25.5247   76.8497   -8.0932 O.3     1  UNL1       -0.3258
     30 O          22.0359   77.9834   -9.9891 O.3     1  UNL1       -0.3794
     31 O          23.6361   75.8760  -11.1055 O.3     1  UNL1       -0.3794
     32 O          22.2016   78.0650   -7.1003 O.3     1  UNL1       -0.3775
     33 C          22.8779   77.1266   -9.2129 C.3     1  UNL1        0.1715
     34 C          24.0873   76.7409  -10.0670 C.3     1  UNL1        0.1694
     35 C          23.3231   77.8703   -7.9551 C.3     1  UNL1        0.1967
     36 C          25.1630   76.0453   -9.2219 C.3     1  UNL1        0.1761
     37 C          24.4294   77.1165   -7.2150 C.3     1  UNL1        0.2704
     38 H          21.7494   77.5169  -10.7890 H       1  UNL1        0.2105
     39 H          22.9569   76.3270  -11.6313 H       1  UNL1        0.2105
     40 H          21.5084   78.5435   -7.5803 H       1  UNL1        0.2106
     41 O          27.5080   76.4744   -9.3830 O.3     1  UNL1       -0.3794
     42 C          26.4416   75.7935  -10.0181 C.3     1  UNL1        0.1693
     43 H          28.3284   76.3228   -9.8787 H       1  UNL1        0.2105
@<TRIPOS>UNITY_ATOM_ATTR
2 1
charge -1
26 1
charge -1
@<TRIPOS>BOND
     1    25    28    1
     2    25    24    1
     3    25    26    1
     4    25    27    2
     5     1     4    1
     6     1    24    1
     7     1     2    1
     8     1     3    2
     9     6    11    1
    10     6    12    1
    11    29    36    1
    12    29    37    1
    13     7     9    1
    14     7    13    1
    15     8    10    1
    16     8    14    1
    17    28    37    1
    18     4     5    1
    19    30    33    1
    20    30    38    1
    21    31    34    1
    22    31    39    1
    23    32    35    1
    24    32    40    1
    25    41    42    1
    26    41    43    1
    27    15    19    2
    28    16    22    2
    29    17    12    1
    30    17    19   ar
    31    17    20   ar
    32    18    19   ar
    33    18    22   ar
    34    18    23    1
    35     9    10    1
    36     9    11    1
    37    10    12    1
    38    11     5    1
    39    33    34    1
    40    33    35    1
    41    34    36    1
    42    35    37    1
    43    36    42    1
    44    20    21   ar
    45    21    22   ar
@<TRIPOS>MOLECULE
*****
 43 45 0 0 0
SMALL
GASTEIGER

@<TRIPOS>ATOM
      1 P          21.8394   75.8015   -6.1360 P.3     1  UNL1        0.2189
      2 O          22.1610   77.2912   -5.5932 O.co2   1  UNL1       -0.4371
      3 O          22.7469   75.3149   -7.2274 O.2     1  UNL1       -0.5170
      4 O          20.2643   75.8533   -6.5027 O.3     1  UNL1       -0.3112
      5 C          19.4657   74.7185   -6.2162 C.3     1  UNL1        0.1811
      6 O          19.6395   72.5055   -7.1362 O.3     1  UNL1       -0.3308
      7 O          18.0029   73.5327   -9.4291 O.3     1  UNL1       -0.3794
      8 O          16.1596   72.1815   -7.9414 O.3     1  UNL1       -0.3779
      9 C          17.9176   73.8580   -8.0426 C.3     1  UNL1        0.1713
     10 C          17.2831   72.7183   -7.2732 C.3     1  UNL1        0.1895
     11 C          19.3321   73.8752   -7.4768 C.3     1  UNL1        0.1764
     12 C          18.4312   71.7285   -7.1723 C.3     1  UNL1        0.2383
     13 H          17.1115   73.5161   -9.8125 H       1  UNL1        0.2105
     14 H          15.4568   72.8488   -7.9799 H       1  UNL1        0.2106
     15 O          16.4177   69.8144   -6.6626 O.2     1  UNL1       -0.2464
     16 O          18.2514   68.7027   -2.5830 O.2     1  UNL1       -0.2670
     17 N          18.3584   70.9243   -5.9851 N.ar    1  UNL1       -0.2551
     18 N          17.3325   69.2623   -4.6318 N.ar    1  UNL1       -0.2743
     19 C          17.3058   69.9930   -5.8265 C.ar    1  UNL1        0.3323
     20 C          19.3237   71.0631   -4.9937 C.ar    1  UNL1        0.0869
     21 C          19.3342   70.3596   -3.8596 C.ar    1  UNL1        0.0795
     22 C          18.2695   69.3651   -3.6158 C.ar    1  UNL1        0.2626
     23 H          16.6089   68.6077   -4.4992 H       1  UNL1        0.1734
     24 O          21.8694   74.9093   -4.7884 O.3     1  UNL1       -0.2703
     25 P          22.9716   73.8671   -4.2296 P.3     1  UNL1        0.2208
     26 O          24.3228   74.7547   -4.1661 O.co2   1  UNL1       -0.4371
     27 O          23.0946   72.6088   -5.0391 O.2     1  UNL1       -0.5170
     28 O          22.5654   73.6320   -2.6853 O.3     1  UNL1       -0.2858
     29 O          21.7663   71.5933   -1.7788 O.3     1  UNL1       -0.3258
     30 O          19.8907   74.2343    0.7822 O.3     1  UNL1       -0.3794
     31 O          22.1018   72.6666    1.7318 O.3     1  UNL1       -0.3794
     32 O          20.1384   74.8786   -2.0290 O.3     1  UNL1       -0.3775
     33 C          20.9488   73.7607   -0.0555 C.3     1  UNL1        0.1715
     34 C          21.4344   72.4193    0.4974 C.3     1  UNL1        0.1694
     35 C          20.4222   73.5963   -1.4799 C.3     1  UNL1        0.1967
     36 C          22.3793   71.7223   -0.4907 C.3     1  UNL1        0.1761
     37 C          21.4184   72.8480   -2.3675 C.3     1  UNL1        0.2704
     38 H          20.2186   74.3413    1.6880 H       1  UNL1        0.2105
     39 H          21.4943   73.1074    2.3465 H       1  UNL1        0.2105
     40 H          19.5065   75.3420   -1.4582 H       1  UNL1        0.2106
     41 O          21.6990   69.8120    0.7729 O.3     1  UNL1       -0.3794
     42 C          22.7509   70.3144   -0.0305 C.3     1  UNL1        0.1693
     43 H          21.9215   68.9163    1.0728 H       1  UNL1        0.2105
@<TRIPOS>UNITY_ATOM_ATTR
2 1
charge -1
26 1
charge -1
@<TRIPOS>BOND
     1    25    28    1
     2    25    24    1
     3    25    26    1
     4    25    27    2
     5     1     4    1
     6     1    24    1
     7     1     2    1
     8     1     3    2
     9     6    11    1
    10     6    12    1
    11    29    36    1
    12    29    37    1
    13     7     9    1
    14     7    13    1
    15     8    10    1
    16     8    14    1
    17    28    37    1
    18     4     5    1
    19    30    33    1
    20    30    38    1
    21    31    34    1
    22    31    39    1
    23    32    35    1
    24    32    40    1
    25    41    42    1
    26    41    43    1
    27    15    19    2
    28    16    22    2
    29    17    12    1
    30    17    19   ar
    31    17    20   ar
    32    18    19   ar
    33    18    22   ar
    34    18    23    1
    35     9    10    1
    36     9    11    1
    37    10    12    1
    38    11     5    1
    39    33    34    1
    40    33    35    1
    41    34    36    1
    42    35    37    1
    43    36    42    1
    44    20    21   ar
    45    21    22   ar
@<TRIPOS>MOLECULE
*****
 43 45 0 0 0
SMALL
GASTEIGER

@<TRIPOS>ATOM
      1 P          19.6078   69.9235   -2.7152 P.3     1  UNL1        0.2189
      2 O          20.4930   71.0785   -3.4222 O.co2   1  UNL1       -0.4371
      3 O          19.6725   68.5796   -3.3794 O.2     1  UNL1       -0.5170
      4 O          18.1335   70.5800   -2.5998 O.3     1  UNL1       -0.3112
      5 C          17.4161   70.8447   -3.7927 C.3     1  UNL1        0.1811
      6 O          18.2589   72.6414   -5.1475 O.3     1  UNL1       -0.3308
      7 O          15.9616   74.2592   -4.1006 O.3     1  UNL1       -0.3794
      8 O          15.0907   73.5240   -6.5780 O.3     1  UNL1       -0.3779
      9 C          16.0135   72.8710   -4.4255 C.3     1  UNL1        0.1713
     10 C          16.0216   72.6826   -5.9281 C.3     1  UNL1        0.1895
     11 C          17.3895   72.3482   -4.0320 C.3     1  UNL1        0.1764
     12 C          17.4603   73.0206   -6.2803 C.3     1  UNL1        0.2383
     13 H          15.0918   74.6154   -4.3425 H       1  UNL1        0.2105
     14 H          14.1906   73.2692   -6.3218 H       1  UNL1        0.2106
     15 O          16.4143   70.5462   -7.1529 O.2     1  UNL1       -0.2464
     16 O          19.3148   70.3736  -10.7304 O.2     1  UNL1       -0.2670
     17 N          17.9232   72.3069   -7.4369 N.ar    1  UNL1       -0.2551
     18 N          17.8593   70.4624   -8.9336 N.ar    1  UNL1       -0.2743
     19 C          17.3310   71.0714   -7.7882 C.ar    1  UNL1        0.3323
     20 C          18.9530   72.8327   -8.2095 C.ar    1  UNL1        0.0869
     21 C          19.4462   72.2388   -9.2982 C.ar    1  UNL1        0.0795
     22 C          18.8829   70.9446   -9.7338 C.ar    1  UNL1        0.2626
     23 H          17.4625   69.6005   -9.1973 H       1  UNL1        0.1734
     24 O          20.1356   69.9449   -1.1875 O.3     1  UNL1       -0.2703
     25 P          21.5692   70.3583   -0.5654 P.3     1  UNL1        0.2208
     26 O          22.6076   69.9917   -1.7506 O.co2   1  UNL1       -0.4371
     27 O          21.8787   69.7084    0.7521 O.2     1  UNL1       -0.5170
     28 O          21.5478   71.9717   -0.5267 O.3     1  UNL1       -0.2858
     29 O          23.2093   72.9633   -1.8952 O.3     1  UNL1       -0.3258
     30 O          22.0270   76.3004    0.2300 O.3     1  UNL1       -0.3794
     31 O          21.2844   76.0419   -2.5322 O.3     1  UNL1       -0.3794
     32 O          22.2074   73.7334    1.5557 O.3     1  UNL1       -0.3775
     33 C          21.8461   75.0455   -0.4316 C.3     1  UNL1        0.1715
     34 C          22.2534   75.2127   -1.8968 C.3     1  UNL1        0.1694
     35 C          22.7156   73.9913    0.2512 C.3     1  UNL1        0.1967
     36 C          22.3417   73.8545   -2.6057 C.3     1  UNL1        0.1761
     37 C          22.7748   72.6960   -0.5604 C.3     1  UNL1        0.2704
     38 H          21.4773   76.9741   -0.1984 H       1  UNL1        0.2105
     39 H          21.2382   76.8961   -2.0746 H       1  UNL1        0.2105
     40 H          22.1752   74.5611    2.0595 H       1  UNL1        0.2106
     41 O          23.9384   73.0374   -4.1843 O.3     1  UNL1       -0.3794
     42 C          22.8980   73.9837   -4.0221 C.3     1  UNL1        0.1693
     43 H          24.3018   73.1079   -5.0814 H       1  UNL1        0.2105
@<TRIPOS>UNITY_ATOM_ATTR
2 1
charge -1
26 1
charge -1
@<TRIPOS>BOND
     1    25    28    1
     2    25    24    1
     3    25    26    1
     4    25    27    2
     5     1     4    1
     6     1    24    1
     7     1     2    1
     8     1     3    2
     9     6    11    1
    10     6    12    1
    11    29    36    1
    12    29    37    1
    13     7     9    1
    14     7    13    1
    15     8    10    1
    16     8    14    1
    17    28    37    1
    18     4     5    1
    19    30    33    1
    20    30    38    1
    21    31    34    1
    22    31    39    1
    23    32    35    1
    24    32    40    1
    25    41    42    1
    26    41    43    1
    27    15    19    2
    28    16    22    2
    29    17    12    1
    30    17    19   ar
    31    17    20   ar
    32    18    19   ar
    33    18    22   ar
    34    18    23    1
    35     9    10    1
    36     9    11    1
    37    10    12    1
    38    11     5    1
    39    33    34    1
    40    33    35    1
    41    34    36    1
    42    35    37    1
    43    36    42    1
    44    20    21   ar
    45    21    22   ar
@<TRIPOS>MOLECULE
*****
 43 45 0 0 0
SMALL
GASTEIGER

@<TRIPOS>ATOM
      1 P          22.1530   73.5926   -5.5991 P.3     1  UNL1        0.2189
      2 O          22.4215   75.1666   -5.8594 O.co2   1  UNL1       -0.4371
      3 O          23.3245   72.8319   -5.0511 O.2     1  UNL1       -0.5170
      4 O          21.5674   73.0599   -7.0103 O.3     1  UNL1       -0.3112
      5 C          20.5586   73.8191   -7.6534 C.3     1  UNL1        0.1811
      6 O          19.7869   71.6120   -8.2072 O.3     1  UNL1       -0.3308
      7 O          18.1558   72.9239  -10.3541 O.3     1  UNL1       -0.3794
      8 O          16.3135   72.4860   -8.3917 O.3     1  UNL1       -0.3779
      9 C          18.4713   73.3959   -9.0453 C.3     1  UNL1        0.1713
     10 C          17.6637   72.6456   -8.0068 C.3     1  UNL1        0.1895
     11 C          19.8938   72.9585   -8.7190 C.3     1  UNL1        0.1764
     12 C          18.4080   71.3238   -7.9235 C.3     1  UNL1        0.2383
     13 H          17.2518   73.1915  -10.5849 H       1  UNL1        0.2105
     14 H          15.8833   73.3545   -8.4303 H       1  UNL1        0.2106
     15 O          16.0988   70.0469   -6.9160 O.2     1  UNL1       -0.2464
     16 O          18.1663   69.0599   -2.9169 O.2     1  UNL1       -0.2670
     17 N          18.3152   70.7241   -6.6223 N.ar    1  UNL1       -0.2551
     18 N          17.1302   69.5564   -4.9256 N.ar    1  UNL1       -0.2743
     19 C          17.1093   70.1090   -6.2125 C.ar    1  UNL1        0.3323
     20 C          19.4121   70.7492   -5.7678 C.ar    1  UNL1        0.0869
     21 C          19.4154   70.2188   -4.5431 C.ar    1  UNL1        0.0795
     22 C          18.1949   69.5571   -4.0384 C.ar    1  UNL1        0.2626
     23 H          16.3010   69.1229   -4.6186 H       1  UNL1        0.1734
     24 O          20.8489   73.5994   -4.6440 O.3     1  UNL1       -0.2703
     25 P          20.6841   73.9519   -3.0750 P.3     1  UNL1        0.2208
     26 O          19.0903   74.1764   -2.9107 O.co2   1  UNL1       -0.4371
     27 O          21.5232   75.1077   -2.6126 O.2     1  UNL1       -0.5170
     28 O          20.9809   72.5617   -2.3106 O.3     1  UNL1       -0.2858
     29 O          22.7277   73.1638   -0.8264 O.3     1  UNL1       -0.3258
     30 O          22.1268   69.2691    0.4071 O.3     1  UNL1       -0.3794
     31 O          21.2662   71.4363    2.0837 O.3     1  UNL1       -0.3794
     32 O          21.9629   69.9346   -2.4054 O.3     1  UNL1       -0.3775
     33 C          21.7390   70.5535   -0.0884 C.3     1  UNL1        0.1715
     34 C          22.1199   71.6052    0.9554 C.3     1  UNL1        0.1694
     35 C          22.4621   70.8187   -1.4076 C.3     1  UNL1        0.1967
     36 C          21.9812   73.0243    0.3881 C.3     1  UNL1        0.1761
     37 C          22.3008   72.2717   -1.8579 C.3     1  UNL1        0.2704
     38 H          21.6708   69.0943    1.2443 H       1  UNL1        0.2105
     39 H          21.3630   70.5360    2.4320 H       1  UNL1        0.2105
     40 H          22.0710   69.0181   -2.1085 H       1  UNL1        0.2106
     41 O          23.6500   74.6875    0.7860 O.3     1  UNL1       -0.3794
     42 C          22.5052   74.0816    1.3576 C.3     1  UNL1        0.1693
     43 H          23.9941   75.3628    1.3919 H       1  UNL1        0.2105
@<TRIPOS>UNITY_ATOM_ATTR
2 1
charge -1
26 1
charge -1
@<TRIPOS>BOND
     1    25    28    1
     2    25    24    1
     3    25    26    1
     4    25    27    2
     5     1     4    1
     6     1    24    1
     7     1     2    1
     8     1     3    2
     9     6    11    1
    10     6    12    1
    11    29    36    1
    12    29    37    1
    13     7     9    1
    14     7    13    1
    15     8    10    1
    16     8    14    1
    17    28    37    1
    18     4     5    1
    19    30    33    1
    20    30    38    1
    21    31    34    1
    22    31    39    1
    23    32    35    1
    24    32    40    1
    25    41    42    1
    26    41    43    1
    27    15    19    2
    28    16    22    2
    29    17    12    1
    30    17    19   ar
    31    17    20   ar
    32    18    19   ar
    33    18    22   ar
    34    18    23    1
    35     9    10    1
    36     9    11    1
    37    10    12    1
    38    11     5    1
    39    33    34    1
    40    33    35    1
    41    34    36    1
    42    35    37    1
    43    36    42    1
    44    20    21   ar
    45    21    22   ar
@<TRIPOS>MOLECULE
*****
 43 45 0 0 0
SMALL
GASTEIGER

@<TRIPOS>ATOM
      1 P          22.8327   72.0645   -3.2381 P.3     1  UNL1        0.2189
      2 O          23.3825   70.5429   -3.2456 O.co2   1  UNL1       -0.4371
      3 O          23.8924   73.1218   -3.3399 O.2     1  UNL1       -0.5170
      4 O          21.8965   72.1326   -1.9202 O.3     1  UNL1       -0.3112
      5 C          21.9819   73.2767   -1.0886 C.3     1  UNL1        0.1811
      6 O          21.0577   72.9963    1.1116 O.3     1  UNL1       -0.3308
      7 O          18.7670   74.6813    0.1606 O.3     1  UNL1       -0.3794
      8 O          20.2525   76.4567    1.6022 O.3     1  UNL1       -0.3779
      9 C          20.1541   74.7819   -0.1576 C.3     1  UNL1        0.1713
     10 C          20.9215   75.3603    1.0129 C.3     1  UNL1        0.1895
     11 C          20.7197   73.3697   -0.2422 C.3     1  UNL1        0.1764
     12 C          21.0204   74.1656    1.9461 C.3     1  UNL1        0.2383
     13 H          18.3837   75.5710    0.2196 H       1  UNL1        0.2105
     14 H          20.2154   77.1909    0.9695 H       1  UNL1        0.2106
     15 O          23.5155   75.1663    1.0797 O.2     1  UNL1       -0.2464
     16 O          25.5007   74.2428    5.1352 O.2     1  UNL1       -0.2670
     17 N          22.2061   74.1991    2.7551 N.ar    1  UNL1       -0.2551
     18 N          24.5019   74.7058    3.0998 N.ar    1  UNL1       -0.2743
     19 C          23.4086   74.7213    2.2243 C.ar    1  UNL1        0.3323
     20 C          22.1690   73.7181    4.0593 C.ar    1  UNL1        0.0869
     21 C          23.2207   73.7092    4.8809 C.ar    1  UNL1        0.0795
     22 C          24.5152   74.2372    4.4040 C.ar    1  UNL1        0.2626
     23 H          25.3504   75.0643    2.7516 H       1  UNL1        0.1734
     24 O          21.7594   72.0691   -4.4468 O.3     1  UNL1       -0.2703
     25 P          21.4977   73.1390   -5.6299 P.3     1  UNL1        0.2208
     26 O          22.7386   72.8891   -6.6374 O.co2   1  UNL1       -0.4371
     27 O          21.3595   74.5573   -5.1575 O.2     1  UNL1       -0.5170
     28 O          20.2106   72.5685   -6.4192 O.3     1  UNL1       -0.2858
     29 O          19.1356   70.4796   -6.1068 O.3     1  UNL1       -0.3258
     30 O          18.4824   70.9589  -10.1558 O.3     1  UNL1       -0.3794
     31 O          16.2942   71.2632   -8.3208 O.3     1  UNL1       -0.3794
     32 O          21.0032   71.7792   -8.9928 O.3     1  UNL1       -0.3775
     33 C          18.6340   71.3897   -8.8005 C.3     1  UNL1        0.1715
     34 C          17.5550   70.7078   -7.9570 C.3     1  UNL1        0.1694
     35 C          20.0269   71.0029   -8.3067 C.3     1  UNL1        0.1967
     36 C          17.8147   70.9084   -6.4579 C.3     1  UNL1        0.1761
     37 C          20.1636   71.1946   -6.7952 C.3     1  UNL1        0.2704
     38 H          17.6003   71.2019  -10.4756 H       1  UNL1        0.2105
     39 H          16.1427   71.1303   -9.2698 H       1  UNL1        0.2105
     40 H          20.9063   71.6489   -9.9486 H       1  UNL1        0.2106
     41 O          16.1958   69.1515   -6.4186 O.3     1  UNL1       -0.3794
     42 C          16.8417   70.1062   -5.5966 C.3     1  UNL1        0.1693
     43 H          15.5737   68.6333   -5.8837 H       1  UNL1        0.2105
@<TRIPOS>UNITY_ATOM_ATTR
2 1
charge -1
26 1
charge -1
@<TRIPOS>BOND
     1    25    28    1
     2    25    24    1
     3    25    26    1
     4    25    27    2
     5     1     4    1
     6     1    24    1
     7     1     2    1
     8     1     3    2
     9     6    11    1
    10     6    12    1
    11    29    36    1
    12    29    37    1
    13     7     9    1
    14     7    13    1
    15     8    10    1
    16     8    14    1
    17    28    37    1
    18     4     5    1
    19    30    33    1
    20    30    38    1
    21    31    34    1
    22    31    39    1
    23    32    35    1
    24    32    40    1
    25    41    42    1
    26    41    43    1
    27    15    19    2
    28    16    22    2
    29    17    12    1
    30    17    19   ar
    31    17    20   ar
    32    18    19   ar
    33    18    22   ar
    34    18    23    1
    35     9    10    1
    36     9    11    1
    37    10    12    1
    38    11     5    1
    39    33    34    1
    40    33    35    1
    41    34    36    1
    42    35    37    1
    43    36    42    1
    44    20    21   ar
    45    21    22   ar
@<TRIPOS>MOLECULE
*****
 43 45 0 0 0
SMALL
GASTEIGER

@<TRIPOS>ATOM
      1 P          21.4966   72.9199   -6.1255 P.3     1  UNL1        0.2189
      2 O          21.2511   74.4472   -5.6518 O.co2   1  UNL1       -0.4371
      3 O          22.6877   72.7158   -7.0148 O.2     1  UNL1       -0.5170
      4 O          20.0712   72.4719   -6.7463 O.3     1  UNL1       -0.3112
      5 C          19.6975   71.1074   -6.6659 C.3     1  UNL1        0.1811
      6 O          17.5096   70.8670   -7.6296 O.3     1  UNL1       -0.3308
      7 O          18.8799   70.9462  -10.2955 O.3     1  UNL1       -0.3794
      8 O          17.9008   73.4800  -10.0549 O.3     1  UNL1       -0.3779
      9 C          19.1934   71.6563   -9.0985 C.3     1  UNL1        0.1713
     10 C          18.1913   72.7684   -8.8691 C.3     1  UNL1        0.1895
     11 C          18.9183   70.7320   -7.9189 C.3     1  UNL1        0.1764
     12 C          16.9905   72.0056   -8.3360 C.3     1  UNL1        0.2383
     13 H          19.0480   71.5162  -11.0628 H       1  UNL1        0.2105
     14 H          18.6957   73.9483  -10.3541 H       1  UNL1        0.2106
     15 O          15.0234   73.8641   -9.1452 O.2     1  UNL1       -0.2464
     16 O          14.0135   74.9700   -4.7865 O.2     1  UNL1       -0.2670
     17 N          16.1982   72.7926   -7.4337 N.ar    1  UNL1       -0.2551
     18 N          14.5220   74.4131   -6.9742 N.ar    1  UNL1       -0.2743
     19 C          15.2379   73.6978   -7.9427 C.ar    1  UNL1        0.3323
     20 C          16.3769   72.6627   -6.0607 C.ar    1  UNL1        0.0869
     21 C          15.6871   73.3531   -5.1504 C.ar    1  UNL1        0.0795
     22 C          14.6643   74.3200   -5.5988 C.ar    1  UNL1        0.2626
     23 H          13.8478   75.0499   -7.3055 H       1  UNL1        0.1734
     24 O          21.5544   72.1106   -4.7273 O.3     1  UNL1       -0.2703
     25 P          22.5973   72.1936   -3.4951 P.3     1  UNL1        0.2208
     26 O          23.8772   72.9425   -4.1421 O.co2   1  UNL1       -0.4371
     27 O          22.9097   70.8682   -2.8630 O.2     1  UNL1       -0.5170
     28 O          21.9551   73.2798   -2.4888 O.3     1  UNL1       -0.2858
     29 O          19.7645   72.5160   -2.0047 O.3     1  UNL1       -0.3258
     30 O          21.9192   69.3145   -0.5356 O.3     1  UNL1       -0.3794
     31 O          20.4355   69.0242   -2.9774 O.3     1  UNL1       -0.3794
     32 O          22.9121   72.0098   -0.1766 O.3     1  UNL1       -0.3775
     33 C          21.6370   70.3951   -1.4289 C.3     1  UNL1        0.1715
     34 C          20.2835   70.1292   -2.0907 C.3     1  UNL1        0.1694
     35 C          21.6009   71.7009   -0.6370 C.3     1  UNL1        0.1967
     36 C          19.7888   71.3641   -2.8558 C.3     1  UNL1        0.1761
     37 C          21.0478   72.8548   -1.4753 C.3     1  UNL1        0.2704
     38 H          21.9440   68.4825   -1.0322 H       1  UNL1        0.2105
     39 H          20.7488   68.2512   -2.4819 H       1  UNL1        0.2105
     40 H          23.2509   71.2719    0.3530 H       1  UNL1        0.2106
     41 O          17.8089   70.0288   -2.7799 O.3     1  UNL1       -0.3794
     42 C          18.3711   71.1752   -3.3913 C.3     1  UNL1        0.1693
     43 H          16.9063   69.8963   -3.1109 H       1  UNL1        0.2105
@<TRIPOS>UNITY_ATOM_ATTR
2 1
charge -1
26 1
charge -1
@<TRIPOS>BOND
     1    25    28    1
     2    25    24    1
     3    25    26    1
     4    25    27    2
     5     1     4    1
     6     1    24    1
     7     1     2    1
     8     1     3    2
     9     6    11    1
    10     6    12    1
    11    29    36    1
    12    29    37    1
    13     7     9    1
    14     7    13    1
    15     8    10    1
    16     8    14    1
    17    28    37    1
    18     4     5    1
    19    30    33    1
    20    30    38    1
    21    31    34    1
    22    31    39    1
    23    32    35    1
    24    32    40    1
    25    41    42    1
    26    41    43    1
    27    15    19    2
    28    16    22    2
    29    17    12    1
    30    17    19   ar
    31    17    20   ar
    32    18    19   ar
    33    18    22   ar
    34    18    23    1
    35     9    10    1
    36     9    11    1
    37    10    12    1
    38    11     5    1
    39    33    34    1
    40    33    35    1
    41    34    36    1
    42    35    37    1
    43    36    42    1
    44    20    21   ar
    45    21    22   ar
@<TRIPOS>MOLECULE
*****
 43 45 0 0 0
SMALL
GASTEIGER

@<TRIPOS>ATOM
      1 P          22.6869   71.8666   -3.2544 P.3     1  UNL1        0.2189
      2 O          23.8018   72.7782   -3.9916 O.co2   1  UNL1       -0.4371
      3 O          22.9727   70.3936   -3.2528 O.2     1  UNL1       -0.5170
      4 O          21.2972   72.3119   -3.9532 O.3     1  UNL1       -0.3112
      5 C          20.4576   71.3050   -4.4908 C.3     1  UNL1        0.1811
      6 O          18.2266   71.9086   -3.8337 O.3     1  UNL1       -0.3308
      7 O          18.1498   69.2916   -2.3721 O.3     1  UNL1       -0.3794
      8 O          16.7485   68.7435   -4.6464 O.3     1  UNL1       -0.3779
      9 C          18.7715   69.6127   -3.6154 C.3     1  UNL1        0.1713
     10 C          17.7276   69.7608   -4.7025 C.3     1  UNL1        0.1895
     11 C          19.3254   71.0283   -3.5113 C.3     1  UNL1        0.1764
     12 C          17.1578   71.1377   -4.4067 C.3     1  UNL1        0.2383
     13 H          17.7887   68.3917   -2.4143 H       1  UNL1        0.2105
     14 H          17.1601   67.8872   -4.8417 H       1  UNL1        0.2106
     15 O          17.9088   70.4346   -7.0372 O.2     1  UNL1       -0.2464
     16 O          15.2879   73.7540   -8.8685 O.2     1  UNL1       -0.2670
     17 N          16.6865   71.8011   -5.5895 N.ar    1  UNL1       -0.2551
     18 N          16.6030   72.0879   -7.9469 N.ar    1  UNL1       -0.2743
     19 C          17.1257   71.3707   -6.8632 C.ar    1  UNL1        0.3323
     20 C          15.7985   72.8657   -5.4798 C.ar    1  UNL1        0.0869
     21 C          15.3103   73.5399   -6.5230 C.ar    1  UNL1        0.0795
     22 C          15.7191   73.1537   -7.8890 C.ar    1  UNL1        0.2626
     23 H          16.8953   71.8060   -8.8441 H       1  UNL1        0.1734
     24 O          22.5851   72.5337   -1.7856 O.3     1  UNL1       -0.2703
     25 P          21.4824   72.3628   -0.6161 P.3     1  UNL1        0.2208
     26 O          21.3857   70.7587   -0.4289 O.co2   1  UNL1       -0.4371
     27 O          20.1703   73.0327   -0.9049 O.2     1  UNL1       -0.5170
     28 O          22.2203   72.8855    0.7208 O.3     1  UNL1       -0.2858
     29 O          21.4392   74.1975    2.5332 O.3     1  UNL1       -0.3258
     30 O          25.2469   75.7562    2.1832 O.3     1  UNL1       -0.3794
     31 O          24.6110   74.0524    4.4060 O.3     1  UNL1       -0.3794
     32 O          23.7504   75.0532   -0.1929 O.3     1  UNL1       -0.3775
     33 C          24.2492   74.7324    2.1415 C.3     1  UNL1        0.1715
     34 C          23.6301   74.6091    3.5352 C.3     1  UNL1        0.1694
     35 C          23.1862   75.1129    1.1127 C.3     1  UNL1        0.1967
     36 C          22.3762   73.7248    3.5080 C.3     1  UNL1        0.1761
     37 C          21.9610   74.2013    1.2029 C.3     1  UNL1        0.2704
     38 H          25.9252   75.5205    2.8342 H       1  UNL1        0.2105
     39 H          25.3977   74.6200    4.4137 H       1  UNL1        0.2105
     40 H          24.5249   75.6347   -0.2372 H       1  UNL1        0.2106
     41 O          22.3705   72.8792    5.7427 O.3     1  UNL1       -0.3794
     42 C          21.6536   73.7155    4.8534 C.3     1  UNL1        0.1693
     43 H          21.9224   72.8639    6.6033 H       1  UNL1        0.2105
@<TRIPOS>UNITY_ATOM_ATTR
2 1
charge -1
26 1
charge -1
@<TRIPOS>BOND
     1    25    28    1
     2    25    24    1
     3    25    26    1
     4    25    27    2
     5     1     4    1
     6     1    24    1
     7     1     2    1
     8     1     3    2
     9     6    11    1
    10     6    12    1
    11    29    36    1
    12    29    37    1
    13     7     9    1
    14     7    13    1
    15     8    10    1
    16     8    14    1
    17    28    37    1
    18     4     5    1
    19    30    33    1
    20    30    38    1
    21    31    34    1
    22    31    39    1
    23    32    35    1
    24    32    40    1
    25    41    42    1
    26    41    43    1
    27    15    19    2
    28    16    22    2
    29    17    12    1
    30    17    19   ar
    31    17    20   ar
    32    18    19   ar
    33    18    22   ar
    34    18    23    1
    35     9    10    1
    36     9    11    1
    37    10    12    1
    38    11     5    1
    39    33    34    1
    40    33    35    1
    41    34    36    1
    42    35    37    1
    43    36    42    1
    44    20    21   ar
    45    21    22   ar
@<TRIPOS>MOLECULE
*****
 43 45 0 0 0
SMALL
GASTEIGER

@<TRIPOS>ATOM
      1 P          19.6356   71.2985   -4.2305 P.3     1  UNL1        0.2189
      2 O          18.4532   70.3702   -3.6325 O.co2   1  UNL1       -0.4371
      3 O          19.3925   72.7759   -4.1326 O.2     1  UNL1       -0.5170
      4 O          19.8642   70.7215   -5.7248 O.3     1  UNL1       -0.3112
      5 C          19.8914   71.6368   -6.8061 C.3     1  UNL1        0.1811
      6 O          17.6539   71.1557   -7.5382 O.3     1  UNL1       -0.3308
      7 O          18.7825   71.0624  -10.3146 O.3     1  UNL1       -0.3794
      8 O          17.6384   73.5360  -10.2208 O.3     1  UNL1       -0.3779
      9 C          19.1420   71.9070   -9.2224 C.3     1  UNL1        0.1713
     10 C          18.0817   72.9665   -9.0060 C.3     1  UNL1        0.1895
     11 C          19.0390   71.0877   -7.9420 C.3     1  UNL1        0.1764
     12 C          16.9918   72.1813   -8.2963 C.3     1  UNL1        0.2383
     13 H          18.8410   71.5636  -11.1436 H       1  UNL1        0.2105
     14 H          18.3672   74.0248  -10.6340 H       1  UNL1        0.2106
     15 O          14.8569   73.8485   -9.0964 O.2     1  UNL1       -0.2464
     16 O          14.1103   75.2741   -4.7777 O.2     1  UNL1       -0.2670
     17 N          16.2219   72.9988   -7.4018 N.ar    1  UNL1       -0.2551
     18 N          14.4868   74.5568   -6.9454 N.ar    1  UNL1       -0.2743
     19 C          15.1712   73.8006   -7.9054 C.ar    1  UNL1        0.3323
     20 C          16.5111   72.9999   -6.0415 C.ar    1  UNL1        0.0869
     21 C          15.8498   73.7278   -5.1393 C.ar    1  UNL1        0.0795
     22 C          14.7376   74.5928   -5.5828 C.ar    1  UNL1        0.2626
     23 H          13.7510   75.1233   -7.2732 H       1  UNL1        0.1734
     24 O          20.9435   70.7778   -3.4360 O.3     1  UNL1       -0.2703
     25 P          22.4104   71.4339   -3.2610 P.3     1  UNL1        0.2208
     26 O          22.5187   72.4421   -4.5217 O.co2   1  UNL1       -0.4371
     27 O          23.5256   70.4328   -3.1711 O.2     1  UNL1       -0.5170
     28 O          22.2746   72.4011   -1.9761 O.3     1  UNL1       -0.2858
     29 O          21.4220   71.4553    0.0227 O.3     1  UNL1       -0.3258
     30 O          20.8493   75.4522    0.8874 O.3     1  UNL1       -0.3794
     31 O          22.9280   73.9947    2.2300 O.3     1  UNL1       -0.3794
     32 O          20.3940   74.4765   -1.7997 O.3     1  UNL1       -0.3775
     33 C          21.5241   74.3251    0.3219 C.3     1  UNL1        0.1715
     34 C          21.9036   73.3737    1.4584 C.3     1  UNL1        0.1694
     35 C          20.5928   73.6322   -0.6710 C.3     1  UNL1        0.1967
     36 C          22.3897   72.0244    0.9122 C.3     1  UNL1        0.1761
     37 C          21.1468   72.2768   -1.1137 C.3     1  UNL1        0.2704
     38 H          21.4354   75.8969    1.5184 H       1  UNL1        0.2105
     39 H          22.6084   74.8458    2.5686 H       1  UNL1        0.2105
     40 H          20.0429   75.3312   -1.5062 H       1  UNL1        0.2106
     41 O          23.1943   69.8423    1.4596 O.3     1  UNL1       -0.3794
     42 C          22.6237   71.0071    2.0268 C.3     1  UNL1        0.1693
     43 H          23.3491   69.1860    2.1574 H       1  UNL1        0.2105
@<TRIPOS>UNITY_ATOM_ATTR
2 1
charge -1
26 1
charge -1
@<TRIPOS>BOND
     1    25    28    1
     2    25    24    1
     3    25    26    1
     4    25    27    2
     5     1     4    1
     6     1    24    1
     7     1     2    1
     8     1     3    2
     9     6    11    1
    10     6    12    1
    11    29    36    1
    12    29    37    1
    13     7     9    1
    14     7    13    1
    15     8    10    1
    16     8    14    1
    17    28    37    1
    18     4     5    1
    19    30    33    1
    20    30    38    1
    21    31    34    1
    22    31    39    1
    23    32    35    1
    24    32    40    1
    25    41    42    1
    26    41    43    1
    27    15    19    2
    28    16    22    2
    29    17    12    1
    30    17    19   ar
    31    17    20   ar
    32    18    19   ar
    33    18    22   ar
    34    18    23    1
    35     9    10    1
    36     9    11    1
    37    10    12    1
    38    11     5    1
    39    33    34    1
    40    33    35    1
    41    34    36    1
    42    35    37    1
    43    36    42    1
    44    20    21   ar
    45    21    22   ar
@<TRIPOS>MOLECULE
*****
 43 45 0 0 0
SMALL
GASTEIGER

@<TRIPOS>ATOM
      1 P          22.7257   72.7551   -3.9314 P.3     1  UNL1        0.2189
      2 O          22.9403   72.8705   -5.5308 O.co2   1  UNL1       -0.4371
      3 O          23.4334   71.6044   -3.2784 O.2     1  UNL1       -0.5170
      4 O          21.1179   72.7842   -3.7522 O.3     1  UNL1       -0.3112
      5 C          20.4515   71.5757   -3.4307 C.3     1  UNL1        0.1811
      6 O          18.4960   72.3650   -4.5826 O.3     1  UNL1       -0.3308
      7 O          16.9092   70.9934   -2.4397 O.3     1  UNL1       -0.3794
      8 O          16.7544   69.2305   -4.5144 O.3     1  UNL1       -0.3779
      9 C          18.1354   70.5940   -3.0498 C.3     1  UNL1        0.1713
     10 C          17.8821   70.0797   -4.4516 C.3     1  UNL1        0.1895
     11 C          18.9581   71.8486   -3.3152 C.3     1  UNL1        0.1764
     12 C          17.6867   71.3696   -5.2300 C.3     1  UNL1        0.2383
     13 H          16.3669   70.2088   -2.2603 H       1  UNL1        0.2105
     14 H          16.9279   68.4240   -4.0043 H       1  UNL1        0.2106
     15 O          16.0657   72.0225   -7.4491 O.2     1  UNL1       -0.2464
     16 O          19.3788   70.8727  -10.4395 O.2     1  UNL1       -0.2670
     17 N          18.1005   71.2509   -6.5997 N.ar    1  UNL1       -0.2551
     18 N          17.7168   71.4496   -8.9363 N.ar    1  UNL1       -0.2743
     19 C          17.2095   71.6042   -7.6398 C.ar    1  UNL1        0.3323
     20 C          19.3772   70.7888   -6.9003 C.ar    1  UNL1        0.0869
     21 C          19.8452   70.6459   -8.1420 C.ar    1  UNL1        0.0795
     22 C          18.9777   70.9931   -9.2860 C.ar    1  UNL1        0.2626
     23 H          17.1137   71.6893   -9.6770 H       1  UNL1        0.1734
     24 O          23.1771   74.2127   -3.3980 O.3     1  UNL1       -0.2703
     25 P          22.6816   75.0777   -2.1255 P.3     1  UNL1        0.2208
     26 O          21.1178   75.3436   -2.4438 O.co2   1  UNL1       -0.4371
     27 O          23.4835   76.3225   -1.8777 O.2     1  UNL1       -0.5170
     28 O          22.6753   74.0307   -0.8972 O.3     1  UNL1       -0.2858
     29 O          21.1887   72.2344   -0.4732 O.3     1  UNL1       -0.3258
     30 O          21.9158   73.4209    3.4145 O.3     1  UNL1       -0.3794
     31 O          23.0577   70.9716    2.4425 O.3     1  UNL1       -0.3794
     32 O          21.6518   75.4061    1.3244 O.3     1  UNL1       -0.3775
     33 C          22.2410   73.1838    2.0422 C.3     1  UNL1        0.1715
     34 C          22.0421   71.6947    1.7526 C.3     1  UNL1        0.1694
     35 C          21.3263   74.0302    1.1589 C.3     1  UNL1        0.1967
     36 C          22.1122   71.4091    0.2464 C.3     1  UNL1        0.1761
     37 C          21.4374   73.6325   -0.3140 C.3     1  UNL1        0.2704
     38 H          22.4934   72.8868    3.9808 H       1  UNL1        0.2105
     39 H          23.0027   71.1612    3.3924 H       1  UNL1        0.2105
     40 H          21.5774   75.6455    2.2609 H       1  UNL1        0.2106
     41 O          22.8383   69.1341    0.3257 O.3     1  UNL1       -0.3794
     42 C          21.7605   69.9588   -0.0776 C.3     1  UNL1        0.1693
     43 H          22.6284   68.2080    0.1259 H       1  UNL1        0.2105
@<TRIPOS>UNITY_ATOM_ATTR
2 1
charge -1
26 1
charge -1
@<TRIPOS>BOND
     1    25    28    1
     2    25    24    1
     3    25    26    1
     4    25    27    2
     5     1     4    1
     6     1    24    1
     7     1     2    1
     8     1     3    2
     9     6    11    1
    10     6    12    1
    11    29    36    1
    12    29    37    1
    13     7     9    1
    14     7    13    1
    15     8    10    1
    16     8    14    1
    17    28    37    1
    18     4     5    1
    19    30    33    1
    20    30    38    1
    21    31    34    1
    22    31    39    1
    23    32    35    1
    24    32    40    1
    25    41    42    1
    26    41    43    1
    27    15    19    2
    28    16    22    2
    29    17    12    1
    30    17    19   ar
    31    17    20   ar
    32    18    19   ar
    33    18    22   ar
    34    18    23    1
    35     9    10    1
    36     9    11    1
    37    10    12    1
    38    11     5    1
    39    33    34    1
    40    33    35    1
    41    34    36    1
    42    35    37    1
    43    36    42    1
    44    20    21   ar
    45    21    22   ar
@<TRIPOS>MOLECULE
*****
 43 45 0 0 0
SMALL
GASTEIGER

@<TRIPOS>ATOM
      1 P          22.4880   73.0107   -4.7242 P.3     1  UNL1        0.2189
      2 O          21.6149   74.3537   -4.4974 O.co2   1  UNL1       -0.4371
      3 O          23.8836   73.0618   -4.1755 O.2     1  UNL1       -0.5170
      4 O          22.3676   72.7330   -6.3136 O.3     1  UNL1       -0.3112
      5 C          21.1220   72.9649   -6.9481 C.3     1  UNL1        0.1811
      6 O          19.0552   71.7410   -6.8822 O.3     1  UNL1       -0.3308
      7 O          20.3508   69.8169   -8.7823 O.3     1  UNL1       -0.3794
      8 O          18.7808   71.3161  -10.4328 O.3     1  UNL1       -0.3779
      9 C          20.4863   71.2349   -8.7020 C.3     1  UNL1        0.1713
     10 C          19.2430   71.9131   -9.2384 C.3     1  UNL1        0.1895
     11 C          20.4525   71.6268   -7.2300 C.3     1  UNL1        0.1764
     12 C          18.2689   71.7435   -8.0849 C.3     1  UNL1        0.2383
     13 H          20.3699   69.5427   -9.7131 H       1  UNL1        0.2105
     14 H          19.4348   71.4512  -11.1362 H       1  UNL1        0.2106
     15 O          15.8737   71.6443   -6.5912 O.2     1  UNL1       -0.2464
     16 O          14.6731   75.9005   -7.8892 O.2     1  UNL1       -0.2670
     17 N          17.3122   72.8116   -8.0144 N.ar    1  UNL1       -0.2551
     18 N          15.2779   73.7637   -7.2386 N.ar    1  UNL1       -0.2743
     19 C          16.1408   72.6603   -7.2363 C.ar    1  UNL1        0.3323
     20 C          17.5401   73.9932   -8.7114 C.ar    1  UNL1        0.0869
     21 C          16.7066   75.0356   -8.7042 C.ar    1  UNL1        0.0795
     22 C          15.4597   74.9590   -7.9160 C.ar    1  UNL1        0.2626
     23 H          14.4552   73.6809   -6.7038 H       1  UNL1        0.1734
     24 O          21.5545   71.8576   -4.0822 O.3     1  UNL1       -0.2703
     25 P          21.8790   70.7202   -2.9805 P.3     1  UNL1        0.2208
     26 O          23.4851   70.5532   -3.0816 O.co2   1  UNL1       -0.4371
     27 O          21.1107   69.4442   -3.1687 O.2     1  UNL1       -0.5170
     28 O          21.6333   71.4456   -1.5598 O.3     1  UNL1       -0.2858
     29 O          23.2565   72.8398   -0.5409 O.3     1  UNL1       -0.3258
     30 O          21.1884   71.6603    2.8329 O.3     1  UNL1       -0.3794
     31 O          20.9013   74.3475    1.8609 O.3     1  UNL1       -0.3794
     32 O          21.6554   69.7699    0.6911 O.3     1  UNL1       -0.3775
     33 C          21.3385   72.0304    1.4596 C.3     1  UNL1        0.1715
     34 C          21.9089   73.4491    1.4049 C.3     1  UNL1        0.1694
     35 C          22.2844   71.0440    0.7774 C.3     1  UNL1        0.1967
     36 C          22.3466   73.8155   -0.0196 C.3     1  UNL1        0.1761
     37 C          22.6966   71.5271   -0.6143 C.3     1  UNL1        0.2704
     38 H          20.5886   72.2825    3.2718 H       1  UNL1        0.2105
     39 H          20.6334   74.1048    2.7612 H       1  UNL1        0.2105
     40 H          21.3996   69.4749    1.5784 H       1  UNL1        0.2106
     41 O          23.5749   75.4479    1.2196 O.3     1  UNL1       -0.3794
     42 C          23.0620   75.1638   -0.0690 C.3     1  UNL1        0.1693
     43 H          24.0332   76.3032    1.2032 H       1  UNL1        0.2105
@<TRIPOS>UNITY_ATOM_ATTR
2 1
charge -1
26 1
charge -1
@<TRIPOS>BOND
     1    25    28    1
     2    25    24    1
     3    25    26    1
     4    25    27    2
     5     1     4    1
     6     1    24    1
     7     1     2    1
     8     1     3    2
     9     6    11    1
    10     6    12    1
    11    29    36    1
    12    29    37    1
    13     7     9    1
    14     7    13    1
    15     8    10    1
    16     8    14    1
    17    28    37    1
    18     4     5    1
    19    30    33    1
    20    30    38    1
    21    31    34    1
    22    31    39    1
    23    32    35    1
    24    32    40    1
    25    41    42    1
    26    41    43    1
    27    15    19    2
    28    16    22    2
    29    17    12    1
    30    17    19   ar
    31    17    20   ar
    32    18    19   ar
    33    18    22   ar
    34    18    23    1
    35     9    10    1
    36     9    11    1
    37    10    12    1
    38    11     5    1
    39    33    34    1
    40    33    35    1
    41    34    36    1
    42    35    37    1
    43    36    42    1
    44    20    21   ar
    45    21    22   ar
@<TRIPOS>MOLECULE
*****
 43 45 0 0 0
SMALL
GASTEIGER

@<TRIPOS>ATOM
      1 P          21.6775   73.3478   -5.2287 P.3     1  UNL1        0.2189
      2 O          20.2888   73.5573   -4.4255 O.co2   1  UNL1       -0.4371
      3 O          22.3446   74.6132   -5.6817 O.2     1  UNL1       -0.5170
      4 O          21.2950   72.2975   -6.3985 O.3     1  UNL1       -0.3112
      5 C          21.1335   72.7855   -7.7190 C.3     1  UNL1        0.1811
      6 O          19.6372   70.9105   -7.5801 O.3     1  UNL1       -0.3308
      7 O          18.8321   71.5839  -10.3889 O.3     1  UNL1       -0.3794
      8 O          16.7881   72.6300   -8.9176 O.3     1  UNL1       -0.3779
      9 C          19.1803   72.4575   -9.3161 C.3     1  UNL1        0.1713
     10 C          18.0560   72.5209   -8.3034 C.3     1  UNL1        0.1895
     11 C          20.2937   71.7952   -8.5142 C.3     1  UNL1        0.1764
     12 C          18.2322   71.2108   -7.5547 C.3     1  UNL1        0.2383
     13 H          18.1228   71.9857  -10.9156 H       1  UNL1        0.2105
     14 H          16.7251   73.4799   -9.3808 H       1  UNL1        0.2106
     15 O          17.6214   73.6270   -6.2256 O.2     1  UNL1       -0.2464
     16 O          16.5800   71.4249   -2.3131 O.2     1  UNL1       -0.2670
     17 N          17.7987   71.2980   -6.1887 N.ar    1  UNL1       -0.2551
     18 N          17.1032   72.5286   -4.2786 N.ar    1  UNL1       -0.2743
     19 C          17.5186   72.5605   -5.6160 C.ar    1  UNL1        0.3323
     20 C          17.6549   70.1402   -5.4320 C.ar    1  UNL1        0.0869
     21 C          17.2590   70.1269   -4.1575 C.ar    1  UNL1        0.0795
     22 C          16.9463   71.4039   -3.4841 C.ar    1  UNL1        0.2626
     23 H          16.9028   73.3964   -3.8585 H       1  UNL1        0.1734
     24 O          22.5555   72.4521   -4.2090 O.3     1  UNL1       -0.2703
     25 P          22.1429   71.2067   -3.2648 P.3     1  UNL1        0.2208
     26 O          23.5400   70.4167   -3.0611 O.co2   1  UNL1       -0.4371
     27 O          21.0283   70.3627   -3.8118 O.2     1  UNL1       -0.5170
     28 O          21.8356   71.8694   -1.8256 O.3     1  UNL1       -0.2858
     29 O          23.4605   73.0226   -0.5423 O.3     1  UNL1       -0.3258
     30 O          20.9787   71.7670    2.5098 O.3     1  UNL1       -0.3794
     31 O          21.0130   74.5391    1.7597 O.3     1  UNL1       -0.3794
     32 O          21.4963   70.0217    0.2591 O.3     1  UNL1       -0.3775
     33 C          21.2939   72.2320    1.1945 C.3     1  UNL1        0.1715
     34 C          21.9826   73.5925    1.3190 C.3     1  UNL1        0.1694
     35 C          22.2173   71.2220    0.5159 C.3     1  UNL1        0.1967
     36 C          22.5877   74.0318   -0.0211 C.3     1  UNL1        0.1761
     37 C          22.8035   71.7768   -0.7835 C.3     1  UNL1        0.2704
     38 H          20.3922   72.4036    2.9459 H       1  UNL1        0.2105
     39 H          20.6383   74.2496    2.6065 H       1  UNL1        0.2105
     40 H          21.1305   69.6804    1.0895 H       1  UNL1        0.2106
     41 O          23.9277   75.3727    1.4334 O.3     1  UNL1       -0.3794
     42 C          23.4140   75.3088    0.1157 C.3     1  UNL1        0.1693
     43 H          24.4561   76.1803    1.5350 H       1  UNL1        0.2105
@<TRIPOS>UNITY_ATOM_ATTR
2 1
charge -1
26 1
charge -1
@<TRIPOS>BOND
     1    25    28    1
     2    25    24    1
     3    25    26    1
     4    25    27    2
     5     1     4    1
     6     1    24    1
     7     1     2    1
     8     1     3    2
     9     6    11    1
    10     6    12    1
    11    29    36    1
    12    29    37    1
    13     7     9    1
    14     7    13    1
    15     8    10    1
    16     8    14    1
    17    28    37    1
    18     4     5    1
    19    30    33    1
    20    30    38    1
    21    31    34    1
    22    31    39    1
    23    32    35    1
    24    32    40    1
    25    41    42    1
    26    41    43    1
    27    15    19    2
    28    16    22    2
    29    17    12    1
    30    17    19   ar
    31    17    20   ar
    32    18    19   ar
    33    18    22   ar
    34    18    23    1
    35     9    10    1
    36     9    11    1
    37    10    12    1
    38    11     5    1
    39    33    34    1
    40    33    35    1
    41    34    36    1
    42    35    37    1
    43    36    42    1
    44    20    21   ar
    45    21    22   ar
@<TRIPOS>MOLECULE
*****
 43 45 0 0 0
SMALL
GASTEIGER

@<TRIPOS>ATOM
      1 P          18.5621   70.4393   -3.9615 P.3     1  UNL1        0.2189
      2 O          20.1688   70.2509   -3.9795 O.co2   1  UNL1       -0.4371
      3 O          17.8328   69.5679   -2.9816 O.2     1  UNL1       -0.5170
      4 O          18.1331   70.2648   -5.5118 O.3     1  UNL1       -0.3112
      5 C          18.9557   70.8432   -6.5101 C.3     1  UNL1        0.1811
      6 O          16.8952   70.9419   -7.7422 O.3     1  UNL1       -0.3308
      7 O          18.5925   70.9844  -10.2137 O.3     1  UNL1       -0.3794
      8 O          17.9092   73.6077   -9.9167 O.3     1  UNL1       -0.3779
      9 C          18.8361   71.5825   -8.9416 C.3     1  UNL1        0.1713
     10 C          17.9571   72.8019   -8.7569 C.3     1  UNL1        0.1895
     11 C          18.3020   70.6402   -7.8701 C.3     1  UNL1        0.1764
     12 C          16.6138   72.1747   -8.4249 C.3     1  UNL1        0.2383
     13 H          18.9254   71.5679  -10.9142 H       1  UNL1        0.2105
     14 H          18.7871   73.9838  -10.0858 H       1  UNL1        0.2106
     15 O          14.8531   74.1813   -9.3476 O.2     1  UNL1       -0.2464
     16 O          13.6042   75.3144   -5.0584 O.2     1  UNL1       -0.2670
     17 N          15.8158   73.0088   -7.5712 N.ar    1  UNL1       -0.2551
     18 N          14.2325   74.7438   -7.2112 N.ar    1  UNL1       -0.2743
     19 C          14.9646   73.9874   -8.1353 C.ar    1  UNL1        0.3323
     20 C          15.8817   72.8521   -6.1910 C.ar    1  UNL1        0.0869
     21 C          15.1780   73.5823   -5.3233 C.ar    1  UNL1        0.0795
     22 C          14.2646   74.6265   -5.8306 C.ar    1  UNL1        0.2626
     23 H          13.6331   75.4319   -7.5812 H       1  UNL1        0.1734
     24 O          18.3850   72.0265   -3.7119 O.3     1  UNL1       -0.2703
     25 P          19.3420   73.0979   -2.9707 P.3     1  UNL1        0.2208
     26 O          18.4149   74.4203   -2.8758 O.co2   1  UNL1       -0.4371
     27 O          20.6634   73.3154   -3.6493 O.2     1  UNL1       -0.5170
     28 O          19.4502   72.5660   -1.4507 O.3     1  UNL1       -0.2858
     29 O          21.1275   71.8898    0.0810 O.3     1  UNL1       -0.3258
     30 O          23.5325   73.5144   -2.8563 O.3     1  UNL1       -0.3794
     31 O          23.4384   70.6642   -2.5164 O.3     1  UNL1       -0.3794
     32 O          21.0133   74.7758   -2.1914 O.3     1  UNL1       -0.3775
     33 C          22.3983   72.8110   -2.3423 C.3     1  UNL1        0.1715
     34 C          22.9008   71.5874   -1.5735 C.3     1  UNL1        0.1694
     35 C          21.6111   73.7396   -1.4197 C.3     1  UNL1        0.1967
     36 C          21.7677   70.9332   -0.7715 C.3     1  UNL1        0.1761
     37 C          20.5414   72.9802   -0.6328 C.3     1  UNL1        0.2704
     38 H          24.0364   72.9304   -3.4433 H       1  UNL1        0.2105
     39 H          24.1525   71.0898   -3.0164 H       1  UNL1        0.2105
     40 H          21.7008   75.2492   -2.6845 H       1  UNL1        0.2106
     41 O          22.2920   70.2701    1.4632 O.3     1  UNL1       -0.3794
     42 C          22.2778   69.8074    0.1253 C.3     1  UNL1        0.1693
     43 H          22.6143   69.5638    2.0455 H       1  UNL1        0.2105
@<TRIPOS>UNITY_ATOM_ATTR
2 1
charge -1
26 1
charge -1
@<TRIPOS>BOND
     1    25    28    1
     2    25    24    1
     3    25    26    1
     4    25    27    2
     5     1     4    1
     6     1    24    1
     7     1     2    1
     8     1     3    2
     9     6    11    1
    10     6    12    1
    11    29    36    1
    12    29    37    1
    13     7     9    1
    14     7    13    1
    15     8    10    1
    16     8    14    1
    17    28    37    1
    18     4     5    1
    19    30    33    1
    20    30    38    1
    21    31    34    1
    22    31    39    1
    23    32    35    1
    24    32    40    1
    25    41    42    1
    26    41    43    1
    27    15    19    2
    28    16    22    2
    29    17    12    1
    30    17    19   ar
    31    17    20   ar
    32    18    19   ar
    33    18    22   ar
    34    18    23    1
    35     9    10    1
    36     9    11    1
    37    10    12    1
    38    11     5    1
    39    33    34    1
    40    33    35    1
    41    34    36    1
    42    35    37    1
    43    36    42    1
    44    20    21   ar
    45    21    22   ar
@<TRIPOS>MOLECULE
*****
 43 45 0 0 0
SMALL
GASTEIGER

@<TRIPOS>ATOM
      1 P          18.5944   74.2126   -3.2071 P.3     1  UNL1        0.2189
      2 O          18.9147   75.6220   -3.9342 O.co2   1  UNL1       -0.4371
      3 O          18.0536   74.3276   -1.8122 O.2     1  UNL1       -0.5170
      4 O          19.9701   73.3749   -3.3606 O.3     1  UNL1       -0.3112
      5 C          21.1067   73.8019   -2.6301 C.3     1  UNL1        0.1811
      6 O          22.9539   72.7503   -1.5094 O.3     1  UNL1       -0.3308
      7 O          22.6436   70.5205   -3.4901 O.3     1  UNL1       -0.3794
      8 O          21.4264   69.5144   -1.2669 O.3     1  UNL1       -0.3779
      9 C          21.6403   71.3262   -2.8740 C.3     1  UNL1        0.1713
     10 C          21.4529   70.9180   -1.4277 C.3     1  UNL1        0.1895
     11 C          22.1923   72.7396   -2.7367 C.3     1  UNL1        0.1764
     12 C          22.6573   71.5603   -0.7605 C.3     1  UNL1        0.2383
     13 H          22.3139   69.6131   -3.5887 H       1  UNL1        0.2105
     14 H          20.6422   69.1529   -1.7085 H       1  UNL1        0.2106
     15 O          23.0611   69.8447    1.4466 O.2     1  UNL1       -0.2464
     16 O          21.6322   73.0507    4.4335 O.2     1  UNL1       -0.2670
     17 N          22.3993   71.9210    0.6051 N.ar    1  UNL1       -0.2551
     18 N          22.3495   71.4425    2.9321 N.ar    1  UNL1       -0.2743
     19 C          22.6346   70.9852    1.6392 C.ar    1  UNL1        0.3323
     20 C          21.9188   73.1904    0.9076 C.ar    1  UNL1        0.0869
     21 C          21.6508   73.6106    2.1457 C.ar    1  UNL1        0.0795
     22 C          21.8693   72.6942    3.2835 C.ar    1  UNL1        0.2626
     23 H          22.5054   70.8076    3.6685 H       1  UNL1        0.1734
     24 O          17.6043   73.4803   -4.2542 O.3     1  UNL1       -0.2703
     25 P          17.0874   71.9508   -4.3345 P.3     1  UNL1        0.2208
     26 O          15.4813   72.1074   -4.4496 O.co2   1  UNL1       -0.4371
     27 O          17.5453   71.0859   -3.1959 O.2     1  UNL1       -0.5170
     28 O          17.5525   71.4384   -5.7926 O.3     1  UNL1       -0.2858
     29 O          19.1731   72.8714   -6.7605 O.3     1  UNL1       -0.3258
     30 O          18.3415   70.5053  -10.0408 O.3     1  UNL1       -0.3794
     31 O          20.8458   70.1977   -8.6689 O.3     1  UNL1       -0.3794
     32 O          16.2074   71.2943   -8.2513 O.3     1  UNL1       -0.3775
     33 C          18.5277   70.7870   -8.6511 C.3     1  UNL1        0.1715
     34 C          19.9584   71.2911   -8.4515 C.3     1  UNL1        0.1694
     35 C          17.5183   71.8482   -8.2172 C.3     1  UNL1        0.1967
     36 C          20.1521   71.8642   -7.0411 C.3     1  UNL1        0.1761
     37 C          17.8302   72.3866   -6.8198 C.3     1  UNL1        0.2704
     38 H          18.9791   69.8318  -10.3225 H       1  UNL1        0.2105
     39 H          20.7130   69.8448   -9.5628 H       1  UNL1        0.2105
     40 H          16.0219   70.9572   -9.1411 H       1  UNL1        0.2106
     41 O          22.1494   72.5804   -8.1395 O.3     1  UNL1       -0.3794
     42 C          21.5231   72.5151   -6.8715 C.3     1  UNL1        0.1693
     43 H          23.0230   72.9929   -8.0471 H       1  UNL1        0.2105
@<TRIPOS>UNITY_ATOM_ATTR
2 1
charge -1
26 1
charge -1
@<TRIPOS>BOND
     1    25    28    1
     2    25    24    1
     3    25    26    1
     4    25    27    2
     5     1     4    1
     6     1    24    1
     7     1     2    1
     8     1     3    2
     9     6    11    1
    10     6    12    1
    11    29    36    1
    12    29    37    1
    13     7     9    1
    14     7    13    1
    15     8    10    1
    16     8    14    1
    17    28    37    1
    18     4     5    1
    19    30    33    1
    20    30    38    1
    21    31    34    1
    22    31    39    1
    23    32    35    1
    24    32    40    1
    25    41    42    1
    26    41    43    1
    27    15    19    2
    28    16    22    2
    29    17    12    1
    30    17    19   ar
    31    17    20   ar
    32    18    19   ar
    33    18    22   ar
    34    18    23    1
    35     9    10    1
    36     9    11    1
    37    10    12    1
    38    11     5    1
    39    33    34    1
    40    33    35    1
    41    34    36    1
    42    35    37    1
    43    36    42    1
    44    20    21   ar
    45    21    22   ar
@<TRIPOS>MOLECULE
*****
 43 45 0 0 0
SMALL
GASTEIGER

@<TRIPOS>ATOM
      1 P          23.0373   72.4833   -3.5603 P.3     1  UNL1        0.2189
      2 O          23.2883   70.9057   -3.3039 O.co2   1  UNL1       -0.4371
      3 O          24.2485   73.2554   -3.9940 O.2     1  UNL1       -0.5170
      4 O          22.3317   72.9911   -2.1957 O.3     1  UNL1       -0.3112
      5 C          23.1547   73.3087   -1.0868 C.3     1  UNL1        0.1811
      6 O          22.5895   75.1987    0.2852 O.3     1  UNL1       -0.3308
      7 O          24.6732   76.7048   -1.2577 O.3     1  UNL1       -0.3794
      8 O          25.9733   76.0986    1.0615 O.3     1  UNL1       -0.3779
      9 C          24.6681   75.3394   -0.8441 C.3     1  UNL1        0.1713
     10 C          24.9317   75.2398    0.6439 C.3     1  UNL1        0.1895
     11 C          23.2386   74.8227   -0.9491 C.3     1  UNL1        0.1764
     12 C          23.5844   75.6272    1.2293 C.3     1  UNL1        0.2383
     13 H          25.5759   77.0567   -1.1995 H       1  UNL1        0.2105
     14 H          26.8093   75.8108    0.6628 H       1  UNL1        0.2106
     15 O          24.3776   76.6764    3.7288 O.2     1  UNL1       -0.2464
     16 O          22.5670   73.1038    6.0091 O.2     1  UNL1       -0.2670
     17 N          23.3329   74.9923    2.4922 N.ar    1  UNL1       -0.2551
     18 N          23.4753   74.8968    4.8622 N.ar    1  UNL1       -0.2743
     19 C          23.7741   75.6022    3.6896 C.ar    1  UNL1        0.3323
     20 C          22.6554   73.7786    2.5349 C.ar    1  UNL1        0.0869
     21 C          22.3794   73.1180    3.6613 C.ar    1  UNL1        0.0795
     22 C          22.8057   73.6870    4.9561 C.ar    1  UNL1        0.2626
     23 H          23.7733   75.3024    5.7086 H       1  UNL1        0.1734
     24 O          21.8193   72.4895   -4.6231 O.3     1  UNL1       -0.2703
     25 P          21.6149   73.3137   -5.9985 P.3     1  UNL1        0.2208
     26 O          22.8075   72.7620   -6.9425 O.co2   1  UNL1       -0.4371
     27 O          21.6013   74.8050   -5.8261 O.2     1  UNL1       -0.5170
     28 O          20.2679   72.7028   -6.6445 O.3     1  UNL1       -0.2858
     29 O          19.0804   70.7597   -5.9882 O.3     1  UNL1       -0.3258
     30 O          18.3672   70.6272  -10.0532 O.3     1  UNL1       -0.3794
     31 O          16.2414   71.3525   -8.2635 O.3     1  UNL1       -0.3794
     32 O          20.9564   71.4669   -9.0681 O.3     1  UNL1       -0.3775
     33 C          18.5734   71.2582   -8.7864 C.3     1  UNL1        0.1715
     34 C          17.4754   70.7863   -7.8312 C.3     1  UNL1        0.1694
     35 C          19.9519   70.8708   -8.2544 C.3     1  UNL1        0.1967
     36 C          17.7793   71.2068   -6.3869 C.3     1  UNL1        0.1761
     37 C          20.1329   71.2920   -6.7950 C.3     1  UNL1        0.2704
     38 H          17.4938   70.8695  -10.3968 H       1  UNL1        0.2105
     39 H          16.0615   71.0797   -9.1770 H       1  UNL1        0.2105
     40 H          20.8311   71.1923   -9.9894 H       1  UNL1        0.2106
     41 O          15.8896   71.6350   -4.9888 O.3     1  UNL1       -0.3794
     42 C          16.7805   70.6128   -5.3961 C.3     1  UNL1        0.1693
     43 H          15.2479   71.2714   -4.3582 H       1  UNL1        0.2105
@<TRIPOS>UNITY_ATOM_ATTR
2 1
charge -1
26 1
charge -1
@<TRIPOS>BOND
     1    25    28    1
     2    25    24    1
     3    25    26    1
     4    25    27    2
     5     1     4    1
     6     1    24    1
     7     1     2    1
     8     1     3    2
     9     6    11    1
    10     6    12    1
    11    29    36    1
    12    29    37    1
    13     7     9    1
    14     7    13    1
    15     8    10    1
    16     8    14    1
    17    28    37    1
    18     4     5    1
    19    30    33    1
    20    30    38    1
    21    31    34    1
    22    31    39    1
    23    32    35    1
    24    32    40    1
    25    41    42    1
    26    41    43    1
    27    15    19    2
    28    16    22    2
    29    17    12    1
    30    17    19   ar
    31    17    20   ar
    32    18    19   ar
    33    18    22   ar
    34    18    23    1
    35     9    10    1
    36     9    11    1
    37    10    12    1
    38    11     5    1
    39    33    34    1
    40    33    35    1
    41    34    36    1
    42    35    37    1
    43    36    42    1
    44    20    21   ar
    45    21    22   ar
@<TRIPOS>MOLECULE
*****
 43 45 0 0 0
SMALL
GASTEIGER

@<TRIPOS>ATOM
      1 P          19.8055   70.6183   -3.0682 P.3     1  UNL1        0.2189
      2 O          20.7613   71.4842   -4.0450 O.co2   1  UNL1       -0.4371
      3 O          19.8116   69.1397   -3.3232 O.2     1  UNL1       -0.5170
      4 O          18.3654   71.3462   -3.1888 O.3     1  UNL1       -0.3112
      5 C          18.0281   71.9793   -4.4108 C.3     1  UNL1        0.1811
      6 O          16.0500   72.1713   -5.7614 O.3     1  UNL1       -0.3308
      7 O          16.3278   69.2268   -6.2551 O.3     1  UNL1       -0.3794
      8 O          17.3382   70.3113   -8.5442 O.3     1  UNL1       -0.3779
      9 C          17.3444   70.2179   -6.1146 C.3     1  UNL1        0.1713
     10 C          17.4163   71.0775   -7.3594 C.3     1  UNL1        0.1895
     11 C          16.8817   71.2188   -5.0632 C.3     1  UNL1        0.1764
     12 C          16.2200   71.9962   -7.1775 C.3     1  UNL1        0.2383
     13 H          16.6009   68.5760   -6.9214 H       1  UNL1        0.2105
     14 H          18.1215   69.7435   -8.6144 H       1  UNL1        0.2106
     15 O          18.7491   73.1425   -7.6948 O.2     1  UNL1       -0.2464
     16 O          16.8624   76.9337   -9.5136 O.2     1  UNL1       -0.2670
     17 N          16.4190   73.2814   -7.7857 N.ar    1  UNL1       -0.2551
     18 N          17.8076   75.0292   -8.6002 N.ar    1  UNL1       -0.2743
     19 C          17.7304   73.7657   -8.0005 C.ar    1  UNL1        0.3323
     20 C          15.3210   74.0472   -8.1625 C.ar    1  UNL1        0.0869
     21 C          15.4117   75.2508   -8.7321 C.ar    1  UNL1        0.0795
     22 C          16.7458   75.8293   -8.9915 C.ar    1  UNL1        0.2626
     23 H          18.7112   75.3871   -8.7593 H       1  UNL1        0.1734
     24 O          20.3077   71.0488   -1.5933 O.3     1  UNL1       -0.2703
     25 P          21.6533   70.6753   -0.7791 P.3     1  UNL1        0.2208
     26 O          22.6675   70.1887   -1.9418 O.co2   1  UNL1       -0.4371
     27 O          21.4486   69.6758    0.3223 O.2     1  UNL1       -0.5170
     28 O          22.2435   72.0962   -0.2917 O.3     1  UNL1       -0.2858
     29 O          21.1676   72.7669    1.7106 O.3     1  UNL1       -0.3258
     30 O          23.3572   76.1866    0.9609 O.3     1  UNL1       -0.3794
     31 O          24.1378   74.4452    3.1071 O.3     1  UNL1       -0.3794
     32 O          22.1452   74.7381   -1.2329 O.3     1  UNL1       -0.3775
     33 C          23.1035   74.7792    0.9765 C.3     1  UNL1        0.1715
     34 C          22.8889   74.3466    2.4283 C.3     1  UNL1        0.1694
     35 C          21.8599   74.4868    0.1390 C.3     1  UNL1        0.1967
     36 C          22.3507   72.9115    2.5050 C.3     1  UNL1        0.1761
     37 C          21.3791   73.0466    0.3254 C.3     1  UNL1        0.2704
     38 H          24.1459   76.3789    1.4905 H       1  UNL1        0.2105
     39 H          24.4668   75.3561    3.0508 H       1  UNL1        0.2105
     40 H          22.4482   75.6530   -1.3377 H       1  UNL1        0.2106
     41 O          20.5809   72.6560    4.0896 O.3     1  UNL1       -0.3794
     42 C          21.9808   72.5150    3.9325 C.3     1  UNL1        0.1693
     43 H          20.3308   72.4067    4.9936 H       1  UNL1        0.2105
@<TRIPOS>UNITY_ATOM_ATTR
2 1
charge -1
26 1
charge -1
@<TRIPOS>BOND
     1    25    28    1
     2    25    24    1
     3    25    26    1
     4    25    27    2
     5     1     4    1
     6     1    24    1
     7     1     2    1
     8     1     3    2
     9     6    11    1
    10     6    12    1
    11    29    36    1
    12    29    37    1
    13     7     9    1
    14     7    13    1
    15     8    10    1
    16     8    14    1
    17    28    37    1
    18     4     5    1
    19    30    33    1
    20    30    38    1
    21    31    34    1
    22    31    39    1
    23    32    35    1
    24    32    40    1
    25    41    42    1
    26    41    43    1
    27    15    19    2
    28    16    22    2
    29    17    12    1
    30    17    19   ar
    31    17    20   ar
    32    18    19   ar
    33    18    22   ar
    34    18    23    1
    35     9    10    1
    36     9    11    1
    37    10    12    1
    38    11     5    1
    39    33    34    1
    40    33    35    1
    41    34    36    1
    42    35    37    1
    43    36    42    1
    44    20    21   ar
    45    21    22   ar
