@<TRIPOS>MOLECULE
*****
 43 45 0 0 0
SMALL
GASTEIGER

@<TRIPOS>ATOM
      1 P          22.8543   71.5841   -2.4224 P.3     1  UNL1        0.2189
      2 O          23.4323   73.0353   -2.8433 O.co2   1  UNL1       -0.4371
      3 O          23.4085   70.4299   -3.2048 O.2     1  UNL1       -0.5170
      4 O          21.2485   71.7714   -2.4887 O.3     1  UNL1       -0.3112
      5 C          20.5512   71.2395   -3.6016 C.3     1  UNL1        0.1811
      6 O          18.6270   72.0943   -4.7595 O.3     1  UNL1       -0.3308
      7 O          16.9954   70.8862   -2.5529 O.3     1  UNL1       -0.3794
      8 O          16.7190   69.0639   -4.5627 O.3     1  UNL1       -0.3779
      9 C          18.1902   70.3995   -3.1617 C.3     1  UNL1        0.1713
     10 C          17.8918   69.8518   -4.5418 C.3     1  UNL1        0.1895
     11 C          19.0763   71.5975   -3.4798 C.3     1  UNL1        0.1764
     12 C          17.7568   71.1229   -5.3628 C.3     1  UNL1        0.2383
     13 H          16.4135   70.1390   -2.3403 H       1  UNL1        0.2105
     14 H          16.8549   68.2672   -4.0264 H       1  UNL1        0.2106
     15 O          15.9876   70.3893   -7.4388 O.2     1  UNL1       -0.2464
     16 O          19.3628   70.4272  -10.5769 O.2     1  UNL1       -0.2670
     17 N          18.1463   70.9346   -6.7319 N.ar    1  UNL1       -0.2551
     18 N          17.6696   70.4089   -8.9997 N.ar    1  UNL1       -0.2743
     19 C          17.1801   70.5652   -7.6966 C.ar    1  UNL1        0.3323
     20 C          19.4732   71.1162   -7.1061 C.ar    1  UNL1        0.0869
     21 C          19.9241   70.9620   -8.3528 C.ar    1  UNL1        0.0795
     22 C          18.9792   70.5769   -9.4209 C.ar    1  UNL1        0.2626
     23 H          17.0146   70.1515   -9.6885 H       1  UNL1        0.1734
     24 O          23.1476   71.5228   -0.8339 O.3     1  UNL1       -0.2703
     25 P          22.3633   70.7697    0.3621 P.3     1  UNL1        0.2208
     26 O          23.3145   69.5026    0.6896 O.co2   1  UNL1       -0.4371
     27 O          20.9429   70.4095    0.0355 O.2     1  UNL1       -0.5170
     28 O          22.5298   71.7448    1.6374 O.3     1  UNL1       -0.2858
     29 O          21.0964   73.1480    2.8996 O.3     1  UNL1       -0.3258
     30 O          24.2924   75.7202    2.4307 O.3     1  UNL1       -0.3794
     31 O          23.7927   74.5328    4.9975 O.3     1  UNL1       -0.3794
     32 O          23.5062   73.9823    0.2534 O.3     1  UNL1       -0.3775
     33 C          23.6560   74.4522    2.6109 C.3     1  UNL1        0.1715
     34 C          22.8628   74.4952    3.9185 C.3     1  UNL1        0.1694
     35 C          22.7275   74.1870    1.4273 C.3     1  UNL1        0.1967
     36 C          21.9424   73.2742    4.0486 C.3     1  UNL1        0.1761
     37 C          21.8212   72.9807    1.6796 C.3     1  UNL1        0.2704
     38 H          24.8838   75.8944    3.1787 H       1  UNL1        0.2105
     39 H          24.3682   75.3081    4.9032 H       1  UNL1        0.2105
     40 H          24.0752   74.7529    0.1045 H       1  UNL1        0.2106
     41 O          19.6834   73.3520    4.8232 O.3     1  UNL1       -0.3794
     42 C          21.0276   73.3748    5.2672 C.3     1  UNL1        0.1693
     43 H          19.0898   73.4150    5.5883 H       1  UNL1        0.2105
@<TRIPOS>UNITY_ATOM_ATTR
2 1
charge -1
26 1
charge -1
@<TRIPOS>BOND
     1    25    28    1
     2    25    24    1
     3    25    26    1
     4    25    27    2
     5     1     4    1
     6     1    24    1
     7     1     2    1
     8     1     3    2
     9     6    11    1
    10     6    12    1
    11    29    36    1
    12    29    37    1
    13     7     9    1
    14     7    13    1
    15     8    10    1
    16     8    14    1
    17    28    37    1
    18     4     5    1
    19    30    33    1
    20    30    38    1
    21    31    34    1
    22    31    39    1
    23    32    35    1
    24    32    40    1
    25    41    42    1
    26    41    43    1
    27    15    19    2
    28    16    22    2
    29    17    12    1
    30    17    19   ar
    31    17    20   ar
    32    18    19   ar
    33    18    22   ar
    34    18    23    1
    35     9    10    1
    36     9    11    1
    37    10    12    1
    38    11     5    1
    39    33    34    1
    40    33    35    1
    41    34    36    1
    42    35    37    1
    43    36    42    1
    44    20    21   ar
    45    21    22   ar
@<TRIPOS>MOLECULE
*****
 43 45 0 0 0
SMALL
GASTEIGER

@<TRIPOS>ATOM
      1 P          22.9610   71.6705   -2.7335 P.3     1  UNL1        0.2189
      2 O          23.7865   72.9795   -3.2052 O.co2   1  UNL1       -0.4371
      3 O          23.4860   70.3667   -3.2589 O.2     1  UNL1       -0.5170
      4 O          21.4286   72.0176   -3.1196 O.3     1  UNL1       -0.3112
      5 C          20.5801   70.9615   -3.5347 C.3     1  UNL1        0.1811
      6 O          18.7237   71.9753   -4.6748 O.3     1  UNL1       -0.3308
      7 O          17.0017   70.8095   -2.5146 O.3     1  UNL1       -0.3794
      8 O          16.6208   69.0714   -4.5811 O.3     1  UNL1       -0.3779
      9 C          18.1664   70.2646   -3.1324 C.3     1  UNL1        0.1713
     10 C          17.8423   69.7800   -4.5302 C.3     1  UNL1        0.1895
     11 C          19.1309   71.4112   -3.4090 C.3     1  UNL1        0.1764
     12 C          17.7961   71.0818   -5.3122 C.3     1  UNL1        0.2383
     13 H          16.3710   70.0959   -2.3280 H       1  UNL1        0.2105
     14 H          16.7008   68.2516   -4.0691 H       1  UNL1        0.2106
     15 O          16.0174   70.3943   -7.3958 O.2     1  UNL1       -0.2464
     16 O          19.3880   70.4493  -10.5386 O.2     1  UNL1       -0.2670
     17 N          18.1818   70.9103   -6.6845 N.ar    1  UNL1       -0.2551
     18 N          17.6971   70.4224   -8.9590 N.ar    1  UNL1       -0.2743
     19 C          17.2110   70.5637   -7.6529 C.ar    1  UNL1        0.3323
     20 C          19.5098   71.0859   -7.0582 C.ar    1  UNL1        0.0869
     21 C          19.9573   70.9462   -8.3078 C.ar    1  UNL1        0.0795
     22 C          19.0074   70.5852   -9.3799 C.ar    1  UNL1        0.2626
     23 H          17.0388   70.1809   -9.6505 H       1  UNL1        0.1734
     24 O          22.9675   71.7979   -1.1221 O.3     1  UNL1       -0.2703
     25 P          22.4488   70.7839    0.0250 P.3     1  UNL1        0.2208
     26 O          23.6523   69.7089    0.1419 O.co2   1  UNL1       -0.4371
     27 O          21.1028   70.1790   -0.2511 O.2     1  UNL1       -0.5170
     28 O          22.5306   71.6376    1.3923 O.3     1  UNL1       -0.2858
     29 O          21.4773   72.4661    3.3470 O.3     1  UNL1       -0.3258
     30 O          21.1736   75.8224    0.9607 O.3     1  UNL1       -0.3794
     31 O          23.0371   75.8001    3.1459 O.3     1  UNL1       -0.3794
     32 O          20.8158   73.1923   -0.1943 O.3     1  UNL1       -0.3775
     33 C          21.7906   74.6364    1.4687 C.3     1  UNL1        0.1715
     34 C          22.0181   74.8197    2.9705 C.3     1  UNL1        0.1694
     35 C          20.8726   73.4442    1.2056 C.3     1  UNL1        0.1967
     36 C          22.4282   73.4982    3.6341 C.3     1  UNL1        0.1761
     37 C          21.3431   72.1937    1.9507 C.3     1  UNL1        0.2704
     38 H          21.7516   76.5831    1.1242 H       1  UNL1        0.2105
     39 H          22.7659   76.6295    2.7219 H       1  UNL1        0.2105
     40 H          20.5164   73.9913   -0.6546 H       1  UNL1        0.2106
     41 O          21.4032   72.9380    5.7185 O.3     1  UNL1       -0.3794
     42 C          22.5070   73.6217    5.1542 C.3     1  UNL1        0.1693
     43 H          21.4404   73.0079    6.6856 H       1  UNL1        0.2105
@<TRIPOS>UNITY_ATOM_ATTR
2 1
charge -1
26 1
charge -1
@<TRIPOS>BOND
     1    25    28    1
     2    25    24    1
     3    25    26    1
     4    25    27    2
     5     1     4    1
     6     1    24    1
     7     1     2    1
     8     1     3    2
     9     6    11    1
    10     6    12    1
    11    29    36    1
    12    29    37    1
    13     7     9    1
    14     7    13    1
    15     8    10    1
    16     8    14    1
    17    28    37    1
    18     4     5    1
    19    30    33    1
    20    30    38    1
    21    31    34    1
    22    31    39    1
    23    32    35    1
    24    32    40    1
    25    41    42    1
    26    41    43    1
    27    15    19    2
    28    16    22    2
    29    17    12    1
    30    17    19   ar
    31    17    20   ar
    32    18    19   ar
    33    18    22   ar
    34    18    23    1
    35     9    10    1
    36     9    11    1
    37    10    12    1
    38    11     5    1
    39    33    34    1
    40    33    35    1
    41    34    36    1
    42    35    37    1
    43    36    42    1
    44    20    21   ar
    45    21    22   ar
@<TRIPOS>MOLECULE
*****
 43 45 0 0 0
SMALL
GASTEIGER

@<TRIPOS>ATOM
      1 P          22.6884   70.9480   -2.0024 P.3     1  UNL1        0.2189
      2 O          23.6764   70.5346   -3.2149 O.co2   1  UNL1       -0.4371
      3 O          23.2585   70.7582   -0.6275 O.2     1  UNL1       -0.5170
      4 O          21.3260   70.1338   -2.3167 O.3     1  UNL1       -0.3112
      5 C          20.7155   70.3011   -3.5845 C.3     1  UNL1        0.1811
      6 O          19.0256   71.6599   -4.6197 O.3     1  UNL1       -0.3308
      7 O          17.1755   70.6562   -2.4841 O.3     1  UNL1       -0.3794
      8 O          16.4897   69.1237   -4.6330 O.3     1  UNL1       -0.3779
      9 C          18.2287   69.9714   -3.1603 C.3     1  UNL1        0.1713
     10 C          17.8090   69.6265   -4.5740 C.3     1  UNL1        0.1895
     11 C          19.3585   70.9657   -3.3975 C.3     1  UNL1        0.1764
     12 C          17.9576   70.9627   -5.2816 C.3     1  UNL1        0.2383
     13 H          16.4425   70.0413   -2.3213 H       1  UNL1        0.2105
     14 H          16.4467   68.2730   -4.1692 H       1  UNL1        0.2106
     15 O          16.0683   70.5198   -7.3339 O.2     1  UNL1       -0.2464
     16 O          19.3433   70.4022  -10.5745 O.2     1  UNL1       -0.2670
     17 N          18.2889   70.8130   -6.6706 N.ar    1  UNL1       -0.2551
     18 N          17.7005   70.4618   -8.9459 N.ar    1  UNL1       -0.2743
     19 C          17.2649   70.5930   -7.6211 C.ar    1  UNL1        0.3323
     20 C          19.6165   70.8851   -7.0781 C.ar    1  UNL1        0.0869
     21 C          20.0155   70.7566   -8.3452 C.ar    1  UNL1        0.0795
     22 C          19.0082   70.5245   -9.4004 C.ar    1  UNL1        0.2626
     23 H          17.0046   70.3075   -9.6254 H       1  UNL1        0.1734
     24 O          22.2911   72.4733   -2.3613 O.3     1  UNL1       -0.2703
     25 P          22.9610   73.5326   -3.3821 P.3     1  UNL1        0.2208
     26 O          21.7293   73.9503   -4.3444 O.co2   1  UNL1       -0.4371
     27 O          24.1652   73.0089   -4.1097 O.2     1  UNL1       -0.5170
     28 O          23.2400   74.8446   -2.4844 O.3     1  UNL1       -0.2858
     29 O          25.6063   74.8456   -2.3520 O.3     1  UNL1       -0.3258
     30 O          24.8380   78.4357   -0.4620 O.3     1  UNL1       -0.3794
     31 O          25.9539   78.4367   -3.1083 O.3     1  UNL1       -0.3794
     32 O          23.0982   76.1662   -0.0129 O.3     1  UNL1       -0.3775
     33 C          24.6217   77.3938   -1.4176 C.3     1  UNL1        0.1715
     34 C          25.8740   77.2742   -2.2883 C.3     1  UNL1        0.1694
     35 C          24.3547   76.0848   -0.6770 C.3     1  UNL1        0.1967
     36 C          25.8260   76.0099   -3.1569 C.3     1  UNL1        0.1761
     37 C          24.3765   74.8847   -1.6253 C.3     1  UNL1        0.2704
     38 H          25.0077   79.2698   -0.9258 H       1  UNL1        0.2105
     39 H          25.9830   79.2280   -2.5477 H       1  UNL1        0.2105
     40 H          23.0972   76.9296    0.5846 H       1  UNL1        0.2106
     41 O          27.0959   74.5012   -4.5061 O.3     1  UNL1       -0.3794
     42 C          27.1325   75.7875   -3.9158 C.3     1  UNL1        0.1693
     43 H          27.9209   74.3458   -4.9927 H       1  UNL1        0.2105
@<TRIPOS>UNITY_ATOM_ATTR
2 1
charge -1
26 1
charge -1
@<TRIPOS>BOND
     1    25    28    1
     2    25    24    1
     3    25    26    1
     4    25    27    2
     5     1     4    1
     6     1    24    1
     7     1     2    1
     8     1     3    2
     9     6    11    1
    10     6    12    1
    11    29    36    1
    12    29    37    1
    13     7     9    1
    14     7    13    1
    15     8    10    1
    16     8    14    1
    17    28    37    1
    18     4     5    1
    19    30    33    1
    20    30    38    1
    21    31    34    1
    22    31    39    1
    23    32    35    1
    24    32    40    1
    25    41    42    1
    26    41    43    1
    27    15    19    2
    28    16    22    2
    29    17    12    1
    30    17    19   ar
    31    17    20   ar
    32    18    19   ar
    33    18    22   ar
    34    18    23    1
    35     9    10    1
    36     9    11    1
    37    10    12    1
    38    11     5    1
    39    33    34    1
    40    33    35    1
    41    34    36    1
    42    35    37    1
    43    36    42    1
    44    20    21   ar
    45    21    22   ar
@<TRIPOS>MOLECULE
*****
 43 45 0 0 0
SMALL
GASTEIGER

@<TRIPOS>ATOM
      1 P          22.8477   71.8197   -2.4123 P.3     1  UNL1        0.2189
      2 O          23.6473   73.2191   -2.5517 O.co2   1  UNL1       -0.4371
      3 O          23.4268   70.6781   -3.1953 O.2     1  UNL1       -0.5170
      4 O          21.3177   72.2096   -2.7660 O.3     1  UNL1       -0.3112
      5 C          20.5620   71.3207   -3.5702 C.3     1  UNL1        0.1811
      6 O          18.6341   72.1718   -4.7246 O.3     1  UNL1       -0.3308
      7 O          17.0082   70.9524   -2.5201 O.3     1  UNL1       -0.3794
      8 O          16.7368   69.1343   -4.5344 O.3     1  UNL1       -0.3779
      9 C          18.2043   70.4714   -3.1310 C.3     1  UNL1        0.1713
     10 C          17.9068   69.9263   -4.5122 C.3     1  UNL1        0.1895
     11 C          19.0860   71.6733   -3.4465 C.3     1  UNL1        0.1764
     12 C          17.7669   71.1991   -5.3299 C.3     1  UNL1        0.2383
     13 H          16.4291   70.2027   -2.3091 H       1  UNL1        0.2105
     14 H          16.8758   68.3367   -4.0003 H       1  UNL1        0.2106
     15 O          16.0164   70.3824   -7.3906 O.2     1  UNL1       -0.2464
     16 O          19.3710   70.5268  -10.5476 O.2     1  UNL1       -0.2670
     17 N          18.1561   71.0156   -6.6997 N.ar    1  UNL1       -0.2551
     18 N          17.6881   70.4551   -8.9609 N.ar    1  UNL1       -0.2743
     19 C          17.1999   70.6022   -7.6563 C.ar    1  UNL1        0.3323
     20 C          19.4731   71.2454   -7.0826 C.ar    1  UNL1        0.0869
     21 C          19.9230   71.0993   -8.3306 C.ar    1  UNL1        0.0795
     22 C          18.9880   70.6702   -9.3906 C.ar    1  UNL1        0.2626
     23 H          17.0399   70.1676   -9.6442 H       1  UNL1        0.1734
     24 O          22.8024   71.5846   -0.8137 O.3     1  UNL1       -0.2703
     25 P          21.9323   70.5603    0.0844 P.3     1  UNL1        0.2208
     26 O          23.0595   69.7016    0.8651 O.co2   1  UNL1       -0.4371
     27 O          20.9553   69.7322   -0.6990 O.2     1  UNL1       -0.5170
     28 O          21.2619   71.4851    1.2248 O.3     1  UNL1       -0.2858
     29 O          21.6392   73.8212    1.0963 O.3     1  UNL1       -0.3258
     30 O          20.4197   73.5654    5.0331 O.3     1  UNL1       -0.3794
     31 O          18.6635   74.7217    3.0769 O.3     1  UNL1       -0.3794
     32 O          22.0976   71.4944    3.9037 O.3     1  UNL1       -0.3775
     33 C          20.4304   73.2137    3.6469 C.3     1  UNL1        0.1715
     34 C          20.0413   74.4509    2.8352 C.3     1  UNL1        0.1694
     35 C          21.8302   72.7374    3.2635 C.3     1  UNL1        0.1967
     36 C          20.2877   74.2303    1.3366 C.3     1  UNL1        0.1761
     37 C          21.9837   72.5971    1.7479 C.3     1  UNL1        0.2704
     38 H          19.5336   73.8682    5.2831 H       1  UNL1        0.2105
     39 H          18.5214   74.8585    4.0268 H       1  UNL1        0.2105
     40 H          21.9974   71.5966    4.8625 H       1  UNL1        0.2106
     41 O          20.3658   76.6183    1.3408 O.3     1  UNL1       -0.3794
     42 C          20.0559   75.5032    0.5255 C.3     1  UNL1        0.1693
     43 H          20.2232   77.4357    0.8375 H       1  UNL1        0.2105
@<TRIPOS>UNITY_ATOM_ATTR
2 1
charge -1
26 1
charge -1
@<TRIPOS>BOND
     1    25    28    1
     2    25    24    1
     3    25    26    1
     4    25    27    2
     5     1     4    1
     6     1    24    1
     7     1     2    1
     8     1     3    2
     9     6    11    1
    10     6    12    1
    11    29    36    1
    12    29    37    1
    13     7     9    1
    14     7    13    1
    15     8    10    1
    16     8    14    1
    17    28    37    1
    18     4     5    1
    19    30    33    1
    20    30    38    1
    21    31    34    1
    22    31    39    1
    23    32    35    1
    24    32    40    1
    25    41    42    1
    26    41    43    1
    27    15    19    2
    28    16    22    2
    29    17    12    1
    30    17    19   ar
    31    17    20   ar
    32    18    19   ar
    33    18    22   ar
    34    18    23    1
    35     9    10    1
    36     9    11    1
    37    10    12    1
    38    11     5    1
    39    33    34    1
    40    33    35    1
    41    34    36    1
    42    35    37    1
    43    36    42    1
    44    20    21   ar
    45    21    22   ar
@<TRIPOS>MOLECULE
*****
 43 45 0 0 0
SMALL
GASTEIGER

@<TRIPOS>ATOM
      1 P          21.5297   70.5902   -1.0567 P.3     1  UNL1        0.2189
      2 O          23.0664   70.8612   -1.4841 O.co2   1  UNL1       -0.4371
      3 O          21.3500   69.6592    0.1062 O.2     1  UNL1       -0.5170
      4 O          20.8169   70.1366   -2.4366 O.3     1  UNL1       -0.3112
      5 C          20.5566   71.1236   -3.4193 C.3     1  UNL1        0.1811
      6 O          18.7047   72.1119   -4.5888 O.3     1  UNL1       -0.3308
      7 O          16.9648   70.9219   -2.4563 O.3     1  UNL1       -0.3794
      8 O          16.6410   69.1792   -4.5287 O.3     1  UNL1       -0.3779
      9 C          18.1467   70.3933   -3.0556 C.3     1  UNL1        0.1713
     10 C          17.8516   69.9046   -4.4583 C.3     1  UNL1        0.1895
     11 C          19.0995   71.5532   -3.3167 C.3     1  UNL1        0.1764
     12 C          17.7999   71.2058   -5.2409 C.3     1  UNL1        0.2383
     13 H          16.3412   70.1995   -2.2799 H       1  UNL1        0.2105
     14 H          16.7243   68.3604   -4.0156 H       1  UNL1        0.2106
     15 O          16.0679   70.4756   -7.3492 O.2     1  UNL1       -0.2464
     16 O          19.4833   70.5977  -10.4415 O.2     1  UNL1       -0.2670
     17 N          18.2098   71.0400   -6.6069 N.ar    1  UNL1       -0.2551
     18 N          17.7699   70.5372   -8.8872 N.ar    1  UNL1       -0.2743
     19 C          17.2614   70.6704   -7.5889 C.ar    1  UNL1        0.3323
     20 C          19.5390   71.2437   -6.9611 C.ar    1  UNL1        0.0869
     21 C          20.0082   71.1113   -8.2036 C.ar    1  UNL1        0.0795
     22 C          19.0826   70.7276   -9.2889 C.ar    1  UNL1        0.2626
     23 H          17.1275   70.2800   -9.5879 H       1  UNL1        0.1734
     24 O          20.9498   72.0806   -0.8211 O.3     1  UNL1       -0.2703
     25 P          21.7003   73.5092   -0.7273 P.3     1  UNL1        0.2208
     26 O          20.6151   74.5395   -1.3424 O.co2   1  UNL1       -0.4371
     27 O          23.0407   73.5455   -1.4025 O.2     1  UNL1       -0.5170
     28 O          21.7365   73.8489    0.8501 O.3     1  UNL1       -0.2858
     29 O          23.6580   74.4931    2.0786 O.3     1  UNL1       -0.3258
     30 O          21.5477   72.6160    5.0909 O.3     1  UNL1       -0.3794
     31 O          21.7784   75.4787    5.0927 O.3     1  UNL1       -0.3794
     32 O          21.5147   71.5262    2.4093 O.3     1  UNL1       -0.3775
     33 C          21.7080   73.4025    3.9072 C.3     1  UNL1        0.1715
     34 C          22.5563   74.6269    4.2562 C.3     1  UNL1        0.1694
     35 C          22.3970   72.5584    2.8366 C.3     1  UNL1        0.1967
     36 C          22.9946   75.3762    2.9907 C.3     1  UNL1        0.1761
     37 C          22.8359   73.4086    1.6430 C.3     1  UNL1        0.2704
     38 H          21.1103   73.1460    5.7745 H       1  UNL1        0.2105
     39 H          21.5077   74.9934    5.8879 H       1  UNL1        0.2105
     40 H          21.2444   70.9951    3.1739 H       1  UNL1        0.2106
     41 O          23.9124   76.7785    4.6936 O.3     1  UNL1       -0.3794
     42 C          23.9705   76.5080    3.3052 C.3     1  UNL1        0.1693
     43 H          24.5287   77.4967    4.9085 H       1  UNL1        0.2105
@<TRIPOS>UNITY_ATOM_ATTR
2 1
charge -1
26 1
charge -1
@<TRIPOS>BOND
     1    25    28    1
     2    25    24    1
     3    25    26    1
     4    25    27    2
     5     1     4    1
     6     1    24    1
     7     1     2    1
     8     1     3    2
     9     6    11    1
    10     6    12    1
    11    29    36    1
    12    29    37    1
    13     7     9    1
    14     7    13    1
    15     8    10    1
    16     8    14    1
    17    28    37    1
    18     4     5    1
    19    30    33    1
    20    30    38    1
    21    31    34    1
    22    31    39    1
    23    32    35    1
    24    32    40    1
    25    41    42    1
    26    41    43    1
    27    15    19    2
    28    16    22    2
    29    17    12    1
    30    17    19   ar
    31    17    20   ar
    32    18    19   ar
    33    18    22   ar
    34    18    23    1
    35     9    10    1
    36     9    11    1
    37    10    12    1
    38    11     5    1
    39    33    34    1
    40    33    35    1
    41    34    36    1
    42    35    37    1
    43    36    42    1
    44    20    21   ar
    45    21    22   ar
@<TRIPOS>MOLECULE
*****
 43 45 0 0 0
SMALL
GASTEIGER

@<TRIPOS>ATOM
      1 P          22.9217   71.9781   -3.0885 P.3     1  UNL1        0.2189
      2 O          23.6967   70.5637   -3.2163 O.co2   1  UNL1       -0.4371
      3 O          22.7261   72.4690   -1.6842 O.2     1  UNL1       -0.5170
      4 O          21.5704   71.7599   -3.9512 O.3     1  UNL1       -0.3112
      5 C          20.7093   70.6908   -3.6000 C.3     1  UNL1        0.1811
      6 O          18.8981   71.8501   -4.6721 O.3     1  UNL1       -0.3308
      7 O          17.1511   70.7410   -2.5021 O.3     1  UNL1       -0.3794
      8 O          16.6152   69.0849   -4.6014 O.3     1  UNL1       -0.3779
      9 C          18.2649   70.1391   -3.1597 C.3     1  UNL1        0.1713
     10 C          17.8806   69.7125   -4.5611 C.3     1  UNL1        0.1895
     11 C          19.2951   71.2286   -3.4301 C.3     1  UNL1        0.1764
     12 C          17.9016   71.0344   -5.3097 C.3     1  UNL1        0.2383
     13 H          16.4799   70.0644   -2.3187 H       1  UNL1        0.2105
     14 H          16.6533   68.2486   -4.1116 H       1  UNL1        0.2106
     15 O          16.0401   70.5009   -7.3660 O.2     1  UNL1       -0.2464
     16 O          19.3377   70.4382  -10.5853 O.2     1  UNL1       -0.2670
     17 N          18.2462   70.8743   -6.6943 N.ar    1  UNL1       -0.2551
     18 N          17.6835   70.4703   -8.9673 N.ar    1  UNL1       -0.2743
     19 C          17.2356   70.6076   -7.6472 C.ar    1  UNL1        0.3323
     20 C          19.5734   70.9823   -7.0950 C.ar    1  UNL1        0.0869
     21 C          19.9843   70.8474   -8.3577 C.ar    1  UNL1        0.0795
     22 C          18.9915   70.5676   -9.4151 C.ar    1  UNL1        0.2626
     23 H          16.9972   70.2838   -9.6484 H       1  UNL1        0.1734
     24 O          23.7982   72.9589   -4.0280 O.3     1  UNL1       -0.2703
     25 P          23.9497   74.5682   -4.0330 P.3     1  UNL1        0.2208
     26 O          25.5509   74.7904   -3.9665 O.co2   1  UNL1       -0.4371
     27 O          23.1826   75.2619   -2.9448 O.2     1  UNL1       -0.5170
     28 O          23.5383   75.0127   -5.5291 O.3     1  UNL1       -0.2858
     29 O          21.6050   76.0859   -6.3819 O.3     1  UNL1       -0.3258
     30 O          22.2675   73.3917   -9.4402 O.3     1  UNL1       -0.3794
     31 O          22.8164   76.1789   -9.8623 O.3     1  UNL1       -0.3794
     32 O          22.7138   72.5960   -6.6930 O.3     1  UNL1       -0.3775
     33 C          22.6404   74.2964   -8.3973 C.3     1  UNL1        0.1715
     34 C          22.0884   75.6808   -8.7432 C.3     1  UNL1        0.1694
     35 C          22.0586   73.8007   -7.0747 C.3     1  UNL1        0.1967
     36 C          22.2153   76.6410   -7.5529 C.3     1  UNL1        0.1761
     37 C          22.1927   74.8502   -5.9700 C.3     1  UNL1        0.2704
     38 H          22.6342   73.7004  -10.2827 H       1  UNL1        0.2105
     39 H          22.7285   75.5631  -10.6068 H       1  UNL1        0.2105
     40 H          22.6214   71.9396   -7.4005 H       1  UNL1        0.2106
     41 O          20.3302   78.0278   -7.0709 O.3     1  UNL1       -0.3794
     42 C          21.5295   77.9788   -7.8216 C.3     1  UNL1        0.1693
     43 H          19.8831   78.8740   -7.2319 H       1  UNL1        0.2105
@<TRIPOS>UNITY_ATOM_ATTR
2 1
charge -1
26 1
charge -1
@<TRIPOS>BOND
     1    25    28    1
     2    25    24    1
     3    25    26    1
     4    25    27    2
     5     1     4    1
     6     1    24    1
     7     1     2    1
     8     1     3    2
     9     6    11    1
    10     6    12    1
    11    29    36    1
    12    29    37    1
    13     7     9    1
    14     7    13    1
    15     8    10    1
    16     8    14    1
    17    28    37    1
    18     4     5    1
    19    30    33    1
    20    30    38    1
    21    31    34    1
    22    31    39    1
    23    32    35    1
    24    32    40    1
    25    41    42    1
    26    41    43    1
    27    15    19    2
    28    16    22    2
    29    17    12    1
    30    17    19   ar
    31    17    20   ar
    32    18    19   ar
    33    18    22   ar
    34    18    23    1
    35     9    10    1
    36     9    11    1
    37    10    12    1
    38    11     5    1
    39    33    34    1
    40    33    35    1
    41    34    36    1
    42    35    37    1
    43    36    42    1
    44    20    21   ar
    45    21    22   ar
@<TRIPOS>MOLECULE
*****
 43 45 0 0 0
SMALL
GASTEIGER

@<TRIPOS>ATOM
      1 P          22.2994   71.1145   -1.6501 P.3     1  UNL1        0.2189
      2 O          23.3351   70.3063   -0.7059 O.co2   1  UNL1       -0.4371
      3 O          21.5001   72.1749   -0.9516 O.2     1  UNL1       -0.5170
      4 O          21.4407   69.9484   -2.3718 O.3     1  UNL1       -0.3112
      5 C          20.8459   70.2255   -3.6277 C.3     1  UNL1        0.1811
      6 O          19.1532   71.6207   -4.6085 O.3     1  UNL1       -0.3308
      7 O          17.3411   70.6288   -2.4353 O.3     1  UNL1       -0.3794
      8 O          16.5762   69.1265   -4.5788 O.3     1  UNL1       -0.3779
      9 C          18.3654   69.9328   -3.1435 C.3     1  UNL1        0.1713
     10 C          17.9047   69.6071   -4.5490 C.3     1  UNL1        0.1895
     11 C          19.5052   70.9105   -3.4010 C.3     1  UNL1        0.1764
     12 C          18.0575   70.9468   -5.2490 C.3     1  UNL1        0.2383
     13 H          16.6023   70.0245   -2.2591 H       1  UNL1        0.2105
     14 H          16.5308   68.2725   -4.1211 H       1  UNL1        0.2106
     15 O          16.1149   70.4996   -7.2501 O.2     1  UNL1       -0.2464
     16 O          19.3000   70.4127  -10.5801 O.2     1  UNL1       -0.2670
     17 N          18.3512   70.8038   -6.6471 N.ar    1  UNL1       -0.2551
     18 N          17.7024   70.4569   -8.9066 N.ar    1  UNL1       -0.2743
     19 C          17.3027   70.5809   -7.5698 C.ar    1  UNL1        0.3323
     20 C          19.6667   70.8853   -7.0908 C.ar    1  UNL1        0.0869
     21 C          20.0313   70.7635   -8.3688 C.ar    1  UNL1        0.0795
     22 C          18.9967   70.5290   -9.3967 C.ar    1  UNL1        0.2626
     23 H          16.9890   70.3008   -9.5672 H       1  UNL1        0.1734
     24 O          23.2446   71.6604   -2.8424 O.3     1  UNL1       -0.2703
     25 P          23.2081   73.0443   -3.6769 P.3     1  UNL1        0.2208
     26 O          21.9785   73.8515   -3.0031 O.co2   1  UNL1       -0.4371
     27 O          23.0904   72.8640   -5.1627 O.2     1  UNL1       -0.5170
     28 O          24.5283   73.8424   -3.2025 O.3     1  UNL1       -0.2858
     29 O          24.0805   76.1553   -2.9453 O.3     1  UNL1       -0.3258
     30 O          28.1866   76.2266   -2.5152 O.3     1  UNL1       -0.3794
     31 O          26.5130   76.6370   -0.2177 O.3     1  UNL1       -0.3794
     32 O          26.9680   74.4504   -4.4490 O.3     1  UNL1       -0.3775
     33 C          26.8717   75.6805   -2.3804 C.3     1  UNL1        0.1715
     34 C          26.0289   76.6570   -1.5577 C.3     1  UNL1        0.1694
     35 C          26.2670   75.4865   -3.7697 C.3     1  UNL1        0.1967
     36 C          24.5433   76.2740   -1.5950 C.3     1  UNL1        0.1761
     37 C          24.7750   75.1568   -3.6952 C.3     1  UNL1        0.2704
     38 H          28.5765   76.3517   -1.6367 H       1  UNL1        0.2105
     39 H          27.4521   76.8801   -0.2083 H       1  UNL1        0.2105
     40 H          27.9111   74.6711   -4.4898 H       1  UNL1        0.2106
     41 O          22.7361   76.6542   -0.0789 O.3     1  UNL1       -0.3794
     42 C          23.6655   77.3212   -0.9130 C.3     1  UNL1        0.1693
     43 H          22.1708   77.3083    0.3620 H       1  UNL1        0.2105
@<TRIPOS>UNITY_ATOM_ATTR
2 1
charge -1
26 1
charge -1
@<TRIPOS>BOND
     1    25    28    1
     2    25    24    1
     3    25    26    1
     4    25    27    2
     5     1     4    1
     6     1    24    1
     7     1     2    1
     8     1     3    2
     9     6    11    1
    10     6    12    1
    11    29    36    1
    12    29    37    1
    13     7     9    1
    14     7    13    1
    15     8    10    1
    16     8    14    1
    17    28    37    1
    18     4     5    1
    19    30    33    1
    20    30    38    1
    21    31    34    1
    22    31    39    1
    23    32    35    1
    24    32    40    1
    25    41    42    1
    26    41    43    1
    27    15    19    2
    28    16    22    2
    29    17    12    1
    30    17    19   ar
    31    17    20   ar
    32    18    19   ar
    33    18    22   ar
    34    18    23    1
    35     9    10    1
    36     9    11    1
    37    10    12    1
    38    11     5    1
    39    33    34    1
    40    33    35    1
    41    34    36    1
    42    35    37    1
    43    36    42    1
    44    20    21   ar
    45    21    22   ar
@<TRIPOS>MOLECULE
*****
 43 45 0 0 0
SMALL
GASTEIGER

@<TRIPOS>ATOM
      1 P          21.8776   73.8068   -5.6785 P.3     1  UNL1        0.2189
      2 O          20.5604   74.3747   -4.9303 O.co2   1  UNL1       -0.4371
      3 O          23.0145   74.7801   -5.7861 O.2     1  UNL1       -0.5170
      4 O          21.3103   73.2313   -7.0802 O.3     1  UNL1       -0.3112
      5 C          20.3195   73.9769   -7.7658 C.3     1  UNL1        0.1811
      6 O          19.6351   71.7426   -8.3255 O.3     1  UNL1       -0.3308
      7 O          17.9385   72.9965  -10.4562 O.3     1  UNL1       -0.3794
      8 O          16.1278   72.4750   -8.4850 O.3     1  UNL1       -0.3779
      9 C          18.2426   73.4751   -9.1471 C.3     1  UNL1        0.1713
     10 C          17.4728   72.6878   -8.1074 C.3     1  UNL1        0.1895
     11 C          19.6838   73.0946   -8.8315 C.3     1  UNL1        0.1764
     12 C          18.2709   71.3972   -8.0348 C.3     1  UNL1        0.2383
     13 H          17.0230   73.2280  -10.6804 H       1  UNL1        0.2105
     14 H          15.6623   73.3253   -8.5169 H       1  UNL1        0.2106
     15 O          16.0353   69.9907   -7.0338 O.2     1  UNL1       -0.2464
     16 O          18.1520   69.1045   -3.0369 O.2     1  UNL1       -0.2670
     17 N          18.2106   70.7883   -6.7359 N.ar    1  UNL1       -0.2551
     18 N          17.0911   69.5504   -5.0446 N.ar    1  UNL1       -0.2743
     19 C          17.0403   70.1060   -6.3294 C.ar    1  UNL1        0.3323
     20 C          19.3040   70.8708   -5.8805 C.ar    1  UNL1        0.0869
     21 C          19.3360   70.3367   -4.6578 C.ar    1  UNL1        0.0795
     22 C          18.1537   69.6067   -4.1566 C.ar    1  UNL1        0.2626
     23 H          16.2870   69.0706   -4.7398 H       1  UNL1        0.1734
     24 O          22.2182   72.4639   -4.8456 O.3     1  UNL1       -0.2703
     25 P          23.1288   72.2330   -3.5301 P.3     1  UNL1        0.2208
     26 O          24.3677   73.2492   -3.7534 O.co2   1  UNL1       -0.4371
     27 O          23.5324   70.8047   -3.3042 O.2     1  UNL1       -0.5170
     28 O          22.2778   72.8863   -2.3244 O.3     1  UNL1       -0.2858
     29 O          21.5531   71.1828   -0.8447 O.3     1  UNL1       -0.3258
     30 O          19.5281   74.3863    0.7949 O.3     1  UNL1       -0.3794
     31 O          21.7897   73.2807    2.1772 O.3     1  UNL1       -0.3794
     32 O          19.7901   74.1616   -2.0792 O.3     1  UNL1       -0.3775
     33 C          20.6179   73.7302    0.1411 C.3     1  UNL1        0.1715
     34 C          21.1521   72.6420    1.0745 C.3     1  UNL1        0.1694
     35 C          20.1202   73.1194   -1.1675 C.3     1  UNL1        0.1967
     36 C          22.1407   71.7226    0.3448 C.3     1  UNL1        0.1761
     37 C          21.1607   72.1839   -1.7859 C.3     1  UNL1        0.2704
     38 H          19.8375   74.7767    1.6263 H       1  UNL1        0.2105
     39 H          21.1548   73.8586    2.6290 H       1  UNL1        0.2105
     40 H          19.1304   74.7467   -1.6762 H       1  UNL1        0.2106
     41 O          22.0200   69.3563    0.6525 O.3     1  UNL1       -0.3794
     42 C          22.5652   70.5379    1.2099 C.3     1  UNL1        0.1693
     43 H          22.2822   68.5938    1.1926 H       1  UNL1        0.2105
@<TRIPOS>UNITY_ATOM_ATTR
2 1
charge -1
26 1
charge -1
@<TRIPOS>BOND
     1    25    28    1
     2    25    24    1
     3    25    26    1
     4    25    27    2
     5     1     4    1
     6     1    24    1
     7     1     2    1
     8     1     3    2
     9     6    11    1
    10     6    12    1
    11    29    36    1
    12    29    37    1
    13     7     9    1
    14     7    13    1
    15     8    10    1
    16     8    14    1
    17    28    37    1
    18     4     5    1
    19    30    33    1
    20    30    38    1
    21    31    34    1
    22    31    39    1
    23    32    35    1
    24    32    40    1
    25    41    42    1
    26    41    43    1
    27    15    19    2
    28    16    22    2
    29    17    12    1
    30    17    19   ar
    31    17    20   ar
    32    18    19   ar
    33    18    22   ar
    34    18    23    1
    35     9    10    1
    36     9    11    1
    37    10    12    1
    38    11     5    1
    39    33    34    1
    40    33    35    1
    41    34    36    1
    42    35    37    1
    43    36    42    1
    44    20    21   ar
    45    21    22   ar
@<TRIPOS>MOLECULE
*****
 43 45 0 0 0
SMALL
GASTEIGER

@<TRIPOS>ATOM
      1 P          22.7925   72.1551   -3.5601 P.3     1  UNL1        0.2189
      2 O          22.7722   72.4778   -5.1453 O.co2   1  UNL1       -0.4371
      3 O          23.2993   70.7901   -3.1977 O.2     1  UNL1       -0.5170
      4 O          21.2875   72.4975   -3.0747 O.3     1  UNL1       -0.3112
      5 C          20.3567   72.9638   -4.0360 C.3     1  UNL1        0.1811
      6 O          18.2063   72.3494   -4.9146 O.3     1  UNL1       -0.3308
      7 O          17.8208   70.7991   -2.3772 O.3     1  UNL1       -0.3794
      8 O          18.5014   68.8547   -4.1640 O.3     1  UNL1       -0.3779
      9 C          19.0096   71.0003   -3.1396 C.3     1  UNL1        0.1713
     10 C          18.9718   70.1656   -4.4027 C.3     1  UNL1        0.1895
     11 C          18.9766   72.4189   -3.6947 C.3     1  UNL1        0.1764
     12 C          18.0339   70.9717   -5.2852 C.3     1  UNL1        0.2383
     13 H          17.8194   69.8998   -2.0121 H       1  UNL1        0.2105
     14 H          19.1322   68.3827   -3.5984 H       1  UNL1        0.2106
     15 O          16.1047   70.4678   -7.2857 O.2     1  UNL1       -0.2464
     16 O          19.2971   70.4201  -10.6096 O.2     1  UNL1       -0.2670
     17 N          18.3331   70.8235   -6.6815 N.ar    1  UNL1       -0.2551
     18 N          17.6958   70.4446   -8.9391 N.ar    1  UNL1       -0.2743
     19 C          17.2911   70.5713   -7.6041 C.ar    1  UNL1        0.3323
     20 C          19.6474   70.9287   -7.1236 C.ar    1  UNL1        0.0869
     21 C          20.0169   70.8041   -8.4000 C.ar    1  UNL1        0.0795
     22 C          18.9893   70.5397   -9.4277 C.ar    1  UNL1        0.2626
     23 H          16.9871   70.2683   -9.5997 H       1  UNL1        0.1734
     24 O          23.6575   73.3775   -2.9514 O.3     1  UNL1       -0.2703
     25 P          24.1146   74.7834   -3.6051 P.3     1  UNL1        0.2208
     26 O          25.6229   74.4854   -4.1089 O.co2   1  UNL1       -0.4371
     27 O          23.9914   75.9605   -2.6814 O.2     1  UNL1       -0.5170
     28 O          23.2482   74.9040   -4.9615 O.3     1  UNL1       -0.2858
     29 O          23.7946   75.5899   -7.1633 O.3     1  UNL1       -0.3258
     30 O          20.0919   77.3838   -6.8130 O.3     1  UNL1       -0.3794
     31 O          20.3962   75.0768   -8.4962 O.3     1  UNL1       -0.3794
     32 O          21.8870   77.3220   -4.5429 O.3     1  UNL1       -0.3775
     33 C          21.0715   76.3645   -6.5970 C.3     1  UNL1        0.1715
     34 C          21.4939   75.8091   -7.9586 C.3     1  UNL1        0.1694
     35 C          22.2696   76.9699   -5.8681 C.3     1  UNL1        0.1967
     36 C          22.7274   74.9052   -7.8297 C.3     1  UNL1        0.1761
     37 C          23.4582   76.0075   -5.8387 C.3     1  UNL1        0.2704
     38 H          19.3282   77.0058   -7.2750 H       1  UNL1        0.2105
     39 H          19.6237   75.6589   -8.5720 H       1  UNL1        0.2105
     40 H          21.1339   77.9317   -4.5751 H       1  UNL1        0.2106
     41 O          22.5494   73.3142   -9.6034 O.3     1  UNL1       -0.3794
     42 C          23.2604   74.4673   -9.1921 C.3     1  UNL1        0.1693
     43 H          22.8778   73.0243  -10.4693 H       1  UNL1        0.2105
@<TRIPOS>UNITY_ATOM_ATTR
2 1
charge -1
26 1
charge -1
@<TRIPOS>BOND
     1    25    28    1
     2    25    24    1
     3    25    26    1
     4    25    27    2
     5     1     4    1
     6     1    24    1
     7     1     2    1
     8     1     3    2
     9     6    11    1
    10     6    12    1
    11    29    36    1
    12    29    37    1
    13     7     9    1
    14     7    13    1
    15     8    10    1
    16     8    14    1
    17    28    37    1
    18     4     5    1
    19    30    33    1
    20    30    38    1
    21    31    34    1
    22    31    39    1
    23    32    35    1
    24    32    40    1
    25    41    42    1
    26    41    43    1
    27    15    19    2
    28    16    22    2
    29    17    12    1
    30    17    19   ar
    31    17    20   ar
    32    18    19   ar
    33    18    22   ar
    34    18    23    1
    35     9    10    1
    36     9    11    1
    37    10    12    1
    38    11     5    1
    39    33    34    1
    40    33    35    1
    41    34    36    1
    42    35    37    1
    43    36    42    1
    44    20    21   ar
    45    21    22   ar
@<TRIPOS>MOLECULE
*****
 43 45 0 0 0
SMALL
GASTEIGER

@<TRIPOS>ATOM
      1 P          22.0573   70.9961   -1.5704 P.3     1  UNL1        0.2189
      2 O          23.1849   70.2981   -0.6437 O.co2   1  UNL1       -0.4371
      3 O          21.1099   71.9029   -0.8412 O.2     1  UNL1       -0.5170
      4 O          21.3779   69.7556   -2.3562 O.3     1  UNL1       -0.3112
      5 C          20.7633   70.0037   -3.6086 C.3     1  UNL1        0.1811
      6 O          19.1430   71.4968   -4.5673 O.3     1  UNL1       -0.3308
      7 O          17.2586   70.5085   -2.4547 O.3     1  UNL1       -0.3794
      8 O          16.4690   69.1085   -4.6577 O.3     1  UNL1       -0.3779
      9 C          18.2657   69.7953   -3.1706 C.3     1  UNL1        0.1713
     10 C          17.8148   69.5342   -4.5926 C.3     1  UNL1        0.1895
     11 C          19.4473   70.7343   -3.3789 C.3     1  UNL1        0.1764
     12 C          18.0318   70.8886   -5.2457 C.3     1  UNL1        0.2383
     13 H          16.4938   69.9290   -2.3094 H       1  UNL1        0.2105
     14 H          16.3825   68.2426   -4.2292 H       1  UNL1        0.2106
     15 O          16.1067   70.5587   -7.2861 O.2     1  UNL1       -0.2464
     16 O          19.3366   70.4797  -10.5729 O.2     1  UNL1       -0.2670
     17 N          18.3417   70.7794   -6.6433 N.ar    1  UNL1       -0.2551
     18 N          17.7165   70.5198   -8.9210 N.ar    1  UNL1       -0.2743
     19 C          17.3009   70.6151   -7.5868 C.ar    1  UNL1        0.3323
     20 C          19.6653   70.8360   -7.0661 C.ar    1  UNL1        0.0869
     21 C          20.0451   70.7423   -8.3421 C.ar    1  UNL1        0.0795
     22 C          19.0194   70.5691   -9.3909 C.ar    1  UNL1        0.2626
     23 H          17.0087   70.4045   -9.5960 H       1  UNL1        0.1734
     24 O          22.9305   71.7210   -2.7215 O.3     1  UNL1       -0.2703
     25 P          23.0493   73.2772   -3.1421 P.3     1  UNL1        0.2208
     26 O          24.3205   73.2952   -4.1427 O.co2   1  UNL1       -0.4371
     27 O          23.1620   74.2217   -1.9806 O.2     1  UNL1       -0.5170
     28 O          21.7751   73.5406   -4.0972 O.3     1  UNL1       -0.2858
     29 O          22.2160   75.4884   -5.3733 O.3     1  UNL1       -0.3258
     30 O          18.3596   74.7290   -6.6393 O.3     1  UNL1       -0.3794
     31 O          20.5588   74.2399   -8.4203 O.3     1  UNL1       -0.3794
     32 O          19.0819   74.2956   -3.8698 O.3     1  UNL1       -0.3775
     33 C          19.6780   74.3890   -6.2016 C.3     1  UNL1        0.1715
     34 C          20.6799   74.9688   -7.2020 C.3     1  UNL1        0.1694
     35 C          19.9083   74.9742   -4.8095 C.3     1  UNL1        0.1967
     36 C          22.1146   74.8778   -6.6651 C.3     1  UNL1        0.1761
     37 C          21.3766   74.8769   -4.3917 C.3     1  UNL1        0.2704
     38 H          18.2068   74.3599   -7.5224 H       1  UNL1        0.2105
     39 H          19.6482   74.3050   -8.7484 H       1  UNL1        0.2105
     40 H          18.1550   74.3648   -4.1453 H       1  UNL1        0.2106
     41 O          23.6733   74.6394   -8.4603 O.3     1  UNL1       -0.3794
     42 C          23.1122   75.5912   -7.5751 C.3     1  UNL1        0.1693
     43 H          24.3100   75.0793   -9.0458 H       1  UNL1        0.2105
@<TRIPOS>UNITY_ATOM_ATTR
2 1
charge -1
26 1
charge -1
@<TRIPOS>BOND
     1    25    28    1
     2    25    24    1
     3    25    26    1
     4    25    27    2
     5     1     4    1
     6     1    24    1
     7     1     2    1
     8     1     3    2
     9     6    11    1
    10     6    12    1
    11    29    36    1
    12    29    37    1
    13     7     9    1
    14     7    13    1
    15     8    10    1
    16     8    14    1
    17    28    37    1
    18     4     5    1
    19    30    33    1
    20    30    38    1
    21    31    34    1
    22    31    39    1
    23    32    35    1
    24    32    40    1
    25    41    42    1
    26    41    43    1
    27    15    19    2
    28    16    22    2
    29    17    12    1
    30    17    19   ar
    31    17    20   ar
    32    18    19   ar
    33    18    22   ar
    34    18    23    1
    35     9    10    1
    36     9    11    1
    37    10    12    1
    38    11     5    1
    39    33    34    1
    40    33    35    1
    41    34    36    1
    42    35    37    1
    43    36    42    1
    44    20    21   ar
    45    21    22   ar
@<TRIPOS>MOLECULE
*****
 43 45 0 0 0
SMALL
GASTEIGER

@<TRIPOS>ATOM
      1 P          22.9138   72.0676   -2.9733 P.3     1  UNL1        0.2189
      2 O          23.4161   70.5462   -3.1979 O.co2   1  UNL1       -0.4371
      3 O          22.9707   72.5508   -1.5539 O.2     1  UNL1       -0.5170
      4 O          21.4534   72.1012   -3.6690 O.3     1  UNL1       -0.3112
      5 C          20.6258   70.9564   -3.5592 C.3     1  UNL1        0.1811
      6 O          18.7595   71.9704   -4.6828 O.3     1  UNL1       -0.3308
      7 O          17.0552   70.7958   -2.5134 O.3     1  UNL1       -0.3794
      8 O          16.6619   69.0630   -4.5820 O.3     1  UNL1       -0.3779
      9 C          18.2162   70.2545   -3.1413 C.3     1  UNL1        0.1713
     10 C          17.8826   69.7734   -4.5380 C.3     1  UNL1        0.1895
     11 C          19.1769   71.4034   -3.4216 C.3     1  UNL1        0.1764
     12 C          17.8287   71.0773   -5.3159 C.3     1  UNL1        0.2383
     13 H          16.4270   70.0806   -2.3242 H       1  UNL1        0.2105
     14 H          16.7470   68.2418   -4.0730 H       1  UNL1        0.2106
     15 O          16.0292   70.4306   -7.3947 O.2     1  UNL1       -0.2464
     16 O          19.3835   70.4603  -10.5553 O.2     1  UNL1       -0.2670
     17 N          18.2046   70.9103   -6.6915 N.ar    1  UNL1       -0.2551
     18 N          17.7008   70.4461   -8.9668 N.ar    1  UNL1       -0.2743
     19 C          17.2238   70.5848   -7.6571 C.ar    1  UNL1        0.3323
     20 C          19.5329   71.0696   -7.0711 C.ar    1  UNL1        0.0869
     21 C          19.9717   70.9327   -8.3241 C.ar    1  UNL1        0.0795
     22 C          19.0111   70.5931   -9.3936 C.ar    1  UNL1        0.2626
     23 H          17.0355   70.2191   -9.6564 H       1  UNL1        0.1734
     24 O          23.8283   72.9087   -4.0073 O.3     1  UNL1       -0.2703
     25 P          24.1383   74.4922   -4.1047 P.3     1  UNL1        0.2208
     26 O          23.6704   75.0514   -2.6604 O.co2   1  UNL1       -0.4371
     27 O          23.4892   75.1756   -5.2733 O.2     1  UNL1       -0.5170
     28 O          25.7488   74.5955   -4.0795 O.3     1  UNL1       -0.2858
     29 O          27.2697   76.0052   -2.9324 O.3     1  UNL1       -0.3258
     30 O          29.1049   75.9255   -6.6305 O.3     1  UNL1       -0.3794
     31 O          30.2789   74.4957   -4.4339 O.3     1  UNL1       -0.3794
     32 O          26.2170   76.0170   -6.4534 O.3     1  UNL1       -0.3775
     33 C          28.3546   75.3911   -5.5365 C.3     1  UNL1        0.1715
     34 C          29.2291   75.4471   -4.2824 C.3     1  UNL1        0.1694
     35 C          27.0879   76.2233   -5.3463 C.3     1  UNL1        0.1967
     36 C          28.4094   75.1422   -3.0214 C.3     1  UNL1        0.1761
     37 C          26.3745   75.8754   -4.0386 C.3     1  UNL1        0.2704
     38 H          29.9103   75.4012   -6.7570 H       1  UNL1        0.2105
     39 H          30.7885   74.6992   -5.2340 H       1  UNL1        0.2105
     40 H          26.6802   76.2411   -7.2750 H       1  UNL1        0.2106
     41 O          29.8253   74.1139   -1.3944 O.3     1  UNL1       -0.3794
     42 C          29.2244   75.3466   -1.7462 C.3     1  UNL1        0.1693
     43 H          30.3475   74.2289   -0.5847 H       1  UNL1        0.2105
@<TRIPOS>UNITY_ATOM_ATTR
2 1
charge -1
26 1
charge -1
@<TRIPOS>BOND
     1    25    28    1
     2    25    24    1
     3    25    26    1
     4    25    27    2
     5     1     4    1
     6     1    24    1
     7     1     2    1
     8     1     3    2
     9     6    11    1
    10     6    12    1
    11    29    36    1
    12    29    37    1
    13     7     9    1
    14     7    13    1
    15     8    10    1
    16     8    14    1
    17    28    37    1
    18     4     5    1
    19    30    33    1
    20    30    38    1
    21    31    34    1
    22    31    39    1
    23    32    35    1
    24    32    40    1
    25    41    42    1
    26    41    43    1
    27    15    19    2
    28    16    22    2
    29    17    12    1
    30    17    19   ar
    31    17    20   ar
    32    18    19   ar
    33    18    22   ar
    34    18    23    1
    35     9    10    1
    36     9    11    1
    37    10    12    1
    38    11     5    1
    39    33    34    1
    40    33    35    1
    41    34    36    1
    42    35    37    1
    43    36    42    1
    44    20    21   ar
    45    21    22   ar
@<TRIPOS>MOLECULE
*****
 43 45 0 0 0
SMALL
GASTEIGER

@<TRIPOS>ATOM
      1 P          22.7337   70.7608   -1.9383 P.3     1  UNL1        0.2189
      2 O          23.7358   70.4392   -3.1670 O.co2   1  UNL1       -0.4371
      3 O          23.2762   70.4381   -0.5770 O.2     1  UNL1       -0.5170
      4 O          21.3634   70.0034   -2.3462 O.3     1  UNL1       -0.3112
      5 C          20.7851   70.2853   -3.6087 C.3     1  UNL1        0.1811
      6 O          19.0684   71.6373   -4.6081 O.3     1  UNL1       -0.3308
      7 O          17.2579   70.5980   -2.4557 O.3     1  UNL1       -0.3794
      8 O          16.5559   69.0779   -4.6081 O.3     1  UNL1       -0.3779
      9 C          18.3076   69.9289   -3.1526 C.3     1  UNL1        0.1713
     10 C          17.8712   69.5924   -4.5633 C.3     1  UNL1        0.1895
     11 C          19.4248   70.9357   -3.3969 C.3     1  UNL1        0.1764
     12 C          17.9976   70.9359   -5.2611 C.3     1  UNL1        0.2383
     13 H          16.5329   69.9750   -2.2880 H       1  UNL1        0.2105
     14 H          16.5273   68.2228   -4.1512 H       1  UNL1        0.2106
     15 O          16.0857   70.4733   -7.2881 O.2     1  UNL1       -0.2464
     16 O          19.3133   70.4352  -10.5778 O.2     1  UNL1       -0.2670
     17 N          18.3105   70.8013   -6.6559 N.ar    1  UNL1       -0.2551
     18 N          17.6944   70.4549   -8.9245 N.ar    1  UNL1       -0.2743
     19 C          17.2764   70.5695   -7.5925 C.ar    1  UNL1        0.3323
     20 C          19.6304   70.8996   -7.0826 C.ar    1  UNL1        0.0869
     21 C          20.0126   70.7867   -8.3563 C.ar    1  UNL1        0.0795
     22 C          18.9938   70.5438   -9.3980 C.ar    1  UNL1        0.2626
     23 H          16.9912   70.2928   -9.5947 H       1  UNL1        0.1734
     24 O          22.3689   72.3192   -2.1650 O.3     1  UNL1       -0.2703
     25 P          23.2065   73.5155   -2.8581 P.3     1  UNL1        0.2208
     26 O          22.0673   74.6075   -3.2151 O.co2   1  UNL1       -0.4371
     27 O          24.0401   73.0845   -4.0299 O.2     1  UNL1       -0.5170
     28 O          24.0445   74.1808   -1.6497 O.3     1  UNL1       -0.2858
     29 O          22.6897   75.4436   -0.1710 O.3     1  UNL1       -0.3258
     30 O          26.4112   76.6428    1.1569 O.3     1  UNL1       -0.3794
     31 O          24.8324   74.8698    2.7732 O.3     1  UNL1       -0.3794
     32 O          25.9474   76.2432   -1.6723 O.3     1  UNL1       -0.3775
     33 C          25.4501   75.7259    0.6269 C.3     1  UNL1        0.1715
     34 C          24.3191   75.5743    1.6460 C.3     1  UNL1        0.1694
     35 C          24.9135   76.2736   -0.6943 C.3     1  UNL1        0.1967
     36 C          23.1267   74.8201    1.0423 C.3     1  UNL1        0.1761
     37 C          23.6987   75.4820   -1.1821 C.3     1  UNL1        0.2704
     38 H          26.7562   76.3007    1.9957 H       1  UNL1        0.2105
     39 H          25.5851   75.3563    3.1447 H       1  UNL1        0.2105
     40 H          26.7105   76.7480   -1.3518 H       1  UNL1        0.2106
     41 O          22.1443   75.7463    3.0135 O.3     1  UNL1       -0.3794
     42 C          21.9278   74.7949    1.9878 C.3     1  UNL1        0.1693
     43 H          21.3890   75.7417    3.6228 H       1  UNL1        0.2105
@<TRIPOS>UNITY_ATOM_ATTR
2 1
charge -1
26 1
charge -1
@<TRIPOS>BOND
     1    25    28    1
     2    25    24    1
     3    25    26    1
     4    25    27    2
     5     1     4    1
     6     1    24    1
     7     1     2    1
     8     1     3    2
     9     6    11    1
    10     6    12    1
    11    29    36    1
    12    29    37    1
    13     7     9    1
    14     7    13    1
    15     8    10    1
    16     8    14    1
    17    28    37    1
    18     4     5    1
    19    30    33    1
    20    30    38    1
    21    31    34    1
    22    31    39    1
    23    32    35    1
    24    32    40    1
    25    41    42    1
    26    41    43    1
    27    15    19    2
    28    16    22    2
    29    17    12    1
    30    17    19   ar
    31    17    20   ar
    32    18    19   ar
    33    18    22   ar
    34    18    23    1
    35     9    10    1
    36     9    11    1
    37    10    12    1
    38    11     5    1
    39    33    34    1
    40    33    35    1
    41    34    36    1
    42    35    37    1
    43    36    42    1
    44    20    21   ar
    45    21    22   ar
@<TRIPOS>MOLECULE
*****
 43 45 0 0 0
SMALL
GASTEIGER

@<TRIPOS>ATOM
      1 P          21.6961   70.3081   -1.0651 P.3     1  UNL1        0.2189
      2 O          23.1978   70.6545   -1.5575 O.co2   1  UNL1       -0.4371
      3 O          21.6133   69.5065    0.2006 O.2     1  UNL1       -0.5170
      4 O          21.0050   69.6399   -2.3665 O.3     1  UNL1       -0.3112
      5 C          20.7281   70.4658   -3.4841 C.3     1  UNL1        0.1811
      6 O          18.9918   71.7352   -4.5555 O.3     1  UNL1       -0.3308
      7 O          17.1648   70.6827   -2.4235 O.3     1  UNL1       -0.3794
      8 O          16.5682   69.0916   -4.5563 O.3     1  UNL1       -0.3779
      9 C          18.2535   70.0347   -3.0793 C.3     1  UNL1        0.1713
     10 C          17.8638   69.6519   -4.4918 C.3     1  UNL1        0.1895
     11 C          19.3417   71.0735   -3.3201 C.3     1  UNL1        0.1764
     12 C          17.9618   70.9830   -5.2175 C.3     1  UNL1        0.2383
     13 H          16.4574   70.0390   -2.2588 H       1  UNL1        0.2105
     14 H          16.5572   68.2464   -4.0804 H       1  UNL1        0.2106
     15 O          16.1229   70.3742   -7.2731 O.2     1  UNL1       -0.2464
     16 O          19.4247   70.4107  -10.4883 O.2     1  UNL1       -0.2670
     17 N          18.3136   70.8281   -6.6008 N.ar    1  UNL1       -0.2551
     18 N          17.7684   70.3930   -8.8724 N.ar    1  UNL1       -0.2743
     19 C          17.3143   70.5213   -7.5535 C.ar    1  UNL1        0.3323
     20 C          19.6368   70.9804   -7.0007 C.ar    1  UNL1        0.0869
     21 C          20.0537   70.8536   -8.2622 C.ar    1  UNL1        0.0795
     22 C          19.0727   70.5339   -9.3192 C.ar    1  UNL1        0.2626
     23 H          17.0899   70.1792   -9.5533 H       1  UNL1        0.1734
     24 O          20.9946   71.7624   -0.9875 O.3     1  UNL1       -0.2703
     25 P          21.5425   73.1768   -0.4290 P.3     1  UNL1        0.2208
     26 O          22.1644   72.7903    1.0137 O.co2   1  UNL1       -0.4371
     27 O          20.5079   74.2639   -0.3862 O.2     1  UNL1       -0.5170
     28 O          22.8254   73.5103   -1.3498 O.3     1  UNL1       -0.2858
     29 O          22.5748   75.6979   -2.2263 O.3     1  UNL1       -0.3258
     30 O          26.0214   74.5835   -4.2087 O.3     1  UNL1       -0.3794
     31 O          26.1693   76.5016   -2.0763 O.3     1  UNL1       -0.3794
     32 O          23.9059   72.6518   -3.7933 O.3     1  UNL1       -0.3775
     33 C          25.1054   74.6260   -3.1112 C.3     1  UNL1        0.1715
     34 C          24.9460   76.0840   -2.6758 C.3     1  UNL1        0.1694
     35 C          23.7637   74.0486   -3.5583 C.3     1  UNL1        0.1967
     36 C          23.7843   76.2426   -1.6857 C.3     1  UNL1        0.1761
     37 C          22.6663   74.3032   -2.5234 C.3     1  UNL1        0.2704
     38 H          26.8756   74.9483   -3.9314 H       1  UNL1        0.2105
     39 H          26.8948   76.3960   -2.7118 H       1  UNL1        0.2105
     40 H          24.6032   72.5040   -4.4503 H       1  UNL1        0.2106
     41 O          24.0924   78.5117   -2.3677 O.3     1  UNL1       -0.3794
     42 C          23.5067   77.7085   -1.3597 C.3     1  UNL1        0.1693
     43 H          23.9235   79.4474   -2.1736 H       1  UNL1        0.2105
@<TRIPOS>UNITY_ATOM_ATTR
2 1
charge -1
26 1
charge -1
@<TRIPOS>BOND
     1    25    28    1
     2    25    24    1
     3    25    26    1
     4    25    27    2
     5     1     4    1
     6     1    24    1
     7     1     2    1
     8     1     3    2
     9     6    11    1
    10     6    12    1
    11    29    36    1
    12    29    37    1
    13     7     9    1
    14     7    13    1
    15     8    10    1
    16     8    14    1
    17    28    37    1
    18     4     5    1
    19    30    33    1
    20    30    38    1
    21    31    34    1
    22    31    39    1
    23    32    35    1
    24    32    40    1
    25    41    42    1
    26    41    43    1
    27    15    19    2
    28    16    22    2
    29    17    12    1
    30    17    19   ar
    31    17    20   ar
    32    18    19   ar
    33    18    22   ar
    34    18    23    1
    35     9    10    1
    36     9    11    1
    37    10    12    1
    38    11     5    1
    39    33    34    1
    40    33    35    1
    41    34    36    1
    42    35    37    1
    43    36    42    1
    44    20    21   ar
    45    21    22   ar
@<TRIPOS>MOLECULE
*****
 43 45 0 0 0
SMALL
GASTEIGER

@<TRIPOS>ATOM
      1 P          22.3418   71.1208   -1.7556 P.3     1  UNL1        0.2189
      2 O          23.5038   70.3825   -0.9058 O.co2   1  UNL1       -0.4371
      3 O          21.5619   72.1546   -0.9977 O.2     1  UNL1       -0.5170
      4 O          21.4767   69.9004   -2.3722 O.3     1  UNL1       -0.3112
      5 C          20.8228   70.0951   -3.6141 C.3     1  UNL1        0.1811
      6 O          19.1438   71.5378   -4.5486 O.3     1  UNL1       -0.3308
      7 O          17.3134   70.4718   -2.4263 O.3     1  UNL1       -0.3794
      8 O          16.5525   69.0597   -4.6316 O.3     1  UNL1       -0.3779
      9 C          18.3378   69.7982   -3.1558 C.3     1  UNL1        0.1713
     10 C          17.8834   69.5310   -4.5755 C.3     1  UNL1        0.1895
     11 C          19.4847   70.7786   -3.3681 C.3     1  UNL1        0.1764
     12 C          18.0480   70.8962   -5.2213 C.3     1  UNL1        0.2383
     13 H          16.5702   69.8655   -2.2782 H       1  UNL1        0.2105
     14 H          16.4995   68.1887   -4.2082 H       1  UNL1        0.2106
     15 O          16.1223   70.4698   -7.2431 O.2     1  UNL1       -0.2464
     16 O          19.3180   70.5688  -10.5626 O.2     1  UNL1       -0.2670
     17 N          18.3490   70.8067   -6.6223 N.ar    1  UNL1       -0.2551
     18 N          17.7151   70.5196   -8.8943 N.ar    1  UNL1       -0.2743
     19 C          17.3087   70.5898   -7.5557 C.ar    1  UNL1        0.3323
     20 C          19.6634   70.9339   -7.0582 C.ar    1  UNL1        0.0869
     21 C          20.0345   70.8633   -8.3383 C.ar    1  UNL1        0.0795
     22 C          19.0087   70.6386   -9.3771 C.ar    1  UNL1        0.2626
     23 H          17.0075   70.3687   -9.5624 H       1  UNL1        0.1734
     24 O          23.1379   71.6885   -3.0428 O.3     1  UNL1       -0.2703
     25 P          22.8190   72.9328   -4.0242 P.3     1  UNL1        0.2208
     26 O          21.5274   73.6248   -3.3384 O.co2   1  UNL1       -0.4371
     27 O          22.6250   72.5481   -5.4624 O.2     1  UNL1       -0.5170
     28 O          24.0244   73.9750   -3.7674 O.3     1  UNL1       -0.2858
     29 O          23.8164   75.3438   -5.6908 O.3     1  UNL1       -0.3258
     30 O          20.4132   76.5225   -3.6709 O.3     1  UNL1       -0.3794
     31 O          20.1742   74.8728   -6.0096 O.3     1  UNL1       -0.3794
     32 O          22.8509   75.9883   -2.2040 O.3     1  UNL1       -0.3775
     33 C          21.4194   75.6022   -4.1022 C.3     1  UNL1        0.1715
     34 C          21.3801   75.5299   -5.6299 C.3     1  UNL1        0.1694
     35 C          22.7838   76.0933   -3.6220 C.3     1  UNL1        0.1967
     36 C          22.5968   74.7737   -6.1802 C.3     1  UNL1        0.1761
     37 C          23.9263   75.3063   -4.2666 C.3     1  UNL1        0.2704
     38 H          19.5443   76.2162   -3.9721 H       1  UNL1        0.2105
     39 H          19.4137   75.3600   -5.6555 H       1  UNL1        0.2105
     40 H          22.1226   76.4910   -1.8079 H       1  UNL1        0.2106
     41 O          22.9966   73.5365   -8.1848 O.3     1  UNL1       -0.3794
     42 C          22.6607   74.8254   -7.7051 C.3     1  UNL1        0.1693
     43 H          23.0405   73.5542   -9.1540 H       1  UNL1        0.2105
@<TRIPOS>UNITY_ATOM_ATTR
2 1
charge -1
26 1
charge -1
@<TRIPOS>BOND
     1    25    28    1
     2    25    24    1
     3    25    26    1
     4    25    27    2
     5     1     4    1
     6     1    24    1
     7     1     2    1
     8     1     3    2
     9     6    11    1
    10     6    12    1
    11    29    36    1
    12    29    37    1
    13     7     9    1
    14     7    13    1
    15     8    10    1
    16     8    14    1
    17    28    37    1
    18     4     5    1
    19    30    33    1
    20    30    38    1
    21    31    34    1
    22    31    39    1
    23    32    35    1
    24    32    40    1
    25    41    42    1
    26    41    43    1
    27    15    19    2
    28    16    22    2
    29    17    12    1
    30    17    19   ar
    31    17    20   ar
    32    18    19   ar
    33    18    22   ar
    34    18    23    1
    35     9    10    1
    36     9    11    1
    37    10    12    1
    38    11     5    1
    39    33    34    1
    40    33    35    1
    41    34    36    1
    42    35    37    1
    43    36    42    1
    44    20    21   ar
    45    21    22   ar
@<TRIPOS>MOLECULE
*****
 43 45 0 0 0
SMALL
GASTEIGER

@<TRIPOS>ATOM
      1 P          21.4118   75.1344   -3.5249 P.3     1  UNL1        0.2189
      2 O          22.9829   75.4387   -3.2868 O.co2   1  UNL1       -0.4371
      3 O          20.4770   76.1902   -3.0124 O.2     1  UNL1       -0.5170
      4 O          21.2052   73.6532   -2.9076 O.3     1  UNL1       -0.3112
      5 C          20.8600   73.5334   -1.5385 C.3     1  UNL1        0.1811
      6 O          20.1284   71.2530   -1.3433 O.3     1  UNL1       -0.3308
      7 O          23.0158   70.5584   -0.9296 O.3     1  UNL1       -0.3794
      8 O          22.6130   69.8933   -3.5434 O.3     1  UNL1       -0.3779
      9 C          22.4391   71.5526   -1.7748 C.3     1  UNL1        0.1713
     10 C          21.8005   70.9065   -2.9866 C.3     1  UNL1        0.1895
     11 C          21.2319   72.1388   -1.0536 C.3     1  UNL1        0.1764
     12 C          20.5043   70.3646   -2.4084 C.3     1  UNL1        0.2383
     13 H          23.7891   70.1697   -1.3688 H       1  UNL1        0.2105
     14 H          23.4251   70.2880   -3.8977 H       1  UNL1        0.2106
     15 O          18.4685   68.4077   -2.4703 O.2     1  UNL1       -0.2464
     16 O          16.4977   70.3120   -6.1758 O.2     1  UNL1       -0.2670
     17 N          19.4463   70.3253   -3.3781 N.ar    1  UNL1       -0.2551
     18 N          17.4887   69.3576   -4.3152 N.ar    1  UNL1       -0.2743
     19 C          18.4743   69.2993   -3.3215 C.ar    1  UNL1        0.3323
     20 C          19.3797   71.2967   -4.3709 C.ar    1  UNL1        0.0869
     21 C          18.4341   71.3375   -5.3119 C.ar    1  UNL1        0.0795
     22 C          17.3807   70.3020   -5.3237 C.ar    1  UNL1        0.2626
     23 H          16.8012   68.6529   -4.2958 H       1  UNL1        0.1734
     24 O          21.3287   74.8785   -5.1189 O.3     1  UNL1       -0.2703
     25 P          22.2953   74.0469   -6.1123 P.3     1  UNL1        0.2208
     26 O          23.1020   73.0659   -5.1100 O.co2   1  UNL1       -0.4371
     27 O          23.1721   74.9043   -6.9783 O.2     1  UNL1       -0.5170
     28 O          21.3013   73.0700   -6.9264 O.3     1  UNL1       -0.2858
     29 O          20.8845   71.9871   -8.9928 O.3     1  UNL1       -0.3258
     30 O          17.7332   74.6554   -8.9987 O.3     1  UNL1       -0.3794
     31 O          17.2278   71.8653   -8.5428 O.3     1  UNL1       -0.3794
     32 O          20.3177   75.4755   -7.9852 O.3     1  UNL1       -0.3775
     33 C          18.6814   73.7602   -8.4114 C.3     1  UNL1        0.1715
     34 C          18.4711   72.3722   -9.0197 C.3     1  UNL1        0.1694
     35 C          20.0928   74.2667   -8.7026 C.3     1  UNL1        0.1967
     36 C          19.6158   71.4225   -8.6417 C.3     1  UNL1        0.1761
     37 C          21.1530   73.2270   -8.3351 C.3     1  UNL1        0.2704
     38 H          16.8349   74.3398   -8.8171 H       1  UNL1        0.2105
     39 H          16.5136   72.4745   -8.7876 H       1  UNL1        0.2105
     40 H          19.6403   76.1256   -8.2268 H       1  UNL1        0.2106
     41 O          18.6375   70.2353  -10.4699 O.3     1  UNL1       -0.3794
     42 C          19.5088   70.0816   -9.3646 C.3     1  UNL1        0.1693
     43 H          18.5601   69.3897  -10.9397 H       1  UNL1        0.2105
@<TRIPOS>UNITY_ATOM_ATTR
2 1
charge -1
26 1
charge -1
@<TRIPOS>BOND
     1    25    28    1
     2    25    24    1
     3    25    26    1
     4    25    27    2
     5     1     4    1
     6     1    24    1
     7     1     2    1
     8     1     3    2
     9     6    11    1
    10     6    12    1
    11    29    36    1
    12    29    37    1
    13     7     9    1
    14     7    13    1
    15     8    10    1
    16     8    14    1
    17    28    37    1
    18     4     5    1
    19    30    33    1
    20    30    38    1
    21    31    34    1
    22    31    39    1
    23    32    35    1
    24    32    40    1
    25    41    42    1
    26    41    43    1
    27    15    19    2
    28    16    22    2
    29    17    12    1
    30    17    19   ar
    31    17    20   ar
    32    18    19   ar
    33    18    22   ar
    34    18    23    1
    35     9    10    1
    36     9    11    1
    37    10    12    1
    38    11     5    1
    39    33    34    1
    40    33    35    1
    41    34    36    1
    42    35    37    1
    43    36    42    1
    44    20    21   ar
    45    21    22   ar
@<TRIPOS>MOLECULE
*****
 43 45 0 0 0
SMALL
GASTEIGER

@<TRIPOS>ATOM
      1 P          22.4028   73.3890   -5.2132 P.3     1  UNL1        0.2189
      2 O          22.8697   74.7766   -5.9016 O.co2   1  UNL1       -0.4371
      3 O          23.5040   72.5992   -4.5690 O.2     1  UNL1       -0.5170
      4 O          21.5864   72.6293   -6.3854 O.3     1  UNL1       -0.3112
      5 C          20.8648   73.4102   -7.3221 C.3     1  UNL1        0.1811
      6 O          20.0775   71.1819   -7.7568 O.3     1  UNL1       -0.3308
      7 O          18.5731   72.3648  -10.0652 O.3     1  UNL1       -0.3794
      8 O          16.6337   72.0958   -8.1670 O.3     1  UNL1       -0.3779
      9 C          18.8366   72.9230   -8.7789 C.3     1  UNL1        0.1713
     10 C          17.9675   72.2607   -7.7303 C.3     1  UNL1        0.1895
     11 C          20.2338   72.4871   -8.3556 C.3     1  UNL1        0.1764
     12 C          18.6817   70.9365   -7.5196 C.3     1  UNL1        0.2383
     13 H          17.6862   72.6298  -10.3569 H       1  UNL1        0.2105
     14 H          16.2226   72.9661   -8.2865 H       1  UNL1        0.2106
     15 O          16.3172   69.7346   -6.5487 O.2     1  UNL1       -0.2464
     16 O          18.1640   69.0375   -2.3839 O.2     1  UNL1       -0.2670
     17 N          18.5171   70.4316   -6.1857 N.ar    1  UNL1       -0.2551
     18 N          17.2387   69.3883   -4.4758 N.ar    1  UNL1       -0.2743
     19 C          17.2888   69.8473   -5.7982 C.ar    1  UNL1        0.3323
     20 C          19.5667   70.5182   -5.2775 C.ar    1  UNL1        0.0869
     21 C          19.5025   70.0770   -4.0196 C.ar    1  UNL1        0.0795
     22 C          18.2544   69.4529   -3.5351 C.ar    1  UNL1        0.2626
     23 H          16.3927   68.9778   -4.1834 H       1  UNL1        0.1734
     24 O          21.2329   73.8604   -4.2023 O.3     1  UNL1       -0.2703
     25 P          21.3039   74.4691   -2.7065 P.3     1  UNL1        0.2208
     26 O          19.8268   75.0924   -2.4890 O.co2   1  UNL1       -0.4371
     27 O          22.4252   75.4440   -2.4915 O.2     1  UNL1       -0.5170
     28 O          21.3471   73.1764   -1.7411 O.3     1  UNL1       -0.2858
     29 O          22.9584   73.4871   -0.0312 O.3     1  UNL1       -0.3258
     30 O          21.9871   69.5385    0.6870 O.3     1  UNL1       -0.3794
     31 O          21.0880   71.5729    2.5039 O.3     1  UNL1       -0.3794
     32 O          22.1680   70.5090   -2.0342 O.3     1  UNL1       -0.3775
     33 C          21.7356   70.8932    0.3039 C.3     1  UNL1        0.1715
     34 C          22.0668   71.7972    1.4930 C.3     1  UNL1        0.1694
     35 C          22.6113   71.2430   -0.8978 C.3     1  UNL1        0.1967
     36 C          22.0785   73.2749    1.0790 C.3     1  UNL1        0.1761
     37 C          22.5901   72.7435   -1.1945 C.3     1  UNL1        0.2704
     38 H          21.4338   69.3099    1.4493 H       1  UNL1        0.2105
     39 H          21.0906   70.6360    2.7559 H       1  UNL1        0.2105
     40 H          22.1864   69.5607   -1.8337 H       1  UNL1        0.2106
     41 O          23.8672   74.6294    1.9006 O.3     1  UNL1       -0.3794
     42 C          22.5601   74.1817    2.2095 C.3     1  UNL1        0.1693
     43 H          24.1865   75.2079    2.6113 H       1  UNL1        0.2105
@<TRIPOS>UNITY_ATOM_ATTR
2 1
charge -1
26 1
charge -1
@<TRIPOS>BOND
     1    25    28    1
     2    25    24    1
     3    25    26    1
     4    25    27    2
     5     1     4    1
     6     1    24    1
     7     1     2    1
     8     1     3    2
     9     6    11    1
    10     6    12    1
    11    29    36    1
    12    29    37    1
    13     7     9    1
    14     7    13    1
    15     8    10    1
    16     8    14    1
    17    28    37    1
    18     4     5    1
    19    30    33    1
    20    30    38    1
    21    31    34    1
    22    31    39    1
    23    32    35    1
    24    32    40    1
    25    41    42    1
    26    41    43    1
    27    15    19    2
    28    16    22    2
    29    17    12    1
    30    17    19   ar
    31    17    20   ar
    32    18    19   ar
    33    18    22   ar
    34    18    23    1
    35     9    10    1
    36     9    11    1
    37    10    12    1
    38    11     5    1
    39    33    34    1
    40    33    35    1
    41    34    36    1
    42    35    37    1
    43    36    42    1
    44    20    21   ar
    45    21    22   ar
@<TRIPOS>MOLECULE
*****
 43 45 0 0 0
SMALL
GASTEIGER

@<TRIPOS>ATOM
      1 P          19.4231   74.0268   -4.7265 P.3     1  UNL1        0.2189
      2 O          19.2979   75.2241   -3.6456 O.co2   1  UNL1       -0.4371
      3 O          19.5789   74.4725   -6.1507 O.2     1  UNL1       -0.5170
      4 O          18.1396   73.0906   -4.4196 O.3     1  UNL1       -0.3112
      5 C          17.9005   72.6884   -3.0822 C.3     1  UNL1        0.1811
      6 O          17.0253   70.8770   -4.3962 O.3     1  UNL1       -0.3308
      7 O          18.0842   69.0614   -2.2577 O.3     1  UNL1       -0.3794
      8 O          19.9754   68.8459   -4.2104 O.3     1  UNL1       -0.3779
      9 C          18.6373   70.2736   -2.7674 C.3     1  UNL1        0.1713
     10 C          19.2295   70.0442   -4.1422 C.3     1  UNL1        0.1895
     11 C          17.4856   71.2235   -3.0717 C.3     1  UNL1        0.1764
     12 C          17.9887   70.0111   -5.0182 C.3     1  UNL1        0.2383
     13 H          18.8009   68.4390   -2.0556 H       1  UNL1        0.2105
     14 H          20.7541   68.9165   -3.6364 H       1  UNL1        0.2106
     15 O          16.0486   70.1421   -7.0668 O.2     1  UNL1       -0.2464
     16 O          19.0903   71.8283  -10.0911 O.2     1  UNL1       -0.2670
     17 N          18.2461   70.4807   -6.3504 N.ar    1  UNL1       -0.2551
     18 N          17.5647   70.9817   -8.5710 N.ar    1  UNL1       -0.2743
     19 C          17.2024   70.5051   -7.3046 C.ar    1  UNL1        0.3323
     20 C          19.5218   70.9108   -6.6992 C.ar    1  UNL1        0.0869
     21 C          19.8512   71.3612   -7.9115 C.ar    1  UNL1        0.0795
     22 C          18.8188   71.4192   -8.9665 C.ar    1  UNL1        0.2626
     23 H          16.8539   71.0075   -9.2521 H       1  UNL1        0.1734
     24 O          20.6564   73.1506   -4.1570 O.3     1  UNL1       -0.2703
     25 P          22.1743   73.5675   -3.7897 P.3     1  UNL1        0.2208
     26 O          22.1526   75.1815   -3.8990 O.co2   1  UNL1       -0.4371
     27 O          23.2179   72.9032   -4.6404 O.2     1  UNL1       -0.5170
     28 O          22.3093   73.2677   -2.2096 O.3     1  UNL1       -0.2858
     29 O          21.5101   71.5240   -0.8177 O.3     1  UNL1       -0.3258
     30 O          20.8062   74.7365    1.6793 O.3     1  UNL1       -0.3794
     31 O          22.9477   72.9187    2.2769 O.3     1  UNL1       -0.3794
     32 O          20.3590   74.9964   -1.1689 O.3     1  UNL1       -0.3775
     33 C          21.5145   73.9874    0.6881 C.3     1  UNL1        0.1715
     34 C          21.9383   72.6539    1.3068 C.3     1  UNL1        0.1694
     35 C          20.5983   73.7562   -0.5121 C.3     1  UNL1        0.1967
     36 C          22.4659   71.6893    0.2362 C.3     1  UNL1        0.1761
     37 C          21.1951   72.7440   -1.4916 C.3     1  UNL1        0.2704
     38 H          21.3825   74.8872    2.4439 H       1  UNL1        0.2105
     39 H          22.6019   73.5293    2.9468 H       1  UNL1        0.2105
     40 H          19.9810   75.6284   -0.5384 H       1  UNL1        0.2106
     41 O          21.6297   69.4718    0.5400 O.3     1  UNL1       -0.3794
     42 C          22.7463   70.3004    0.8059 C.3     1  UNL1        0.1693
     43 H          21.7941   68.5844    0.8967 H       1  UNL1        0.2105
@<TRIPOS>UNITY_ATOM_ATTR
2 1
charge -1
26 1
charge -1
@<TRIPOS>BOND
     1    25    28    1
     2    25    24    1
     3    25    26    1
     4    25    27    2
     5     1     4    1
     6     1    24    1
     7     1     2    1
     8     1     3    2
     9     6    11    1
    10     6    12    1
    11    29    36    1
    12    29    37    1
    13     7     9    1
    14     7    13    1
    15     8    10    1
    16     8    14    1
    17    28    37    1
    18     4     5    1
    19    30    33    1
    20    30    38    1
    21    31    34    1
    22    31    39    1
    23    32    35    1
    24    32    40    1
    25    41    42    1
    26    41    43    1
    27    15    19    2
    28    16    22    2
    29    17    12    1
    30    17    19   ar
    31    17    20   ar
    32    18    19   ar
    33    18    22   ar
    34    18    23    1
    35     9    10    1
    36     9    11    1
    37    10    12    1
    38    11     5    1
    39    33    34    1
    40    33    35    1
    41    34    36    1
    42    35    37    1
    43    36    42    1
    44    20    21   ar
    45    21    22   ar
@<TRIPOS>MOLECULE
*****
 43 45 0 0 0
SMALL
GASTEIGER

@<TRIPOS>ATOM
      1 P          19.7513   74.0211   -1.1493 P.3     1  UNL1        0.2189
      2 O          18.4492   74.9304   -0.8409 O.co2   1  UNL1       -0.4371
      3 O          20.7385   74.6300   -2.1012 O.2     1  UNL1       -0.5170
      4 O          19.1319   72.5948   -1.5965 O.3     1  UNL1       -0.3112
      5 C          18.0183   72.5861   -2.4726 C.3     1  UNL1        0.1811
      6 O          17.0073   71.0754   -4.0441 O.3     1  UNL1       -0.3308
      7 O          18.2687   68.8705   -2.4509 O.3     1  UNL1       -0.3794
      8 O          19.9523   69.1010   -4.5837 O.3     1  UNL1       -0.3779
      9 C          18.7728   70.1719   -2.7471 C.3     1  UNL1        0.1713
     10 C          19.2223   70.2455   -4.1914 C.3     1  UNL1        0.1895
     11 C          17.6003   71.1447   -2.7288 C.3     1  UNL1        0.1764
     12 C          17.8993   70.3755   -4.9269 C.3     1  UNL1        0.2383
     13 H          18.9994   68.2319   -2.4565 H       1  UNL1        0.2105
     14 H          20.7852   69.0630   -4.0881 H       1  UNL1        0.2106
     15 O          16.1256   70.1552   -7.1140 O.2     1  UNL1       -0.2464
     16 O          18.4730   73.2720   -9.5670 O.2     1  UNL1       -0.2670
     17 N          18.0230   71.1180   -6.1495 N.ar    1  UNL1       -0.2551
     18 N          17.2958   71.7074   -8.3336 N.ar    1  UNL1       -0.2743
     19 C          17.0795   70.9327   -7.1868 C.ar    1  UNL1        0.3323
     20 C          19.0707   72.0181   -6.3106 C.ar    1  UNL1        0.0869
     21 C          19.2636   72.7484   -7.4110 C.ar    1  UNL1        0.0795
     22 C          18.3227   72.6145   -8.5418 C.ar    1  UNL1        0.2626
     23 H          16.6512   71.5948   -9.0695 H       1  UNL1        0.1734
     24 O          20.3389   73.7158    0.3253 O.3     1  UNL1       -0.2703
     25 P          21.5983   72.8214    0.8019 P.3     1  UNL1        0.2208
     26 O          22.6480   72.9781   -0.4192 O.co2   1  UNL1       -0.4371
     27 O          21.2508   71.4009    1.1415 O.2     1  UNL1       -0.5170
     28 O          22.2569   73.6572    2.0154 O.3     1  UNL1       -0.2858
     29 O          24.0414   73.4716    3.5639 O.3     1  UNL1       -0.3258
     30 O          20.9558   74.2314    6.2008 O.3     1  UNL1       -0.3794
     31 O          22.9071   76.2722    5.6757 O.3     1  UNL1       -0.3794
     32 O          20.5029   72.5370    3.8979 O.3     1  UNL1       -0.3775
     33 C          21.6766   74.3460    4.9709 C.3     1  UNL1        0.1715
     34 C          23.0640   74.9126    5.2792 C.3     1  UNL1        0.1694
     35 C          21.7906   72.9647    4.3286 C.3     1  UNL1        0.1967
     36 C          23.9862   74.8156    4.0564 C.3     1  UNL1        0.1761
     37 C          22.7691   72.9676    3.1527 C.3     1  UNL1        0.2704
     38 H          20.8795   75.1050    6.6136 H       1  UNL1        0.2105
     39 H          22.3223   76.3195    6.4483 H       1  UNL1        0.2105
     40 H          19.8928   72.5392    4.6513 H       1  UNL1        0.2106
     41 O          26.0188   74.1994    5.1507 O.3     1  UNL1       -0.3794
     42 C          25.4188   75.2289    4.3863 C.3     1  UNL1        0.1693
     43 H          26.9313   74.4486    5.3678 H       1  UNL1        0.2105
@<TRIPOS>UNITY_ATOM_ATTR
2 1
charge -1
26 1
charge -1
@<TRIPOS>BOND
     1    25    28    1
     2    25    24    1
     3    25    26    1
     4    25    27    2
     5     1     4    1
     6     1    24    1
     7     1     2    1
     8     1     3    2
     9     6    11    1
    10     6    12    1
    11    29    36    1
    12    29    37    1
    13     7     9    1
    14     7    13    1
    15     8    10    1
    16     8    14    1
    17    28    37    1
    18     4     5    1
    19    30    33    1
    20    30    38    1
    21    31    34    1
    22    31    39    1
    23    32    35    1
    24    32    40    1
    25    41    42    1
    26    41    43    1
    27    15    19    2
    28    16    22    2
    29    17    12    1
    30    17    19   ar
    31    17    20   ar
    32    18    19   ar
    33    18    22   ar
    34    18    23    1
    35     9    10    1
    36     9    11    1
    37    10    12    1
    38    11     5    1
    39    33    34    1
    40    33    35    1
    41    34    36    1
    42    35    37    1
    43    36    42    1
    44    20    21   ar
    45    21    22   ar
@<TRIPOS>MOLECULE
*****
 43 45 0 0 0
SMALL
GASTEIGER

@<TRIPOS>ATOM
      1 P          20.0062   70.2008   -2.5597 P.3     1  UNL1        0.2189
      2 O          21.3074   69.5830   -3.2964 O.co2   1  UNL1       -0.4371
      3 O          18.9717   69.1938   -2.1506 O.2     1  UNL1       -0.5170
      4 O          19.4995   71.3573   -3.5715 O.3     1  UNL1       -0.3112
      5 C          20.2245   71.5725   -4.7697 C.3     1  UNL1        0.1811
      6 O          18.1324   70.9033   -5.7441 O.3     1  UNL1       -0.3308
      7 O          19.6992   70.2878   -8.2255 O.3     1  UNL1       -0.3794
      8 O          18.5785   72.7033   -8.8139 O.3     1  UNL1       -0.3779
      9 C          19.8831   71.3405   -7.2803 C.3     1  UNL1        0.1713
     10 C          18.8118   72.3966   -7.4544 C.3     1  UNL1        0.1895
     11 C          19.5643   70.7892   -5.8961 C.3     1  UNL1        0.1764
     12 C          17.6131   71.7423   -6.7887 C.3     1  UNL1        0.2383
     13 H          19.8973   70.6159   -9.1172 H       1  UNL1        0.2105
     14 H          19.3697   73.1175   -9.1924 H       1  UNL1        0.2106
     15 O          15.5240   73.0193   -8.1968 O.2     1  UNL1       -0.2464
     16 O          14.2305   75.4104   -4.4751 O.2     1  UNL1       -0.2670
     17 N          16.7149   72.7026   -6.2122 N.ar    1  UNL1       -0.2551
     18 N          14.8815   74.2087   -6.3425 N.ar    1  UNL1       -0.2743
     19 C          15.7001   73.2860   -7.0062 C.ar    1  UNL1        0.3323
     20 C          16.8448   73.0566   -4.8737 C.ar    1  UNL1        0.0869
     21 C          16.0568   73.9392   -4.2560 C.ar    1  UNL1        0.0795
     22 C          14.9717   74.5945   -5.0144 C.ar    1  UNL1        0.2626
     23 H          14.1679   74.6283   -6.8758 H       1  UNL1        0.1734
     24 O          20.6461   71.0426   -1.3370 O.3     1  UNL1       -0.2703
     25 P          21.8388   70.6798   -0.3081 P.3     1  UNL1        0.2208
     26 O          23.1368   70.5716   -1.2678 O.co2   1  UNL1       -0.4371
     27 O          21.5818   69.4581    0.5259 O.2     1  UNL1       -0.5170
     28 O          22.0714   72.0325    0.5411 O.3     1  UNL1       -0.2858
     29 O          21.4050   72.5525    2.7552 O.3     1  UNL1       -0.3258
     30 O          20.9495   76.2794    1.0365 O.3     1  UNL1       -0.3794
     31 O          23.1346   75.8068    2.8393 O.3     1  UNL1       -0.3794
     32 O          20.2329   73.9042   -0.4550 O.3     1  UNL1       -0.3775
     33 C          21.5584   75.0000    1.2313 C.3     1  UNL1        0.1715
     34 C          22.0365   74.9125    2.6820 C.3     1  UNL1        0.1694
     35 C          20.5312   73.9084    0.9370 C.3     1  UNL1        0.1967
     36 C          22.4575   73.4811    3.0411 C.3     1  UNL1        0.1761
     37 C          21.0296   72.5305    1.3766 C.3     1  UNL1        0.2704
     38 H          21.5966   76.9770    1.2213 H       1  UNL1        0.2105
     39 H          22.8556   76.7070    2.6090 H       1  UNL1        0.2105
     40 H          19.9182   74.7818   -0.7207 H       1  UNL1        0.2106
     41 O          21.8179   72.4971    5.1224 O.3     1  UNL1       -0.3794
     42 C          22.7882   73.3374    4.5251 C.3     1  UNL1        0.1693
     43 H          22.0159   72.3963    6.0670 H       1  UNL1        0.2105
@<TRIPOS>UNITY_ATOM_ATTR
2 1
charge -1
26 1
charge -1
@<TRIPOS>BOND
     1    25    28    1
     2    25    24    1
     3    25    26    1
     4    25    27    2
     5     1     4    1
     6     1    24    1
     7     1     2    1
     8     1     3    2
     9     6    11    1
    10     6    12    1
    11    29    36    1
    12    29    37    1
    13     7     9    1
    14     7    13    1
    15     8    10    1
    16     8    14    1
    17    28    37    1
    18     4     5    1
    19    30    33    1
    20    30    38    1
    21    31    34    1
    22    31    39    1
    23    32    35    1
    24    32    40    1
    25    41    42    1
    26    41    43    1
    27    15    19    2
    28    16    22    2
    29    17    12    1
    30    17    19   ar
    31    17    20   ar
    32    18    19   ar
    33    18    22   ar
    34    18    23    1
    35     9    10    1
    36     9    11    1
    37    10    12    1
    38    11     5    1
    39    33    34    1
    40    33    35    1
    41    34    36    1
    42    35    37    1
    43    36    42    1
    44    20    21   ar
    45    21    22   ar
@<TRIPOS>MOLECULE
*****
 43 45 0 0 0
SMALL
GASTEIGER

@<TRIPOS>ATOM
      1 P          22.1072   75.6389   -6.6598 P.3     1  UNL1        0.2189
      2 O          21.3692   77.0766   -6.7355 O.co2   1  UNL1       -0.4371
      3 O          23.6029   75.6876   -6.7697 O.2     1  UNL1       -0.5170
      4 O          21.3488   74.7534   -7.7817 O.3     1  UNL1       -0.3112
      5 C          20.0143   74.3466   -7.5335 C.3     1  UNL1        0.1811
      6 O          19.6805   72.0325   -8.0878 O.3     1  UNL1       -0.3308
      7 O          17.9901   73.0145  -10.3613 O.3     1  UNL1       -0.3794
      8 O          16.1275   72.2776   -8.5108 O.3     1  UNL1       -0.3779
      9 C          18.1305   73.5477   -9.0456 C.3     1  UNL1        0.1713
     10 C          17.4003   72.6769   -8.0446 C.3     1  UNL1        0.1895
     11 C          19.5830   73.3715   -8.6204 C.3     1  UNL1        0.1764
     12 C          18.3579   71.5082   -7.8859 C.3     1  UNL1        0.2383
     13 H          17.0705   73.1159  -10.6547 H       1  UNL1        0.2105
     14 H          15.5551   73.0560   -8.5952 H       1  UNL1        0.2106
     15 O          16.1873   69.9590   -6.9551 O.2     1  UNL1       -0.2464
     16 O          18.1897   69.2814   -2.8597 O.2     1  UNL1       -0.2670
     17 N          18.2859   70.9144   -6.5807 N.ar    1  UNL1       -0.2551
     18 N          17.1862   69.6227   -4.9168 N.ar    1  UNL1       -0.2743
     19 C          17.1508   70.1556   -6.2117 C.ar    1  UNL1        0.3323
     20 C          19.3333   71.0867   -5.6822 C.ar    1  UNL1        0.0869
     21 C          19.3511   70.5730   -4.4505 C.ar    1  UNL1        0.0795
     22 C          18.2034   69.7671   -3.9866 C.ar    1  UNL1        0.2626
     23 H          16.4059   69.0908   -4.6376 H       1  UNL1        0.1734
     24 O          21.5544   75.0192   -5.2729 O.3     1  UNL1       -0.2703
     25 P          21.5900   75.5965   -3.7635 P.3     1  UNL1        0.2208
     26 O          20.0778   76.1232   -3.5320 O.co2   1  UNL1       -0.4371
     27 O          22.6499   76.6328   -3.5258 O.2     1  UNL1       -0.5170
     28 O          21.7131   74.2870   -2.8281 O.3     1  UNL1       -0.2858
     29 O          22.9301   73.6266   -0.9047 O.3     1  UNL1       -0.3258
     30 O          23.6433   70.3381   -3.2980 O.3     1  UNL1       -0.3794
     31 O          21.8594   70.1026   -1.0596 O.3     1  UNL1       -0.3794
     32 O          23.5869   72.9872   -4.4635 O.3     1  UNL1       -0.3775
     33 C          22.8774   71.4256   -2.7725 C.3     1  UNL1        0.1715
     34 C          22.7218   71.2182   -1.2647 C.3     1  UNL1        0.1694
     35 C          23.6071   72.7360   -3.0625 C.3     1  UNL1        0.1967
     36 C          22.1457   72.4702   -0.5898 C.3     1  UNL1        0.1761
     37 C          22.9837   73.9093   -2.3044 C.3     1  UNL1        0.2704
     38 H          23.1852   69.5031   -3.1176 H       1  UNL1        0.2105
     39 H          22.2344   69.3188   -1.4911 H       1  UNL1        0.2105
     40 H          23.9845   72.2374   -4.9321 H       1  UNL1        0.2106
     41 O          21.2232   71.3150    1.2873 O.3     1  UNL1       -0.3794
     42 C          22.1291   72.3433    0.9320 C.3     1  UNL1        0.1693
     43 H          21.2025   71.2227    2.2531 H       1  UNL1        0.2105
@<TRIPOS>UNITY_ATOM_ATTR
2 1
charge -1
26 1
charge -1
@<TRIPOS>BOND
     1    25    28    1
     2    25    24    1
     3    25    26    1
     4    25    27    2
     5     1     4    1
     6     1    24    1
     7     1     2    1
     8     1     3    2
     9     6    11    1
    10     6    12    1
    11    29    36    1
    12    29    37    1
    13     7     9    1
    14     7    13    1
    15     8    10    1
    16     8    14    1
    17    28    37    1
    18     4     5    1
    19    30    33    1
    20    30    38    1
    21    31    34    1
    22    31    39    1
    23    32    35    1
    24    32    40    1
    25    41    42    1
    26    41    43    1
    27    15    19    2
    28    16    22    2
    29    17    12    1
    30    17    19   ar
    31    17    20   ar
    32    18    19   ar
    33    18    22   ar
    34    18    23    1
    35     9    10    1
    36     9    11    1
    37    10    12    1
    38    11     5    1
    39    33    34    1
    40    33    35    1
    41    34    36    1
    42    35    37    1
    43    36    42    1
    44    20    21   ar
    45    21    22   ar
