@<TRIPOS>MOLECULE
UD2
 46 48 0 0 0
SMALL
GASTEIGER

@<TRIPOS>ATOM
      1 P          20.7279   71.0329   -3.2767 P.3     1  UNL1        0.2189
      2 O          20.8982   70.4514   -1.7853 O.3     1  UNL1       -0.4371
      3 O          20.7081   69.9136   -4.2440 O.2     1  UNL1       -0.5170
      4 O          19.3462   71.8541   -3.3778 O.3     1  UNL1       -0.3112
      5 C          18.1805   71.5093   -2.6270 C.3     1  UNL1        0.1811
      6 C          16.8427   70.5105   -5.8129 C.3     1  UNL1        0.2383
      7 C          17.1193   69.1780   -5.0713 C.3     1  UNL1        0.1895
      8 O          16.1916   68.1683   -5.4735 O.3     1  UNL1       -0.3779
      9 C          16.8950   69.5764   -3.5919 C.3     1  UNL1        0.1713
     10 C          17.0567   71.1085   -3.5860 C.3     1  UNL1        0.1764
     11 O          17.3906   71.5087   -4.9246 O.3     1  UNL1       -0.3308
     12 O          15.5802   69.2101   -3.1704 O.3     1  UNL1       -0.3794
     13 H          16.3242   67.3158   -5.0374 H       1  UNL1        0.2106
     14 H          15.4036   68.2605   -3.2106 H       1  UNL1        0.2105
     15 N          17.5323   70.5346   -7.1047 N.ar    1  UNL1       -0.2551
     16 C          16.8157   70.5341   -8.2428 C.ar    1  UNL1        0.3323
     17 N          17.4231   70.5558   -9.4440 N.ar    1  UNL1       -0.2743
     18 C          18.7690   70.5804   -9.5236 C.ar    1  UNL1        0.2626
     19 C          19.5358   70.5823   -8.3336 C.ar    1  UNL1        0.0795
     20 C          18.9004   70.5645   -7.1430 C.ar    1  UNL1        0.0869
     21 O          15.6013   70.5123   -8.1861 O.2     1  UNL1       -0.2464
     22 O          19.3200   70.6004  -10.6101 O.2     1  UNL1       -0.2670
     23 H          16.8913   70.5538  -10.2547 H       1  UNL1        0.1734
     24 O          21.9599   72.0132   -3.6149 O.3     1  UNL1       -0.2703
     25 P          23.4789   72.1210   -3.0914 P.3     1  UNL1        0.2208
     26 O          24.1161   70.6455   -2.9872 O.3     1  UNL1       -0.4371
     27 O          24.2713   72.9340   -4.0398 O.2     1  UNL1       -0.5170
     28 O          23.4981   72.8180   -1.6401 O.3     1  UNL1       -0.2865
     29 C          22.6244   72.4298   -0.5784 C.3     1  UNL1        0.2611
     30 C          22.0634   73.6793    0.1048 C.3     1  UNL1        0.1582
     31 C          23.2178   74.4760    0.7203 C.3     1  UNL1        0.1625
     32 C          23.9828   73.5758    1.6944 C.3     1  UNL1        0.1686
     33 C          24.4700   72.3300    0.9497 C.3     1  UNL1        0.1760
     34 O          22.6963   75.6060    1.4234 O.3     1  UNL1       -0.3801
     35 O          23.1190   73.1864    2.7637 O.3     1  UNL1       -0.3794
     36 O          23.3508   71.6521    0.3755 O.3     1  UNL1       -0.3263
     37 H          23.3736   76.1572    1.8387 H       1  UNL1        0.2105
     38 H          23.5385   72.6127    3.4201 H       1  UNL1        0.2105
     39 C          20.0259   74.4593   -0.9807 C.2     1  UNL1        0.2231
     40 C          19.3116   75.3109   -1.9971 C.3     1  UNL1        0.0946
     41 N          21.3692   74.5078   -0.8843 N.am    1  UNL1       -0.2994
     42 O          19.3920   73.7288   -0.2480 O.2     1  UNL1       -0.2751
     43 H          21.8765   75.0909   -1.4706 H       1  UNL1        0.1496
     44 C          25.1840   71.3970    1.9296 C.3     1  UNL1        0.1693
     45 O          24.6519   70.0765    1.8048 O.3     1  UNL1       -0.3794
     46 H          25.0589   69.4302    2.3979 H       1  UNL1        0.2105
@<TRIPOS>BOND
     1    29    30    1
     2    30    41    1
     3    30    31    1
     4    31    34    1
     5    31    32    1
     6    32    35    1
     7    32    33    1
     8    33    36    1
     9    33    44    1
    10    39    40    1
    11    39    42    2
    12    39    41   am
    13    41    43    1
    14    29    28    1
    15    34    37    1
    16    35    38    1
    17    29    36    1
    18    44    45    1
    19    45    46    1
    20    15     6    1
    21    15    16   ar
    22    16    21    2
    23    16    17   ar
    24    17    23    1
    25    17    18   ar
    26    18    19   ar
    27    19    20   ar
    28    15    20   ar
    29    18    22    2
    30     6     7    1
    31     6    11    1
    32     7     9    1
    33     7     8    1
    34     8    13    1
    35     9    10    1
    36     9    12    1
    37    10     5    1
    38    10    11    1
    39    12    14    1
    40     5     4    1
    41     4     1    1
    42     1     2    1
    43     1    24    1
    44     1     3    2
    45    24    25    1
    46    28    25    1
    47    25    26    1
    48    25    27    2
@<TRIPOS>MOLECULE
UD2
 46 48 0 0 0
SMALL
GASTEIGER

@<TRIPOS>ATOM
      1 P          20.9427   71.7135   -2.6759 P.3     1  UNL1        0.2189
      2 O          22.0874   70.8242   -3.3761 O.3     1  UNL1       -0.4371
      3 O          21.2663   73.1485   -2.8340 O.2     1  UNL1       -0.5170
      4 O          19.5230   71.4037   -3.3702 O.3     1  UNL1       -0.3112
      5 C          18.3236   71.1882   -2.6242 C.3     1  UNL1        0.1811
      6 C          16.8490   70.5183   -5.8357 C.3     1  UNL1        0.2383
      7 C          16.9333   69.1316   -5.1487 C.3     1  UNL1        0.1895
      8 O          15.8695   68.2820   -5.5824 O.3     1  UNL1       -0.3779
      9 C          16.7720   69.4991   -3.6532 C.3     1  UNL1        0.1713
     10 C          17.1518   70.9908   -3.5890 C.3     1  UNL1        0.1764
     11 O          17.5365   71.3918   -4.9136 O.3     1  UNL1       -0.3308
     12 O          15.4192   69.3085   -3.2358 O.3     1  UNL1       -0.3794
     13 H          15.8794   67.4026   -5.1809 H       1  UNL1        0.2106
     14 H          15.1082   68.3963   -3.3115 H       1  UNL1        0.2105
     15 N          17.5319   70.4946   -7.1311 N.ar    1  UNL1       -0.2551
     16 C          16.8109   70.5400   -8.2655 C.ar    1  UNL1        0.3323
     17 N          17.4121   70.5194   -9.4698 N.ar    1  UNL1       -0.2743
     18 C          18.7563   70.4544   -9.5563 C.ar    1  UNL1        0.2626
     19 C          19.5277   70.4072   -8.3703 C.ar    1  UNL1        0.0795
     20 C          18.8988   70.4334   -7.1764 C.ar    1  UNL1        0.0869
     21 O          15.5981   70.5990   -8.2025 O.2     1  UNL1       -0.2464
     22 O          19.3016   70.4361  -10.6457 O.2     1  UNL1       -0.2670
     23 H          16.8771   70.5516  -10.2778 H       1  UNL1        0.1734
     24 O          20.8637   71.3502   -1.1091 O.3     1  UNL1       -0.2703
     25 P          21.9577   71.2247    0.0659 P.3     1  UNL1        0.2208
     26 O          21.4909   70.0950    1.1146 O.3     1  UNL1       -0.4371
     27 O          23.2649   70.8477   -0.5150 O.2     1  UNL1       -0.5170
     28 O          22.0946   72.6382    0.8247 O.3     1  UNL1       -0.2865
     29 C          22.2582   72.7495    2.2397 C.3     1  UNL1        0.2611
     30 C          22.4985   74.2143    2.6128 C.3     1  UNL1        0.1582
     31 C          23.7965   74.6934    1.9555 C.3     1  UNL1        0.1625
     32 C          24.9464   73.7851    2.3994 C.3     1  UNL1        0.1686
     33 C          24.6117   72.3365    2.0343 C.3     1  UNL1        0.1760
     34 O          24.0672   76.0380    2.3579 O.3     1  UNL1       -0.3801
     35 O          25.1222   73.8935    3.8132 O.3     1  UNL1       -0.3794
     36 O          23.3784   71.9639    2.6525 O.3     1  UNL1       -0.3263
     37 H          24.8763   76.4067    1.9775 H       1  UNL1        0.2105
     38 H          25.8357   73.3429    4.1649 H       1  UNL1        0.2105
     39 C          20.5038   75.5537    3.0188 C.2     1  UNL1        0.2231
     40 C          19.3523   76.3931    2.5307 C.3     1  UNL1        0.0946
     41 N          21.3786   75.0305    2.1373 N.am    1  UNL1       -0.2994
     42 O          20.6443   75.3482    4.2063 O.2     1  UNL1       -0.2751
     43 H          21.2661   75.1938    1.1877 H       1  UNL1        0.1496
     44 C          25.7287   71.4152    2.5280 C.3     1  UNL1        0.1693
     45 O          25.2350   70.0778    2.6277 O.3     1  UNL1       -0.3794
     46 H          25.8911   69.4377    2.9357 H       1  UNL1        0.2105
@<TRIPOS>BOND
     1    29    30    1
     2    30    41    1
     3    30    31    1
     4    31    34    1
     5    31    32    1
     6    32    35    1
     7    32    33    1
     8    33    36    1
     9    33    44    1
    10    39    40    1
    11    39    42    2
    12    39    41   am
    13    41    43    1
    14    29    28    1
    15    34    37    1
    16    35    38    1
    17    29    36    1
    18    44    45    1
    19    45    46    1
    20    15     6    1
    21    15    16   ar
    22    16    21    2
    23    16    17   ar
    24    17    23    1
    25    17    18   ar
    26    18    19   ar
    27    19    20   ar
    28    15    20   ar
    29    18    22    2
    30     6     7    1
    31     6    11    1
    32     7     9    1
    33     7     8    1
    34     8    13    1
    35     9    10    1
    36     9    12    1
    37    10     5    1
    38    10    11    1
    39    12    14    1
    40     5     4    1
    41     4     1    1
    42     1     2    1
    43     1    24    1
    44     1     3    2
    45    24    25    1
    46    28    25    1
    47    25    26    1
    48    25    27    2
@<TRIPOS>MOLECULE
UD2
 46 48 0 0 0
SMALL
GASTEIGER

@<TRIPOS>ATOM
      1 P          21.2761   71.5968   -2.6570 P.3     1  UNL1        0.2189
      2 O          22.4602   71.4474   -3.7373 O.3     1  UNL1       -0.4371
      3 O          20.9967   73.0312   -2.4257 O.2     1  UNL1       -0.5170
      4 O          19.9485   70.8742   -3.2127 O.3     1  UNL1       -0.3112
      5 C          18.7680   70.7058   -2.4257 C.3     1  UNL1        0.1811
      6 C          17.0862   70.5047   -5.5987 C.3     1  UNL1        0.2383
      7 C          17.0475   69.0577   -5.0447 C.3     1  UNL1        0.1895
      8 O          15.8780   68.3706   -5.4940 O.3     1  UNL1       -0.3779
      9 C          16.9948   69.2961   -3.5157 C.3     1  UNL1        0.1713
     10 C          17.5395   70.7263   -3.3386 C.3     1  UNL1        0.1764
     11 O          17.9065   71.2087   -4.6410 O.3     1  UNL1       -0.3308
     12 O          15.6493   69.2108   -3.0435 O.3     1  UNL1       -0.3794
     13 H          15.8087   67.4609   -5.1743 H       1  UNL1        0.2106
     14 H          15.2364   68.3481   -3.1837 H       1  UNL1        0.2105
     15 N          17.7037   70.5323   -6.9264 N.ar    1  UNL1       -0.2551
     16 C          16.9272   70.4864   -8.0236 C.ar    1  UNL1        0.3323
     17 N          17.4676   70.5101   -9.2563 N.ar    1  UNL1       -0.2743
     18 C          18.8054   70.5826   -9.4096 C.ar    1  UNL1        0.2626
     19 C          19.6347   70.6326   -8.2634 C.ar    1  UNL1        0.0795
     20 C          19.0657   70.6115   -7.0398 C.ar    1  UNL1        0.0869
     21 O          15.7193   70.4211   -7.9004 O.2     1  UNL1       -0.2464
     22 O          19.2958   70.6045  -10.5248 O.2     1  UNL1       -0.2670
     23 H          16.8933   70.4751  -10.0367 H       1  UNL1        0.1734
     24 O          21.7224   70.9065   -1.2723 O.3     1  UNL1       -0.2703
     25 P          21.5893   71.3220    0.2778 P.3     1  UNL1        0.2208
     26 O          20.1794   72.0635    0.5149 O.3     1  UNL1       -0.4371
     27 O          21.6559   70.1087    1.1215 O.2     1  UNL1       -0.5170
     28 O          22.7924   72.3170    0.6718 O.3     1  UNL1       -0.2865
     29 C          22.5779   73.6389    1.1697 C.3     1  UNL1        0.2611
     30 C          23.8874   74.4286    1.1040 C.3     1  UNL1        0.1582
     31 C          24.9258   73.7546    2.0061 C.3     1  UNL1        0.1625
     32 C          24.3704   73.6691    3.4304 C.3     1  UNL1        0.1686
     33 C          23.0419   72.9084    3.4063 C.3     1  UNL1        0.1760
     34 O          26.1289   74.5266    2.0082 O.3     1  UNL1       -0.3801
     35 O          24.1576   74.9868    3.9400 O.3     1  UNL1       -0.3794
     36 O          22.1318   73.5701    2.5256 O.3     1  UNL1       -0.3263
     37 H          26.8320   74.1568    2.5598 H       1  UNL1        0.2105
     38 H          23.8048   75.0087    4.8406 H       1  UNL1        0.2105
     39 C          24.5127   75.6221   -0.9263 C.2     1  UNL1        0.2231
     40 C          25.0169   75.6442   -2.3454 C.3     1  UNL1        0.0946
     41 N          24.3776   74.4493   -0.2764 N.am    1  UNL1       -0.2994
     42 O          24.2278   76.6607   -0.3674 O.2     1  UNL1       -0.2751
     43 H          24.6044   73.6186   -0.7233 H       1  UNL1        0.1496
     44 C          22.4507   72.8703    4.8168 C.3     1  UNL1        0.1693
     45 O          21.1186   73.3870    4.7898 O.3     1  UNL1       -0.3794
     46 H          20.6810   73.3931    5.6521 H       1  UNL1        0.2105
@<TRIPOS>BOND
     1    29    30    1
     2    30    41    1
     3    30    31    1
     4    31    34    1
     5    31    32    1
     6    32    35    1
     7    32    33    1
     8    33    36    1
     9    33    44    1
    10    39    40    1
    11    39    42    2
    12    39    41   am
    13    41    43    1
    14    29    28    1
    15    34    37    1
    16    35    38    1
    17    29    36    1
    18    44    45    1
    19    45    46    1
    20    15     6    1
    21    15    16   ar
    22    16    21    2
    23    16    17   ar
    24    17    23    1
    25    17    18   ar
    26    18    19   ar
    27    19    20   ar
    28    15    20   ar
    29    18    22    2
    30     6     7    1
    31     6    11    1
    32     7     9    1
    33     7     8    1
    34     8    13    1
    35     9    10    1
    36     9    12    1
    37    10     5    1
    38    10    11    1
    39    12    14    1
    40     5     4    1
    41     4     1    1
    42     1     2    1
    43     1    24    1
    44     1     3    2
    45    24    25    1
    46    28    25    1
    47    25    26    1
    48    25    27    2
@<TRIPOS>MOLECULE
UD2
 46 48 0 0 0
SMALL
GASTEIGER

@<TRIPOS>ATOM
      1 P          22.9786   73.3399   -4.5224 P.3     1  UNL1        0.2189
      2 O          23.3532   74.4857   -5.5893 O.3     1  UNL1       -0.4371
      3 O          24.1259   72.4195   -4.3627 O.2     1  UNL1       -0.5170
      4 O          22.6345   74.0198   -3.1036 O.3     1  UNL1       -0.3112
      5 C          21.5952   73.5447   -2.2459 C.3     1  UNL1        0.1811
      6 C          23.3572   71.6310    0.2380 C.3     1  UNL1        0.2383
      7 C          21.9368   71.8217    0.8281 C.3     1  UNL1        0.1895
      8 O          21.5739   70.7125    1.6525 O.3     1  UNL1       -0.3779
      9 C          21.0592   71.8732   -0.4464 C.3     1  UNL1        0.1713
     10 C          22.0462   72.2485   -1.5683 C.3     1  UNL1        0.1764
     11 O          23.3337   72.4373   -0.9599 O.3     1  UNL1       -0.3308
     12 O          20.4740   70.5952   -0.7012 O.3     1  UNL1       -0.3794
     13 H          20.6935   70.7855    2.0453 H       1  UNL1        0.2106
     14 H          19.8887   70.2826    0.0017 H       1  UNL1        0.2105
     15 N          24.3737   72.1221    1.1710 N.ar    1  UNL1       -0.2551
     16 C          25.1191   71.2450    1.8665 C.ar    1  UNL1        0.3323
     17 N          26.0603   71.6681    2.7310 N.ar    1  UNL1       -0.2743
     18 C          26.2718   72.9876    2.9119 C.ar    1  UNL1        0.2626
     19 C          25.4950   73.9221    2.1855 C.ar    1  UNL1        0.0795
     20 C          24.5613   73.4697    1.3224 C.ar    1  UNL1        0.0869
     21 O          24.9395   70.0522    1.7134 O.2     1  UNL1       -0.2464
     22 O          27.1236   73.3719    3.6937 O.2     1  UNL1       -0.2670
     23 H          26.5882   71.0222    3.2254 H       1  UNL1        0.1734
     24 O          21.6981   72.5160   -5.0466 O.3     1  UNL1       -0.2703
     25 P          20.3698   72.9159   -5.8642 P.3     1  UNL1        0.2208
     26 O          19.9701   74.4389   -5.5261 O.3     1  UNL1       -0.4371
     27 O          20.6250   72.7841   -7.3154 O.2     1  UNL1       -0.5170
     28 O          19.1636   71.9373   -5.4400 O.3     1  UNL1       -0.2865
     29 C          19.2204   70.5183   -5.5971 C.3     1  UNL1        0.2611
     30 C          18.1576   70.0726   -6.6044 C.3     1  UNL1        0.1582
     31 C          16.7702   70.4250   -6.0593 C.3     1  UNL1        0.1625
     32 C          16.5875   69.7621   -4.6912 C.3     1  UNL1        0.1686
     33 C          17.7111   70.2200   -3.7574 C.3     1  UNL1        0.1760
     34 O          15.7682   69.9465   -6.9594 O.3     1  UNL1       -0.3801
     35 O          16.6370   68.3418   -4.8382 O.3     1  UNL1       -0.3794
     36 O          18.9746   69.8898   -4.3374 O.3     1  UNL1       -0.3263
     37 H          14.8630   70.1361   -6.6766 H       1  UNL1        0.2105
     38 H          16.5287   67.8558   -4.0087 H       1  UNL1        0.2105
     39 C          18.9283   70.1039   -8.9158 C.2     1  UNL1        0.2231
     40 C          19.1492   70.8116  -10.2270 C.3     1  UNL1        0.0946
     41 N          18.3723   70.7617   -7.8794 N.am    1  UNL1       -0.2994
     42 O          19.2511   68.9408   -8.7922 O.2     1  UNL1       -0.2751
     43 H          18.1150   71.6919   -7.9775 H       1  UNL1        0.1496
     44 C          17.5699   69.5159   -2.4066 C.3     1  UNL1        0.1693
     45 O          16.2340   69.0302   -2.2590 O.3     1  UNL1       -0.3794
     46 H          16.0718   68.5715   -1.4234 H       1  UNL1        0.2105
@<TRIPOS>BOND
     1    29    30    1
     2    30    41    1
     3    30    31    1
     4    31    34    1
     5    31    32    1
     6    32    35    1
     7    32    33    1
     8    33    36    1
     9    33    44    1
    10    39    40    1
    11    39    42    2
    12    39    41   am
    13    41    43    1
    14    29    28    1
    15    34    37    1
    16    35    38    1
    17    29    36    1
    18    44    45    1
    19    45    46    1
    20    15     6    1
    21    15    16   ar
    22    16    21    2
    23    16    17   ar
    24    17    23    1
    25    17    18   ar
    26    18    19   ar
    27    19    20   ar
    28    15    20   ar
    29    18    22    2
    30     6     7    1
    31     6    11    1
    32     7     9    1
    33     7     8    1
    34     8    13    1
    35     9    10    1
    36     9    12    1
    37    10     5    1
    38    10    11    1
    39    12    14    1
    40     5     4    1
    41     4     1    1
    42     1     2    1
    43     1    24    1
    44     1     3    2
    45    24    25    1
    46    28    25    1
    47    25    26    1
    48    25    27    2
@<TRIPOS>MOLECULE
UD2
 46 48 0 0 0
SMALL
GASTEIGER

@<TRIPOS>ATOM
      1 P          21.1847   71.2855   -0.9102 P.3     1  UNL1        0.2189
      2 O          21.0763   70.4102    0.4365 O.3     1  UNL1       -0.4371
      3 O          22.2539   70.7355   -1.7721 O.2     1  UNL1       -0.5170
      4 O          19.7808   71.2343   -1.6977 O.3     1  UNL1       -0.3112
      5 C          19.4181   72.1835   -2.7021 C.3     1  UNL1        0.1811
      6 C          17.5230   70.8971   -5.4752 C.3     1  UNL1        0.2383
      7 C          17.9050   69.6427   -4.6490 C.3     1  UNL1        0.1895
      8 O          16.9050   68.6291   -4.7686 O.3     1  UNL1       -0.3779
      9 C          17.9520   70.2049   -3.2071 C.3     1  UNL1        0.1713
     10 C          18.1364   71.7222   -3.4003 C.3     1  UNL1        0.1764
     11 O          18.2348   71.9648   -4.8128 O.3     1  UNL1       -0.3308
     12 O          16.7266   69.9324   -2.5252 O.3     1  UNL1       -0.3794
     13 H          17.0991   67.8240   -4.2698 H       1  UNL1        0.2106
     14 H          16.5308   68.9908   -2.4279 H       1  UNL1        0.2105
     15 N          17.9738   70.7584   -6.8618 N.ar    1  UNL1       -0.2551
     16 C          17.0697   70.5864   -7.8425 C.ar    1  UNL1        0.3323
     17 N          17.4557   70.4560   -9.1255 N.ar    1  UNL1       -0.2743
     18 C          18.7644   70.4982   -9.4483 C.ar    1  UNL1        0.2626
     19 C          19.7269   70.6797   -8.4261 C.ar    1  UNL1        0.0795
     20 C          19.3113   70.8119   -7.1489 C.ar    1  UNL1        0.0869
     21 O          15.8863   70.5466   -7.5662 O.2     1  UNL1       -0.2464
     22 O          19.1150   70.3807  -10.6092 O.2     1  UNL1       -0.2670
     23 H          16.7908   70.3315   -9.8202 H       1  UNL1        0.1734
     24 O          21.5317   72.8119   -0.5320 O.3     1  UNL1       -0.2703
     25 P          22.8964   73.5978   -0.1959 P.3     1  UNL1        0.2208
     26 O          22.5946   74.7629    0.8743 O.3     1  UNL1       -0.4371
     27 O          23.8836   72.6526    0.3701 O.2     1  UNL1       -0.5170
     28 O          23.4874   74.2478   -1.5452 O.3     1  UNL1       -0.2865
     29 C          23.0579   75.5123   -2.0532 C.3     1  UNL1        0.2611
     30 C          23.2316   75.5382   -3.5736 C.3     1  UNL1        0.1582
     31 C          24.7174   75.3815   -3.9118 C.3     1  UNL1        0.1625
     32 C          25.5079   76.4944   -3.2182 C.3     1  UNL1        0.1686
     33 C          25.2463   76.4315   -1.7110 C.3     1  UNL1        0.1760
     34 O          24.8976   75.4782   -5.3266 O.3     1  UNL1       -0.3801
     35 O          25.0897   77.7636   -3.7236 O.3     1  UNL1       -0.3794
     36 O          23.8435   76.5523   -1.4672 O.3     1  UNL1       -0.3263
     37 H          25.8168   75.3870   -5.6127 H       1  UNL1        0.2105
     38 H          25.5496   78.5166   -3.3268 H       1  UNL1        0.2105
     39 C          23.0825   73.2600   -4.4252 C.2     1  UNL1        0.2231
     40 C          22.3048   72.1258   -5.0396 C.3     1  UNL1        0.0946
     41 N          22.4745   74.4356   -4.1715 N.am    1  UNL1       -0.2994
     42 O          24.2573   73.1156   -4.1584 O.2     1  UNL1       -0.2751
     43 H          21.5355   74.5517   -4.3856 H       1  UNL1        0.1496
     44 C          25.9855   77.5773   -1.0172 C.3     1  UNL1        0.1693
     45 O          27.2027   77.8511   -1.7141 O.3     1  UNL1       -0.3794
     46 H          27.7245   78.5682   -1.3287 H       1  UNL1        0.2105
@<TRIPOS>BOND
     1    29    30    1
     2    30    41    1
     3    30    31    1
     4    31    34    1
     5    31    32    1
     6    32    35    1
     7    32    33    1
     8    33    36    1
     9    33    44    1
    10    39    40    1
    11    39    42    2
    12    39    41   am
    13    41    43    1
    14    29    28    1
    15    34    37    1
    16    35    38    1
    17    29    36    1
    18    44    45    1
    19    45    46    1
    20    15     6    1
    21    15    16   ar
    22    16    21    2
    23    16    17   ar
    24    17    23    1
    25    17    18   ar
    26    18    19   ar
    27    19    20   ar
    28    15    20   ar
    29    18    22    2
    30     6     7    1
    31     6    11    1
    32     7     9    1
    33     7     8    1
    34     8    13    1
    35     9    10    1
    36     9    12    1
    37    10     5    1
    38    10    11    1
    39    12    14    1
    40     5     4    1
    41     4     1    1
    42     1     2    1
    43     1    24    1
    44     1     3    2
    45    24    25    1
    46    28    25    1
    47    25    26    1
    48    25    27    2
@<TRIPOS>MOLECULE
UD2
 46 48 0 0 0
SMALL
GASTEIGER

@<TRIPOS>ATOM
      1 P          22.9237   71.7605   -2.9918 P.3     1  UNL1        0.2189
      2 O          23.0664   73.0332   -3.9671 O.3     1  UNL1       -0.4371
      3 O          24.1042   70.8826   -3.1495 O.2     1  UNL1       -0.5170
      4 O          22.8286   72.2628   -1.4646 O.3     1  UNL1       -0.3112
      5 C          23.8536   72.0165   -0.5002 C.3     1  UNL1        0.1811
      6 C          22.8638   71.9359    2.9567 C.3     1  UNL1        0.2383
      7 C          21.6056   72.4363    2.2027 C.3     1  UNL1        0.1895
      8 O          20.4123   72.0255    2.8728 O.3     1  UNL1       -0.3779
      9 C          21.7428   71.7260    0.8337 C.3     1  UNL1        0.1713
     10 C          23.2387   71.3690    0.7430 C.3     1  UNL1        0.1764
     11 O          23.8733   71.8814    1.9255 O.3     1  UNL1       -0.3308
     12 O          20.9430   70.5427    0.8033 O.3     1  UNL1       -0.3794
     13 H          19.5980   72.3151    2.4395 H       1  UNL1        0.2106
     14 H          19.9965   70.7037    0.9158 H       1  UNL1        0.2105
     15 N          23.2475   72.8835    4.0054 N.ar    1  UNL1       -0.2551
     16 C          24.2391   73.7633    3.7782 C.ar    1  UNL1        0.3323
     17 N          24.6128   74.6454    4.7240 N.ar    1  UNL1       -0.2743
     18 C          23.9921   74.6607    5.9211 C.ar    1  UNL1        0.2626
     19 C          22.9460   73.7409    6.1734 C.ar    1  UNL1        0.0795
     20 C          22.5892   72.8705    5.2056 C.ar    1  UNL1        0.0869
     21 O          24.8075   73.7610    2.7034 O.2     1  UNL1       -0.2464
     22 O          24.3291   75.4588    6.7778 O.2     1  UNL1       -0.2670
     23 H          25.3305   75.2721    4.5441 H       1  UNL1        0.1734
     24 O          21.5904   70.9407   -3.3704 O.3     1  UNL1       -0.2703
     25 P          20.0197   71.1775   -3.1063 P.3     1  UNL1        0.2208
     26 O          19.5355   70.2481   -1.8834 O.3     1  UNL1       -0.4371
     27 O          19.7847   72.5984   -2.7683 O.2     1  UNL1       -0.5170
     28 O          19.1892   70.7964   -4.4321 O.3     1  UNL1       -0.2865
     29 C          18.4758   71.7610   -5.2080 C.3     1  UNL1        0.2611
     30 C          17.0558   71.2548   -5.4730 C.3     1  UNL1        0.1582
     31 C          17.1284   69.9617   -6.2909 C.3     1  UNL1        0.1625
     32 C          17.8994   70.2320   -7.5858 C.3     1  UNL1        0.1686
     33 C          19.2873   70.7777   -7.2392 C.3     1  UNL1        0.1760
     34 O          15.8054   69.5214   -6.6058 O.3     1  UNL1       -0.3801
     35 O          17.1910   71.1917   -8.3721 O.3     1  UNL1       -0.3794
     36 O          19.1486   71.9625   -6.4525 O.3     1  UNL1       -0.3263
     37 H          15.7758   68.7049   -7.1233 H       1  UNL1        0.2105
     38 H          17.6235   71.4119   -9.2091 H       1  UNL1        0.2105
     39 C          16.4054   69.7511   -3.6692 C.2     1  UNL1        0.2231
     40 C          15.7158   69.4787   -2.3582 C.3     1  UNL1        0.0946
     41 N          16.3846   70.9906   -4.1978 N.am    1  UNL1       -0.2994
     42 O          16.9802   68.8544   -4.2503 O.2     1  UNL1       -0.2751
     43 H          15.9243   71.7076   -3.7341 H       1  UNL1        0.1496
     44 C          20.0423   71.1065   -8.5285 C.3     1  UNL1        0.1693
     45 O          20.9989   72.1367   -8.2716 O.3     1  UNL1       -0.3794
     46 H          21.5156   72.3966   -9.0465 H       1  UNL1        0.2105
@<TRIPOS>BOND
     1    29    30    1
     2    30    41    1
     3    30    31    1
     4    31    34    1
     5    31    32    1
     6    32    35    1
     7    32    33    1
     8    33    36    1
     9    33    44    1
    10    39    40    1
    11    39    42    2
    12    39    41   am
    13    41    43    1
    14    29    28    1
    15    34    37    1
    16    35    38    1
    17    29    36    1
    18    44    45    1
    19    45    46    1
    20    15     6    1
    21    15    16   ar
    22    16    21    2
    23    16    17   ar
    24    17    23    1
    25    17    18   ar
    26    18    19   ar
    27    19    20   ar
    28    15    20   ar
    29    18    22    2
    30     6     7    1
    31     6    11    1
    32     7     9    1
    33     7     8    1
    34     8    13    1
    35     9    10    1
    36     9    12    1
    37    10     5    1
    38    10    11    1
    39    12    14    1
    40     5     4    1
    41     4     1    1
    42     1     2    1
    43     1    24    1
    44     1     3    2
    45    24    25    1
    46    28    25    1
    47    25    26    1
    48    25    27    2
@<TRIPOS>MOLECULE
UD2
 46 48 0 0 0
SMALL
GASTEIGER

@<TRIPOS>ATOM
      1 P          19.8684   71.0668   -2.0771 P.3     1  UNL1        0.2189
      2 O          20.4795   70.0751   -3.1881 O.3     1  UNL1       -0.4371
      3 O          20.2733   72.4573   -2.3798 O.2     1  UNL1       -0.5170
      4 O          18.2614   70.9610   -2.0893 O.3     1  UNL1       -0.3112
      5 C          17.4221   71.9482   -2.6914 C.3     1  UNL1        0.1811
      6 C          16.6029   70.4876   -5.8744 C.3     1  UNL1        0.2383
      7 C          17.0395   69.2877   -4.9959 C.3     1  UNL1        0.1895
      8 O          16.3513   68.0963   -5.3812 O.3     1  UNL1       -0.3779
      9 C          16.6039   69.7444   -3.5819 C.3     1  UNL1        0.1713
     10 C          16.4875   71.2761   -3.7002 C.3     1  UNL1        0.1764
     11 O          16.8738   71.6326   -5.0371 O.3     1  UNL1       -0.3308
     12 O          15.3410   69.1713   -3.2396 O.3     1  UNL1       -0.3794
     13 H          16.5909   67.3175   -4.8609 H       1  UNL1        0.2106
     14 H          15.3420   68.2051   -3.2088 H       1  UNL1        0.2105
     15 N          17.4001   70.5453   -7.1017 N.ar    1  UNL1       -0.2551
     16 C          16.7829   70.5965   -8.2955 C.ar    1  UNL1        0.3323
     17 N          17.4904   70.6500   -9.4395 N.ar    1  UNL1       -0.2743
     18 C          18.8385   70.6549   -9.4042 C.ar    1  UNL1        0.2626
     19 C          19.5013   70.6023   -8.1544 C.ar    1  UNL1        0.0795
     20 C          18.7668   70.5536   -7.0231 C.ar    1  UNL1        0.0869
     21 O          15.5679   70.5930   -8.3424 O.2     1  UNL1       -0.2464
     22 O          19.4801   70.7037  -10.4389 O.2     1  UNL1       -0.2670
     23 H          17.0296   70.6853  -10.2918 H       1  UNL1        0.1734
     24 O          20.4218   70.6507   -0.6232 O.3     1  UNL1       -0.2703
     25 P          21.4147   71.3469    0.4363 P.3     1  UNL1        0.2208
     26 O          20.5793   71.7998    1.7365 O.3     1  UNL1       -0.4371
     27 O          22.4642   70.3838    0.8358 O.2     1  UNL1       -0.5170
     28 O          22.0997   72.6383   -0.2387 O.3     1  UNL1       -0.2865
     29 C          23.5086   72.7534   -0.4458 C.3     1  UNL1        0.2611
     30 C          24.0426   73.9596    0.3304 C.3     1  UNL1        0.1582
     31 C          23.3875   75.2344   -0.2101 C.3     1  UNL1        0.1625
     32 C          23.6657   75.3411   -1.7120 C.3     1  UNL1        0.1686
     33 C          23.1460   74.0813   -2.4096 C.3     1  UNL1        0.1760
     34 O          23.9347   76.3728    0.4591 O.3     1  UNL1       -0.3801
     35 O          25.0725   75.4625   -1.9298 O.3     1  UNL1       -0.3794
     36 O          23.7720   72.9303   -1.8393 O.3     1  UNL1       -0.3263
     37 H          23.5638   77.2165    0.1663 H       1  UNL1        0.2105
     38 H          25.3222   75.5340   -2.8617 H       1  UNL1        0.2105
     39 C          24.6424   74.1104    2.6873 C.2     1  UNL1        0.2231
     40 C          24.3122   73.9555    4.1487 C.3     1  UNL1        0.0946
     41 N          23.7207   73.8084    1.7517 N.am    1  UNL1       -0.2994
     42 O          25.7388   74.5072    2.3518 O.2     1  UNL1       -0.2751
     43 H          22.8444   73.4902    2.0195 H       1  UNL1        0.1496
     44 C          23.4734   74.1533   -3.9023 C.3     1  UNL1        0.1693
     45 O          24.7109   73.4834   -4.1521 O.3     1  UNL1       -0.3794
     46 H          24.9817   73.4896   -5.0804 H       1  UNL1        0.2105
@<TRIPOS>BOND
     1    29    30    1
     2    30    41    1
     3    30    31    1
     4    31    34    1
     5    31    32    1
     6    32    35    1
     7    32    33    1
     8    33    36    1
     9    33    44    1
    10    39    40    1
    11    39    42    2
    12    39    41   am
    13    41    43    1
    14    29    28    1
    15    34    37    1
    16    35    38    1
    17    29    36    1
    18    44    45    1
    19    45    46    1
    20    15     6    1
    21    15    16   ar
    22    16    21    2
    23    16    17   ar
    24    17    23    1
    25    17    18   ar
    26    18    19   ar
    27    19    20   ar
    28    15    20   ar
    29    18    22    2
    30     6     7    1
    31     6    11    1
    32     7     9    1
    33     7     8    1
    34     8    13    1
    35     9    10    1
    36     9    12    1
    37    10     5    1
    38    10    11    1
    39    12    14    1
    40     5     4    1
    41     4     1    1
    42     1     2    1
    43     1    24    1
    44     1     3    2
    45    24    25    1
    46    28    25    1
    47    25    26    1
    48    25    27    2
@<TRIPOS>MOLECULE
UD2
 46 48 0 0 0
SMALL
GASTEIGER

@<TRIPOS>ATOM
      1 P          23.4494   72.1928   -3.3557 P.3     1  UNL1        0.2189
      2 O          24.3931   73.0549   -4.3342 O.3     1  UNL1       -0.4371
      3 O          24.0949   70.8936   -3.0653 O.2     1  UNL1       -0.5170
      4 O          23.2237   72.9994   -1.9802 O.3     1  UNL1       -0.3112
      5 C          22.4171   74.1754   -1.8922 C.3     1  UNL1        0.1811
      6 C          20.5199   73.8528    1.1464 C.3     1  UNL1        0.2383
      7 C          20.2472   75.3018    0.6687 C.3     1  UNL1        0.1895
      8 O          18.9423   75.7313    1.0616 O.3     1  UNL1       -0.3779
      9 C          20.3422   75.1603   -0.8702 C.3     1  UNL1        0.1713
     10 C          21.1563   73.8692   -1.0801 C.3     1  UNL1        0.1764
     11 O          21.5197   73.3765    0.2194 O.3     1  UNL1       -0.3308
     12 O          19.0391   75.0287   -1.4405 O.3     1  UNL1       -0.3794
     13 H          18.7249   76.6321    0.7862 H       1  UNL1        0.2106
     14 H          18.4632   75.7898   -1.2872 H       1  UNL1        0.2105
     15 N          21.0417   73.8503    2.5148 N.ar    1  UNL1       -0.2551
     16 C          21.5233   72.7107    3.0424 C.ar    1  UNL1        0.3323
     17 N          22.0089   72.6794    4.2975 N.ar    1  UNL1       -0.2743
     18 C          22.0211   73.7992    5.0488 C.ar    1  UNL1        0.2626
     19 C          21.5183   75.0060    4.5057 C.ar    1  UNL1        0.0795
     20 C          21.0414   75.0095    3.2431 C.ar    1  UNL1        0.0869
     21 O          21.5187   71.6934    2.3765 O.2     1  UNL1       -0.2464
     22 O          22.4608   73.7723    6.1848 O.2     1  UNL1       -0.2670
     23 H          22.3512   71.8490    4.6629 H       1  UNL1        0.1734
     24 O          22.0274   71.9388   -4.0676 O.3     1  UNL1       -0.2703
     25 P          21.2901   72.5743   -5.3503 P.3     1  UNL1        0.2208
     26 O          20.9802   74.1304   -5.0743 O.3     1  UNL1       -0.4371
     27 O          22.1663   72.4491   -6.5356 O.2     1  UNL1       -0.5170
     28 O          19.9091   71.7909   -5.6182 O.3     1  UNL1       -0.2865
     29 C          18.8372   72.3426   -6.3851 C.3     1  UNL1        0.2611
     30 C          17.5005   71.8639   -5.8136 C.3     1  UNL1        0.1582
     31 C          17.4208   70.3388   -5.9328 C.3     1  UNL1        0.1625
     32 C          17.5998   69.9423   -7.4009 C.3     1  UNL1        0.1686
     33 C          18.9332   70.4951   -7.9113 C.3     1  UNL1        0.1760
     34 O          16.1455   69.8899   -5.4689 O.3     1  UNL1       -0.3801
     35 O          16.5292   70.4846   -8.1761 O.3     1  UNL1       -0.3794
     36 O          18.9542   71.9140   -7.7434 O.3     1  UNL1       -0.3263
     37 H          16.0257   68.9314   -5.5152 H       1  UNL1        0.2105
     38 H          16.5788   70.2729   -9.1188 H       1  UNL1        0.2105
     39 C          16.2230   72.6494   -3.8930 C.2     1  UNL1        0.2231
     40 C          16.1235   73.0467   -2.4436 C.3     1  UNL1        0.0946
     41 N          17.4046   72.2505   -4.4037 N.am    1  UNL1       -0.2994
     42 O          15.2389   72.6883   -4.6017 O.2     1  UNL1       -0.2751
     43 H          18.1918   72.2201   -3.8376 H       1  UNL1        0.1496
     44 C          19.0922   70.1542   -9.3942 C.3     1  UNL1        0.1693
     45 O          18.4981   71.1843  -10.1868 O.3     1  UNL1       -0.3794
     46 H          18.5617   71.0340  -11.1399 H       1  UNL1        0.2105
@<TRIPOS>BOND
     1    29    30    1
     2    30    41    1
     3    30    31    1
     4    31    34    1
     5    31    32    1
     6    32    35    1
     7    32    33    1
     8    33    36    1
     9    33    44    1
    10    39    40    1
    11    39    42    2
    12    39    41   am
    13    41    43    1
    14    29    28    1
    15    34    37    1
    16    35    38    1
    17    29    36    1
    18    44    45    1
    19    45    46    1
    20    15     6    1
    21    15    16   ar
    22    16    21    2
    23    16    17   ar
    24    17    23    1
    25    17    18   ar
    26    18    19   ar
    27    19    20   ar
    28    15    20   ar
    29    18    22    2
    30     6     7    1
    31     6    11    1
    32     7     9    1
    33     7     8    1
    34     8    13    1
    35     9    10    1
    36     9    12    1
    37    10     5    1
    38    10    11    1
    39    12    14    1
    40     5     4    1
    41     4     1    1
    42     1     2    1
    43     1    24    1
    44     1     3    2
    45    24    25    1
    46    28    25    1
    47    25    26    1
    48    25    27    2
@<TRIPOS>MOLECULE
UD2
 46 48 0 0 0
SMALL
GASTEIGER

@<TRIPOS>ATOM
      1 P          16.2897   69.4485   -2.5259 P.3     1  UNL1        0.2189
      2 O          17.3678   68.3259   -2.1147 O.3     1  UNL1       -0.4371
      3 O          15.9276   69.2869   -3.9513 O.2     1  UNL1       -0.5170
      4 O          14.9714   69.2853   -1.6154 O.3     1  UNL1       -0.3112
      5 C          15.0219   68.9435   -0.2290 C.3     1  UNL1        0.1811
      6 C          12.6977   67.5419    2.1312 C.3     1  UNL1        0.2383
      7 C          12.2849   69.0312    2.0153 C.3     1  UNL1        0.1895
      8 O          10.8797   69.1885    2.2209 O.3     1  UNL1       -0.3779
      9 C          12.6697   69.3626    0.5525 C.3     1  UNL1        0.1713
     10 C          13.7037   68.2825    0.1813 C.3     1  UNL1        0.1764
     11 O          13.9076   67.4671    1.3462 O.3     1  UNL1       -0.3308
     12 O          11.5247   69.2726   -0.2971 O.3     1  UNL1       -0.3794
     13 H          10.5728   70.1032    2.1589 H       1  UNL1        0.2106
     14 H          10.8167   69.8907   -0.0710 H       1  UNL1        0.2105
     15 N          12.9652   67.1878    3.5269 N.ar    1  UNL1       -0.2551
     16 C          12.9071   65.9001    3.9107 C.ar    1  UNL1        0.3323
     17 N          13.1480   65.5460    5.1869 N.ar    1  UNL1       -0.2743
     18 C          13.4552   66.4846    6.1053 C.ar    1  UNL1        0.2626
     19 C          13.5209   67.8438    5.7149 C.ar    1  UNL1        0.0795
     20 C          13.2788   68.1697    4.4278 C.ar    1  UNL1        0.0869
     21 O          12.6314   65.0432    3.0933 O.2     1  UNL1       -0.2464
     22 O          13.6739   66.1653    7.2606 O.2     1  UNL1       -0.2670
     23 H          13.1007   64.6131    5.4470 H       1  UNL1        0.1734
     24 O          16.9229   70.9111   -2.2951 O.3     1  UNL1       -0.2703
     25 P          18.4278   71.4725   -2.1813 P.3     1  UNL1        0.2208
     26 O          18.4897   72.6145   -1.0473 O.3     1  UNL1       -0.4371
     27 O          19.3408   70.3669   -1.8175 O.2     1  UNL1       -0.5170
     28 O          18.8764   72.0960   -3.5965 O.3     1  UNL1       -0.2865
     29 C          19.5223   71.3299   -4.6149 C.3     1  UNL1        0.2611
     30 C          20.3993   72.2498   -5.4677 C.3     1  UNL1        0.1582
     31 C          19.5122   73.2893   -6.1598 C.3     1  UNL1        0.1625
     32 C          18.4498   72.5654   -6.9914 C.3     1  UNL1        0.1686
     33 C          17.6476   71.6332   -6.0796 C.3     1  UNL1        0.1760
     34 O          20.3137   74.1066   -7.0158 O.3     1  UNL1       -0.3801
     35 O          19.0854   71.8004   -8.0171 O.3     1  UNL1       -0.3794
     36 O          18.5355   70.7118   -5.4434 O.3     1  UNL1       -0.3263
     37 H          19.8158   74.7890   -7.4866 H       1  UNL1        0.2105
     38 H          18.4708   71.3135   -8.5837 H       1  UNL1        0.2105
     39 C          22.6830   72.9056   -4.9269 C.2     1  UNL1        0.2231
     40 C          23.6849   73.6050   -4.0462 C.3     1  UNL1        0.0946
     41 N          21.3733   72.9302   -4.6104 N.am    1  UNL1       -0.2994
     42 O          23.0548   72.3194   -5.9220 O.2     1  UNL1       -0.2751
     43 H          21.0757   73.3979   -3.8144 H       1  UNL1        0.1496
     44 C          16.6232   70.8616   -6.9136 C.3     1  UNL1        0.1693
     45 O          17.2450   69.7097   -7.4870 O.3     1  UNL1       -0.3794
     46 H          16.6530   69.1719   -8.0304 H       1  UNL1        0.2105
@<TRIPOS>BOND
     1    29    30    1
     2    30    41    1
     3    30    31    1
     4    31    34    1
     5    31    32    1
     6    32    35    1
     7    32    33    1
     8    33    36    1
     9    33    44    1
    10    39    40    1
    11    39    42    2
    12    39    41   am
    13    41    43    1
    14    29    28    1
    15    34    37    1
    16    35    38    1
    17    29    36    1
    18    44    45    1
    19    45    46    1
    20    15     6    1
    21    15    16   ar
    22    16    21    2
    23    16    17   ar
    24    17    23    1
    25    17    18   ar
    26    18    19   ar
    27    19    20   ar
    28    15    20   ar
    29    18    22    2
    30     6     7    1
    31     6    11    1
    32     7     9    1
    33     7     8    1
    34     8    13    1
    35     9    10    1
    36     9    12    1
    37    10     5    1
    38    10    11    1
    39    12    14    1
    40     5     4    1
    41     4     1    1
    42     1     2    1
    43     1    24    1
    44     1     3    2
    45    24    25    1
    46    28    25    1
    47    25    26    1
    48    25    27    2
@<TRIPOS>MOLECULE
UD2
 46 48 0 0 0
SMALL
GASTEIGER

@<TRIPOS>ATOM
      1 P          20.7825   71.3864   -1.0574 P.3     1  UNL1        0.2189
      2 O          20.8420   70.6518    0.3737 O.3     1  UNL1       -0.4371
      3 O          21.8418   70.8432   -1.9359 O.2     1  UNL1       -0.5170
      4 O          19.3425   71.1312   -1.7320 O.3     1  UNL1       -0.3112
      5 C          19.0876   70.0543   -2.6357 C.3     1  UNL1        0.1811
      6 C          17.2679   70.4142   -5.7173 C.3     1  UNL1        0.2383
      7 C          16.9723   68.9640   -5.2572 C.3     1  UNL1        0.1895
      8 O          15.6740   68.5478   -5.6850 O.3     1  UNL1       -0.3779
      9 C          17.0307   69.0935   -3.7154 C.3     1  UNL1        0.1713
     10 C          17.8495   70.3765   -3.4761 C.3     1  UNL1        0.1764
     11 O          18.2484   70.8757   -4.7627 O.3     1  UNL1       -0.3308
     12 O          15.7151   69.2314   -3.1762 O.3     1  UNL1       -0.3794
     13 H          15.4430   67.6467   -5.4217 H       1  UNL1        0.2106
     14 H          15.1372   68.4760   -3.3491 H       1  UNL1        0.2105
     15 N          17.8231   70.4223   -7.0725 N.ar    1  UNL1       -0.2551
     16 C          16.9955   70.4747   -8.1314 C.ar    1  UNL1        0.3323
     17 N          17.4781   70.4832   -9.3881 N.ar    1  UNL1       -0.2743
     18 C          18.8085   70.4410   -9.6046 C.ar    1  UNL1        0.2626
     19 C          19.6912   70.3867   -8.4992 C.ar    1  UNL1        0.0795
     20 C          19.1799   70.3836   -7.2501 C.ar    1  UNL1        0.0869
     21 O          15.7937   70.5134   -7.9512 O.2     1  UNL1       -0.2464
     22 O          19.2465   70.4491  -10.7415 O.2     1  UNL1       -0.2670
     23 H          16.8674   70.5200  -10.1403 H       1  UNL1        0.1734
     24 O          21.0085   72.9684   -0.8587 O.3     1  UNL1       -0.2703
     25 P          22.1758   73.8560   -0.1935 P.3     1  UNL1        0.2208
     26 O          23.5942   73.4447   -0.8357 O.3     1  UNL1       -0.4371
     27 O          21.9147   75.2889   -0.4524 O.2     1  UNL1       -0.5170
     28 O          22.2094   73.5947    1.3950 O.3     1  UNL1       -0.2865
     29 C          22.6197   74.5860    2.3385 C.3     1  UNL1        0.2611
     30 C          23.1664   73.9018    3.5938 C.3     1  UNL1        0.1582
     31 C          22.0505   73.0765    4.2419 C.3     1  UNL1        0.1625
     32 C          20.8648   73.9947    4.5510 C.3     1  UNL1        0.1686
     33 C          20.4068   74.6754    3.2584 C.3     1  UNL1        0.1760
     34 O          22.5315   72.4930    5.4549 O.3     1  UNL1       -0.3801
     35 O          21.2634   74.9868    5.4986 O.3     1  UNL1       -0.3794
     36 O          21.4995   75.4004    2.6907 O.3     1  UNL1       -0.3263
     37 H          21.8758   71.9546    5.9190 H       1  UNL1        0.2105
     38 H          20.5600   75.6055    5.7407 H       1  UNL1        0.2105
     39 C          24.0339   71.7453    2.8624 C.2     1  UNL1        0.2231
     40 C          25.1752   70.8382    2.4839 C.3     1  UNL1        0.0946
     41 N          24.2771   73.0200    3.2260 N.am    1  UNL1       -0.2994
     42 O          22.8945   71.3287    2.8400 O.2     1  UNL1       -0.2751
     43 H          25.1879   73.3532    3.2450 H       1  UNL1        0.1496
     44 C          19.2607   75.6401    3.5688 C.3     1  UNL1        0.1693
     45 O          18.0126   74.9566    3.4359 O.3     1  UNL1       -0.3794
     46 H          17.2399   75.5086    3.6184 H       1  UNL1        0.2105
@<TRIPOS>BOND
     1    29    30    1
     2    30    41    1
     3    30    31    1
     4    31    34    1
     5    31    32    1
     6    32    35    1
     7    32    33    1
     8    33    36    1
     9    33    44    1
    10    39    40    1
    11    39    42    2
    12    39    41   am
    13    41    43    1
    14    29    28    1
    15    34    37    1
    16    35    38    1
    17    29    36    1
    18    44    45    1
    19    45    46    1
    20    15     6    1
    21    15    16   ar
    22    16    21    2
    23    16    17   ar
    24    17    23    1
    25    17    18   ar
    26    18    19   ar
    27    19    20   ar
    28    15    20   ar
    29    18    22    2
    30     6     7    1
    31     6    11    1
    32     7     9    1
    33     7     8    1
    34     8    13    1
    35     9    10    1
    36     9    12    1
    37    10     5    1
    38    10    11    1
    39    12    14    1
    40     5     4    1
    41     4     1    1
    42     1     2    1
    43     1    24    1
    44     1     3    2
    45    24    25    1
    46    28    25    1
    47    25    26    1
    48    25    27    2
@<TRIPOS>MOLECULE
UD2
 46 48 0 0 0
SMALL
GASTEIGER

@<TRIPOS>ATOM
      1 P          22.2104   71.6607   -2.5238 P.3     1  UNL1        0.2189
      2 O          23.6270   71.0032   -2.9143 O.3     1  UNL1       -0.4371
      3 O          21.9340   72.8059   -3.4188 O.2     1  UNL1       -0.5170
      4 O          21.0456   70.5603   -2.6849 O.3     1  UNL1       -0.3112
      5 C          20.2964   70.3923   -3.8899 C.3     1  UNL1        0.1811
      6 C          16.8313   70.9751   -4.6579 C.3     1  UNL1        0.2383
      7 C          17.0539   69.4746   -4.9759 C.3     1  UNL1        0.1895
      8 O          15.8592   68.7232   -4.7529 O.3     1  UNL1       -0.3779
      9 C          18.1504   69.0848   -3.9545 C.3     1  UNL1        0.1713
     10 C          18.8002   70.4274   -3.5689 C.3     1  UNL1        0.1764
     11 O          18.1579   71.4519   -4.3443 O.3     1  UNL1       -0.3308
     12 O          17.5662   68.4639   -2.8082 O.3     1  UNL1       -0.3794
     13 H          15.9479   67.7786   -4.9387 H       1  UNL1        0.2106
     14 H          17.0926   67.6439   -3.0025 H       1  UNL1        0.2105
     15 N          16.2935   71.6757   -5.8262 N.ar    1  UNL1       -0.2551
     16 C          16.5510   71.2079   -7.0606 C.ar    1  UNL1        0.3323
     17 N          16.0698   71.8318   -8.1522 N.ar    1  UNL1       -0.2743
     18 C          15.3155   72.9420   -8.0222 C.ar    1  UNL1        0.2626
     19 C          15.0358   73.4449   -6.7287 C.ar    1  UNL1        0.0795
     20 C          15.5276   72.7968   -5.6518 C.ar    1  UNL1        0.0869
     21 O          17.2295   70.2077   -7.1928 O.2     1  UNL1       -0.2464
     22 O          14.8791   73.5074   -9.0093 O.2     1  UNL1       -0.2670
     23 H          16.2660   71.4818   -9.0349 H       1  UNL1        0.1734
     24 O          22.2580   72.1713   -0.9973 O.3     1  UNL1       -0.2703
     25 P          22.4611   71.4369    0.4213 P.3     1  UNL1        0.2208
     26 O          21.2357   70.4247    0.6813 O.3     1  UNL1       -0.4371
     27 O          23.7315   70.6792    0.4074 O.2     1  UNL1       -0.5170
     28 O          22.5057   72.5388    1.5945 O.3     1  UNL1       -0.2865
     29 C          22.7753   72.2126    2.9591 C.3     1  UNL1        0.2611
     30 C          22.1892   73.2949    3.8689 C.3     1  UNL1        0.1582
     31 C          22.8749   74.6307    3.5658 C.3     1  UNL1        0.1625
     32 C          24.3860   74.4707    3.7532 C.3     1  UNL1        0.1686
     33 C          24.8876   73.3428    2.8475 C.3     1  UNL1        0.1760
     34 O          22.3860   75.6320    4.4613 O.3     1  UNL1       -0.3801
     35 O          24.6670   74.1498    5.1168 O.3     1  UNL1       -0.3794
     36 O          24.1881   72.1365    3.1601 O.3     1  UNL1       -0.3263
     37 H          22.7776   76.5057    4.3254 H       1  UNL1        0.2105
     38 H          25.6081   74.0330    5.3082 H       1  UNL1        0.2105
     39 C          20.2934   74.3146    2.7271 C.2     1  UNL1        0.2231
     40 C          18.8142   74.4394    2.4718 C.3     1  UNL1        0.0946
     41 N          20.7503   73.4158    3.6212 N.am    1  UNL1       -0.2994
     42 O          21.0745   75.0236    2.1277 O.2     1  UNL1       -0.2751
     43 H          20.1260   72.8494    4.1014 H       1  UNL1        0.1496
     44 C          26.3866   73.1365    3.0728 C.3     1  UNL1        0.1693
     45 O          26.7388   71.7925    2.7384 O.3     1  UNL1       -0.3794
     46 H          27.6768   71.5899    2.8574 H       1  UNL1        0.2105
@<TRIPOS>BOND
     1    29    30    1
     2    30    41    1
     3    30    31    1
     4    31    34    1
     5    31    32    1
     6    32    35    1
     7    32    33    1
     8    33    36    1
     9    33    44    1
    10    39    40    1
    11    39    42    2
    12    39    41   am
    13    41    43    1
    14    29    28    1
    15    34    37    1
    16    35    38    1
    17    29    36    1
    18    44    45    1
    19    45    46    1
    20    15     6    1
    21    15    16   ar
    22    16    21    2
    23    16    17   ar
    24    17    23    1
    25    17    18   ar
    26    18    19   ar
    27    19    20   ar
    28    15    20   ar
    29    18    22    2
    30     6     7    1
    31     6    11    1
    32     7     9    1
    33     7     8    1
    34     8    13    1
    35     9    10    1
    36     9    12    1
    37    10     5    1
    38    10    11    1
    39    12    14    1
    40     5     4    1
    41     4     1    1
    42     1     2    1
    43     1    24    1
    44     1     3    2
    45    24    25    1
    46    28    25    1
    47    25    26    1
    48    25    27    2
@<TRIPOS>MOLECULE
UD2
 46 48 0 0 0
SMALL
GASTEIGER

@<TRIPOS>ATOM
      1 P          22.1563   72.8649   -6.3022 P.3     1  UNL1        0.2189
      2 O          23.2837   72.3003   -5.3014 O.3     1  UNL1       -0.4371
      3 O          22.8047   73.4596   -7.4916 O.2     1  UNL1       -0.5170
      4 O          21.1944   71.6580   -6.7624 O.3     1  UNL1       -0.3112
      5 C          20.7239   71.5071   -8.1031 C.3     1  UNL1        0.1811
      6 C          17.6286   70.1187   -6.9082 C.3     1  UNL1        0.2383
      7 C          17.2046   71.1340   -7.9997 C.3     1  UNL1        0.1895
      8 O          16.0022   70.7140   -8.6476 O.3     1  UNL1       -0.3779
      9 C          18.4052   71.0821   -8.9761 C.3     1  UNL1        0.1713
     10 C          19.5581   70.5156   -8.1256 C.3     1  UNL1        0.1764
     11 O          19.0535   70.3241   -6.7943 O.3     1  UNL1       -0.3308
     12 O          18.1187   70.2133  -10.0734 O.3     1  UNL1       -0.3794
     13 H          15.6961   71.3171   -9.3384 H       1  UNL1        0.2106
     14 H          17.3634   70.4908  -10.6090 H       1  UNL1        0.2105
     15 N          16.9610   70.4168   -5.6392 N.ar    1  UNL1       -0.2551
     16 C          16.4874   69.4106   -4.8828 C.ar    1  UNL1        0.3323
     17 N          15.8694   69.6553   -3.7122 N.ar    1  UNL1       -0.2743
     18 C          15.7169   70.9227   -3.2772 C.ar    1  UNL1        0.2626
     19 C          16.2114   71.9915   -4.0628 C.ar    1  UNL1        0.0795
     20 C          16.8306   71.7167   -5.2301 C.ar    1  UNL1        0.0869
     21 O          16.6181   68.2629   -5.2625 O.2     1  UNL1       -0.2464
     22 O          15.1580   71.1455   -2.2177 O.2     1  UNL1       -0.2670
     23 H          15.5328   68.9182   -3.1798 H       1  UNL1        0.1734
     24 O          21.2831   73.9885   -5.5483 O.3     1  UNL1       -0.2703
     25 P          21.5678   74.9852   -4.3160 P.3     1  UNL1        0.2208
     26 O          22.8538   75.8957   -4.6490 O.3     1  UNL1       -0.4371
     27 O          20.3904   75.8548   -4.1023 O.2     1  UNL1       -0.5170
     28 O          21.8491   74.1250   -2.9842 O.3     1  UNL1       -0.2865
     29 C          20.8294   73.7999   -2.0377 C.3     1  UNL1        0.2611
     30 C          21.4749   73.3829   -0.7140 C.3     1  UNL1        0.1582
     31 C          22.3173   72.1238   -0.9410 C.3     1  UNL1        0.1625
     32 C          21.4254   71.0241   -1.5238 C.3     1  UNL1        0.1686
     33 C          20.7818   71.5322   -2.8167 C.3     1  UNL1        0.1760
     34 O          22.8646   71.6849    0.3044 O.3     1  UNL1       -0.3801
     35 O          20.4052   70.6874   -0.5820 O.3     1  UNL1       -0.3794
     36 O          20.0387   72.7214   -2.5416 O.3     1  UNL1       -0.3263
     37 H          23.4114   70.8903    0.2350 H       1  UNL1        0.2105
     38 H          19.8011   69.9955   -0.8861 H       1  UNL1        0.2105
     39 C          23.6338   74.5045   -0.5775 C.2     1  UNL1        0.2231
     40 C          24.5171   75.6168   -0.0764 C.3     1  UNL1        0.0946
     41 N          22.3335   74.4650   -0.2259 N.am    1  UNL1       -0.2994
     42 O          24.0928   73.6431   -1.2983 O.2     1  UNL1       -0.2751
     43 H          21.9663   75.1530    0.3511 H       1  UNL1        0.1496
     44 C          19.8425   70.4609   -3.3737 C.3     1  UNL1        0.1693
     45 O          20.4988   69.7516   -4.4266 O.3     1  UNL1       -0.3794
     46 H          19.9608   69.0554   -4.8276 H       1  UNL1        0.2105
@<TRIPOS>BOND
     1    29    30    1
     2    30    41    1
     3    30    31    1
     4    31    34    1
     5    31    32    1
     6    32    35    1
     7    32    33    1
     8    33    36    1
     9    33    44    1
    10    39    40    1
    11    39    42    2
    12    39    41   am
    13    41    43    1
    14    29    28    1
    15    34    37    1
    16    35    38    1
    17    29    36    1
    18    44    45    1
    19    45    46    1
    20    15     6    1
    21    15    16   ar
    22    16    21    2
    23    16    17   ar
    24    17    23    1
    25    17    18   ar
    26    18    19   ar
    27    19    20   ar
    28    15    20   ar
    29    18    22    2
    30     6     7    1
    31     6    11    1
    32     7     9    1
    33     7     8    1
    34     8    13    1
    35     9    10    1
    36     9    12    1
    37    10     5    1
    38    10    11    1
    39    12    14    1
    40     5     4    1
    41     4     1    1
    42     1     2    1
    43     1    24    1
    44     1     3    2
    45    24    25    1
    46    28    25    1
    47    25    26    1
    48    25    27    2
@<TRIPOS>MOLECULE
UD2
 46 48 0 0 0
SMALL
GASTEIGER

@<TRIPOS>ATOM
      1 P          22.5070   74.3268   -1.7324 P.3     1  UNL1        0.2189
      2 O          22.1323   75.1253   -3.0790 O.3     1  UNL1       -0.4371
      3 O          23.7332   74.9052   -1.1401 O.2     1  UNL1       -0.5170
      4 O          21.2935   74.4495   -0.6807 O.3     1  UNL1       -0.3112
      5 C          21.4960   74.6333    0.7217 C.3     1  UNL1        0.1811
      6 C          23.4172   72.1304    2.4483 C.3     1  UNL1        0.2383
      7 C          22.7242   72.9366    3.5762 C.3     1  UNL1        0.1895
      8 O          22.4623   72.1066    4.7094 O.3     1  UNL1       -0.3779
      9 C          21.4042   73.3772    2.8972 C.3     1  UNL1        0.1713
     10 C          21.7028   73.2716    1.3895 C.3     1  UNL1        0.1764
     11 O          23.0731   72.8630    1.2523 O.3     1  UNL1       -0.3308
     12 O          20.3390   72.4969    3.2594 O.3     1  UNL1       -0.3794
     13 H          22.0299   72.5659    5.4421 H       1  UNL1        0.2106
     14 H          20.1474   72.4790    4.2067 H       1  UNL1        0.2105
     15 N          24.8686   72.1131    2.6437 N.ar    1  UNL1       -0.2551
     16 C          25.5610   70.9872    2.3952 C.ar    1  UNL1        0.3323
     17 N          26.8956   70.9427    2.5663 N.ar    1  UNL1       -0.2743
     18 C          27.5623   72.0353    2.9906 C.ar    1  UNL1        0.2626
     19 C          26.8461   73.2276    3.2549 C.ar    1  UNL1        0.0795
     20 C          25.5092   73.2450    3.0708 C.ar    1  UNL1        0.0869
     21 O          24.9730   69.9944    2.0119 O.2     1  UNL1       -0.2464
     22 O          28.7702   71.9965    3.1455 O.2     1  UNL1       -0.2670
     23 H          27.3793   70.1224    2.3837 H       1  UNL1        0.1734
     24 O          22.7593   72.7750   -2.0809 O.3     1  UNL1       -0.2703
     25 P          23.4432   72.0040   -3.3182 P.3     1  UNL1        0.2208
     26 O          24.4121   73.0167   -4.1115 O.3     1  UNL1       -0.4371
     27 O          24.2339   70.8611   -2.8113 O.2     1  UNL1       -0.5170
     28 O          22.2980   71.4655   -4.3138 O.3     1  UNL1       -0.2865
     29 C          21.1728   72.2542   -4.7052 C.3     1  UNL1        0.2611
     30 C          20.1295   71.3583   -5.3771 C.3     1  UNL1        0.1582
     31 C          20.7337   70.7483   -6.6456 C.3     1  UNL1        0.1625
     32 C          21.2088   71.8765   -7.5653 C.3     1  UNL1        0.1686
     33 C          22.2109   72.7526   -6.8089 C.3     1  UNL1        0.1760
     34 O          19.7428   69.9686   -7.3189 O.3     1  UNL1       -0.3801
     35 O          20.0895   72.6683   -7.9674 O.3     1  UNL1       -0.3794
     36 O          21.5957   73.2633   -5.6245 O.3     1  UNL1       -0.3263
     37 H          20.0574   69.5510   -8.1325 H       1  UNL1        0.2105
     38 H          20.3174   73.4043   -8.5526 H       1  UNL1        0.2105
     39 C          18.4422   69.9391   -4.3395 C.2     1  UNL1        0.2231
     40 C          18.0397   68.8380   -3.3939 C.3     1  UNL1        0.0946
     41 N          19.7387   70.2872   -4.4569 N.am    1  UNL1       -0.2994
     42 O          17.5989   70.5135   -4.9960 O.2     1  UNL1       -0.2751
     43 H          20.4132   69.8290   -3.9314 H       1  UNL1        0.1496
     44 C          22.6453   73.9170   -7.7011 C.3     1  UNL1        0.1693
     45 O          23.5286   73.4362   -8.7164 O.3     1  UNL1       -0.3794
     46 H          23.8448   74.1220   -9.3204 H       1  UNL1        0.2105
@<TRIPOS>BOND
     1    29    30    1
     2    30    41    1
     3    30    31    1
     4    31    34    1
     5    31    32    1
     6    32    35    1
     7    32    33    1
     8    33    36    1
     9    33    44    1
    10    39    40    1
    11    39    42    2
    12    39    41   am
    13    41    43    1
    14    29    28    1
    15    34    37    1
    16    35    38    1
    17    29    36    1
    18    44    45    1
    19    45    46    1
    20    15     6    1
    21    15    16   ar
    22    16    21    2
    23    16    17   ar
    24    17    23    1
    25    17    18   ar
    26    18    19   ar
    27    19    20   ar
    28    15    20   ar
    29    18    22    2
    30     6     7    1
    31     6    11    1
    32     7     9    1
    33     7     8    1
    34     8    13    1
    35     9    10    1
    36     9    12    1
    37    10     5    1
    38    10    11    1
    39    12    14    1
    40     5     4    1
    41     4     1    1
    42     1     2    1
    43     1    24    1
    44     1     3    2
    45    24    25    1
    46    28    25    1
    47    25    26    1
    48    25    27    2
@<TRIPOS>MOLECULE
UD2
 46 48 0 0 0
SMALL
GASTEIGER

@<TRIPOS>ATOM
      1 P          20.5390   71.8582   -1.0510 P.3     1  UNL1        0.2189
      2 O          20.4325   73.2699   -0.2848 O.3     1  UNL1       -0.4371
      3 O          20.8360   70.7873   -0.0743 O.2     1  UNL1       -0.5170
      4 O          19.1423   71.5408   -1.7874 O.3     1  UNL1       -0.3112
      5 C          18.9044   70.3352   -2.5163 C.3     1  UNL1        0.1811
      6 C          17.1437   70.4356   -5.6510 C.3     1  UNL1        0.2383
      7 C          16.9881   68.9727   -5.1633 C.3     1  UNL1        0.1895
      8 O          15.7527   68.4136   -5.6137 O.3     1  UNL1       -0.3779
      9 C          16.9898   69.1410   -3.6241 C.3     1  UNL1        0.1713
     10 C          17.6634   70.5075   -3.3955 C.3     1  UNL1        0.1764
     11 O          18.0438   71.0179   -4.6833 O.3     1  UNL1       -0.3308
     12 O          15.6524   69.1518   -3.1220 O.3     1  UNL1       -0.3794
     13 H          15.6096   67.4991   -5.3344 H       1  UNL1        0.2106
     14 H          15.1614   68.3364   -3.2911 H       1  UNL1        0.2105
     15 N          17.7325   70.4726   -6.9915 N.ar    1  UNL1       -0.2551
     16 C          16.9315   70.4615   -8.0717 C.ar    1  UNL1        0.3323
     17 N          17.4452   70.4946   -9.3156 N.ar    1  UNL1       -0.2743
     18 C          18.7807   70.5417   -9.4973 C.ar    1  UNL1        0.2626
     19 C          19.6356   70.5550   -8.3690 C.ar    1  UNL1        0.0795
     20 C          19.0931   70.5253   -7.1336 C.ar    1  UNL1        0.0869
     21 O          15.7255   70.4194   -7.9229 O.2     1  UNL1       -0.2464
     22 O          19.2469   70.5721  -10.6225 O.2     1  UNL1       -0.2670
     23 H          16.8534   70.4847  -10.0836 H       1  UNL1        0.1734
     24 O          21.7180   71.9289   -2.1456 O.3     1  UNL1       -0.2703
     25 P          21.9084   72.7223   -3.5338 P.3     1  UNL1        0.2208
     26 O          22.6932   71.7861   -4.5832 O.3     1  UNL1       -0.4371
     27 O          20.5825   73.0769   -4.0856 O.2     1  UNL1       -0.5170
     28 O          22.7578   74.0650   -3.2722 O.3     1  UNL1       -0.2865
     29 C          24.1414   74.0539   -2.9159 C.3     1  UNL1        0.2611
     30 C          24.3377   74.8183   -1.6045 C.3     1  UNL1        0.1582
     31 C          23.9214   76.2785   -1.8074 C.3     1  UNL1        0.1625
     32 C          24.7389   76.8763   -2.9558 C.3     1  UNL1        0.1686
     33 C          24.5270   76.0323   -4.2154 C.3     1  UNL1        0.1760
     34 O          24.1705   77.0167   -0.6090 O.3     1  UNL1       -0.3801
     35 O          26.1244   76.8751   -2.6069 O.3     1  UNL1       -0.3794
     36 O          24.9041   74.6798   -3.9497 O.3     1  UNL1       -0.3263
     37 H          23.9289   77.9513   -0.6659 H       1  UNL1        0.2105
     38 H          26.7032   77.2404   -3.2907 H       1  UNL1        0.2105
     39 C          23.9883   74.0989    0.6973 C.2     1  UNL1        0.2231
     40 C          23.1379   73.4782    1.7744 C.3     1  UNL1        0.0946
     41 N          23.5100   74.2142   -0.5573 N.am    1  UNL1       -0.2994
     42 O          25.1047   74.4955    0.9588 O.2     1  UNL1       -0.2751
     43 H          22.6178   73.8963   -0.7671 H       1  UNL1        0.1496
     44 C          25.3871   76.5880   -5.3520 C.3     1  UNL1        0.1693
     45 O          26.6439   75.9081   -5.3755 O.3     1  UNL1       -0.3794
     46 H          27.2420   76.2099   -6.0729 H       1  UNL1        0.2105
@<TRIPOS>BOND
     1    29    30    1
     2    30    41    1
     3    30    31    1
     4    31    34    1
     5    31    32    1
     6    32    35    1
     7    32    33    1
     8    33    36    1
     9    33    44    1
    10    39    40    1
    11    39    42    2
    12    39    41   am
    13    41    43    1
    14    29    28    1
    15    34    37    1
    16    35    38    1
    17    29    36    1
    18    44    45    1
    19    45    46    1
    20    15     6    1
    21    15    16   ar
    22    16    21    2
    23    16    17   ar
    24    17    23    1
    25    17    18   ar
    26    18    19   ar
    27    19    20   ar
    28    15    20   ar
    29    18    22    2
    30     6     7    1
    31     6    11    1
    32     7     9    1
    33     7     8    1
    34     8    13    1
    35     9    10    1
    36     9    12    1
    37    10     5    1
    38    10    11    1
    39    12    14    1
    40     5     4    1
    41     4     1    1
    42     1     2    1
    43     1    24    1
    44     1     3    2
    45    24    25    1
    46    28    25    1
    47    25    26    1
    48    25    27    2
@<TRIPOS>MOLECULE
UD2
 46 48 0 0 0
SMALL
GASTEIGER

@<TRIPOS>ATOM
      1 P          22.7671   73.3185   -4.4412 P.3     1  UNL1        0.2189
      2 O          23.2111   74.3603   -5.5853 O.3     1  UNL1       -0.4371
      3 O          23.7476   72.2127   -4.3726 O.2     1  UNL1       -0.5170
      4 O          22.7102   74.0743   -3.0202 O.3     1  UNL1       -0.3112
      5 C          21.5688   74.8104   -2.5766 C.3     1  UNL1        0.1811
      6 C          21.7452   73.0317    0.5446 C.3     1  UNL1        0.2383
      7 C          21.6993   74.5269    0.9501 C.3     1  UNL1        0.1895
      8 O          21.0513   74.6932    2.2128 O.3     1  UNL1       -0.3779
      9 C          20.8550   75.1473   -0.1899 C.3     1  UNL1        0.1713
     10 C          20.9724   74.1307   -1.3415 C.3     1  UNL1        0.1764
     11 O          21.8417   73.0776   -0.8956 O.3     1  UNL1       -0.3308
     12 O          19.4929   75.2873    0.2174 O.3     1  UNL1       -0.3794
     13 H          20.9984   75.6116    2.5100 H       1  UNL1        0.2106
     14 H          19.3669   75.8709    0.9776 H       1  UNL1        0.2105
     15 N          22.9221   72.3770    1.1203 N.ar    1  UNL1       -0.2551
     16 C          22.8835   71.0618    1.3989 C.ar    1  UNL1        0.3323
     17 N          23.9502   70.4343    1.9285 N.ar    1  UNL1       -0.2743
     18 C          25.0818   71.1205    2.1874 C.ar    1  UNL1        0.2626
     19 C          25.1367   72.5052    1.8982 C.ar    1  UNL1        0.0795
     20 C          24.0538   73.1077    1.3636 C.ar    1  UNL1        0.0869
     21 O          21.8698   70.4305    1.1704 O.2     1  UNL1       -0.2464
     22 O          26.0481   70.5536    2.6664 O.2     1  UNL1       -0.2670
     23 H          23.9050   69.4857    2.1244 H       1  UNL1        0.1734
     24 O          21.3116   72.7248   -4.7911 O.3     1  UNL1       -0.2703
     25 P          20.4588   71.4681   -4.2561 P.3     1  UNL1        0.2208
     26 O          21.4616   70.2835   -3.8263 O.3     1  UNL1       -0.4371
     27 O          19.6533   71.8805   -3.0858 O.2     1  UNL1       -0.5170
     28 O          19.4810   70.9468   -5.4243 O.3     1  UNL1       -0.2865
     29 C          18.4668   71.7631   -6.0126 C.3     1  UNL1        0.2611
     30 C          17.0933   71.1407   -5.7500 C.3     1  UNL1        0.1582
     31 C          17.0294   69.7646   -6.4199 C.3     1  UNL1        0.1625
     32 C          17.3188   69.9226   -7.9151 C.3     1  UNL1        0.1686
     33 C          18.6839   70.5921   -8.0942 C.3     1  UNL1        0.1760
     34 O          15.7251   69.2074   -6.2421 O.3     1  UNL1       -0.3801
     35 O          16.3064   70.7332   -8.5144 O.3     1  UNL1       -0.3794
     36 O          18.6862   71.8530   -7.4219 O.3     1  UNL1       -0.3263
     37 H          15.6133   68.3338   -6.6413 H       1  UNL1        0.2105
     38 H          16.4269   70.8763   -9.4637 H       1  UNL1        0.2105
     39 C          15.9634   71.7391   -3.6756 C.2     1  UNL1        0.2231
     40 C          15.7549   71.5872   -2.1917 C.3     1  UNL1        0.0946
     41 N          16.8912   70.9925   -4.3065 N.am    1  UNL1       -0.2994
     42 O          15.2960   72.5341   -4.3040 O.2     1  UNL1       -0.2751
     43 H          17.4257   70.3575   -3.8044 H       1  UNL1        0.1496
     44 C          18.9542   70.8078   -9.5845 C.3     1  UNL1        0.1693
     45 O          18.1231   69.9341  -10.3515 O.3     1  UNL1       -0.3794
     46 H          18.2415   70.0166  -11.3076 H       1  UNL1        0.2105
@<TRIPOS>BOND
     1    29    30    1
     2    30    41    1
     3    30    31    1
     4    31    34    1
     5    31    32    1
     6    32    35    1
     7    32    33    1
     8    33    36    1
     9    33    44    1
    10    39    40    1
    11    39    42    2
    12    39    41   am
    13    41    43    1
    14    29    28    1
    15    34    37    1
    16    35    38    1
    17    29    36    1
    18    44    45    1
    19    45    46    1
    20    15     6    1
    21    15    16   ar
    22    16    21    2
    23    16    17   ar
    24    17    23    1
    25    17    18   ar
    26    18    19   ar
    27    19    20   ar
    28    15    20   ar
    29    18    22    2
    30     6     7    1
    31     6    11    1
    32     7     9    1
    33     7     8    1
    34     8    13    1
    35     9    10    1
    36     9    12    1
    37    10     5    1
    38    10    11    1
    39    12    14    1
    40     5     4    1
    41     4     1    1
    42     1     2    1
    43     1    24    1
    44     1     3    2
    45    24    25    1
    46    28    25    1
    47    25    26    1
    48    25    27    2
@<TRIPOS>MOLECULE
UD2
 46 48 0 0 0
SMALL
GASTEIGER

@<TRIPOS>ATOM
      1 P          21.9332   72.4216   -6.1179 P.3     1  UNL1        0.2189
      2 O          23.0599   73.3973   -6.7262 O.3     1  UNL1       -0.4371
      3 O          20.7267   73.2093   -5.7820 O.2     1  UNL1       -0.5170
      4 O          21.5539   71.2963   -7.2057 O.3     1  UNL1       -0.3112
      5 C          20.6555   71.5357   -8.2906 C.3     1  UNL1        0.1811
      6 C          17.6637   70.0742   -6.9307 C.3     1  UNL1        0.2383
      7 C          17.1576   71.0661   -8.0086 C.3     1  UNL1        0.1895
      8 O          15.9369   70.6064   -8.5919 O.3     1  UNL1       -0.3779
      9 C          18.3093   71.0376   -9.0432 C.3     1  UNL1        0.1713
     10 C          19.5184   70.5120   -8.2462 C.3     1  UNL1        0.1764
     11 O          19.0862   70.3202   -6.8898 O.3     1  UNL1       -0.3308
     12 O          17.9933   70.1500  -10.1171 O.3     1  UNL1       -0.3794
     13 H          15.5799   71.1936   -9.2719 H       1  UNL1        0.2106
     14 H          17.2048   70.4010  -10.6168 H       1  UNL1        0.2105
     15 N          17.0517   70.3666   -5.6326 N.ar    1  UNL1       -0.2551
     16 C          16.4282   69.3870   -4.9540 C.ar    1  UNL1        0.3323
     17 N          15.8568   69.6274   -3.7590 N.ar    1  UNL1       -0.2743
     18 C          15.9035   70.8629   -3.2206 C.ar    1  UNL1        0.2626
     19 C          16.5574   71.9032   -3.9236 C.ar    1  UNL1        0.0795
     20 C          17.1253   71.6329   -5.1177 C.ar    1  UNL1        0.0869
     21 O          16.3786   68.2681   -5.4273 O.2     1  UNL1       -0.2464
     22 O          15.3871   71.0816   -2.1389 O.2     1  UNL1       -0.2670
     23 H          15.4103   68.9100   -3.2835 H       1  UNL1        0.1734
     24 O          22.4988   71.7119   -4.7875 O.3     1  UNL1       -0.2703
     25 P          23.4937   72.1763   -3.6096 P.3     1  UNL1        0.2208
     26 O          24.2433   70.8871   -3.0015 O.3     1  UNL1       -0.4371
     27 O          24.4964   73.1184   -4.1532 O.2     1  UNL1       -0.5170
     28 O          22.6478   72.9032   -2.4482 O.3     1  UNL1       -0.2865
     29 C          21.3451   72.4735   -2.0488 C.3     1  UNL1        0.2611
     30 C          20.4745   73.6952   -1.7453 C.3     1  UNL1        0.1582
     31 C          21.0877   74.4703   -0.5750 C.3     1  UNL1        0.1625
     32 C          21.2167   73.5355    0.6307 C.3     1  UNL1        0.1686
     33 C          22.0590   72.3197    0.2355 C.3     1  UNL1        0.1760
     34 O          20.2420   75.5720   -0.2369 O.3     1  UNL1       -0.3801
     35 O          19.9182   73.1044    1.0419 O.3     1  UNL1       -0.3794
     36 O          21.4501   71.6618   -0.8773 O.3     1  UNL1       -0.3263
     37 H          20.5703   76.1085    0.4976 H       1  UNL1        0.2105
     38 H          19.9240   72.5071    1.8030 H       1  UNL1        0.2105
     39 C          19.2517   75.1437   -3.2765 C.2     1  UNL1        0.2231
     40 C          19.1894   76.0322   -4.4911 C.3     1  UNL1        0.0946
     41 N          20.4146   74.5591   -2.9271 N.am    1  UNL1       -0.2994
     42 O          18.2546   74.9538   -2.6118 O.2     1  UNL1       -0.2751
     43 H          21.2119   74.7099   -3.4587 H       1  UNL1        0.1496
     44 C          22.1428   71.3517    1.4173 C.3     1  UNL1        0.1693
     45 O          21.5632   70.0983    1.0493 O.3     1  UNL1       -0.3794
     46 H          21.5815   69.4345    1.7522 H       1  UNL1        0.2105
@<TRIPOS>BOND
     1    29    30    1
     2    30    41    1
     3    30    31    1
     4    31    34    1
     5    31    32    1
     6    32    35    1
     7    32    33    1
     8    33    36    1
     9    33    44    1
    10    39    40    1
    11    39    42    2
    12    39    41   am
    13    41    43    1
    14    29    28    1
    15    34    37    1
    16    35    38    1
    17    29    36    1
    18    44    45    1
    19    45    46    1
    20    15     6    1
    21    15    16   ar
    22    16    21    2
    23    16    17   ar
    24    17    23    1
    25    17    18   ar
    26    18    19   ar
    27    19    20   ar
    28    15    20   ar
    29    18    22    2
    30     6     7    1
    31     6    11    1
    32     7     9    1
    33     7     8    1
    34     8    13    1
    35     9    10    1
    36     9    12    1
    37    10     5    1
    38    10    11    1
    39    12    14    1
    40     5     4    1
    41     4     1    1
    42     1     2    1
    43     1    24    1
    44     1     3    2
    45    24    25    1
    46    28    25    1
    47    25    26    1
    48    25    27    2
@<TRIPOS>MOLECULE
UD2
 46 48 0 0 0
SMALL
GASTEIGER

@<TRIPOS>ATOM
      1 P          22.5152   72.8157   -3.9692 P.3     1  UNL1        0.2189
      2 O          22.4450   74.3986   -3.6849 O.3     1  UNL1       -0.4371
      3 O          23.5166   72.5473   -5.0247 O.2     1  UNL1       -0.5170
      4 O          22.9389   72.0464   -2.6192 O.3     1  UNL1       -0.3112
      5 C          22.7203   72.5876   -1.3151 C.3     1  UNL1        0.1811
      6 C          24.4490   71.4069    1.6096 C.3     1  UNL1        0.2383
      7 C          23.0927   71.9329    2.1443 C.3     1  UNL1        0.1895
      8 O          22.6805   71.1989    3.2989 O.3     1  UNL1       -0.3779
      9 C          22.1451   71.6619    0.9502 C.3     1  UNL1        0.1713
     10 C          23.0901   71.5416   -0.2606 C.3     1  UNL1        0.1764
     11 O          24.4255   71.7768    0.2138 O.3     1  UNL1       -0.3308
     12 O          21.4283   70.4423    1.1489 O.3     1  UNL1       -0.3794
     13 H          21.8373   71.4912    3.6708 H       1  UNL1        0.2106
     14 H          20.8618   70.4413    1.9321 H       1  UNL1        0.2105
     15 N          25.5637   72.0612    2.2984 N.ar    1  UNL1       -0.2551
     16 C          25.4324   73.3309    2.7219 C.ar    1  UNL1        0.3323
     17 N          26.4404   73.9570    3.3574 N.ar    1  UNL1       -0.2743
     18 C          27.6045   73.3143    3.5818 C.ar    1  UNL1        0.2626
     19 C          27.7562   71.9772    3.1423 C.ar    1  UNL1        0.0795
     20 C          26.7276   71.3726    2.5115 C.ar    1  UNL1        0.0869
     21 O          24.3883   73.9226    2.5266 O.2     1  UNL1       -0.2464
     22 O          28.5176   73.8798    4.1573 O.2     1  UNL1       -0.2670
     23 H          26.3294   74.8731    3.6551 H       1  UNL1        0.1734
     24 O          21.0712   72.2925   -4.4535 O.3     1  UNL1       -0.2703
     25 P          20.0884   71.1136   -3.9665 P.3     1  UNL1        0.2208
     26 O          20.9640   69.8600   -3.4610 O.3     1  UNL1       -0.4371
     27 O          19.2423   71.6033   -2.8562 O.2     1  UNL1       -0.5170
     28 O          19.1519   70.6547   -5.1934 O.3     1  UNL1       -0.2865
     29 C          18.3384   71.5656   -5.9348 C.3     1  UNL1        0.2611
     30 C          16.8940   71.0597   -5.9566 C.3     1  UNL1        0.1582
     31 C          16.8469   69.7060   -6.6718 C.3     1  UNL1        0.1625
     32 C          17.4278   69.8641   -8.0796 C.3     1  UNL1        0.1686
     33 C          18.8521   70.4161   -7.9760 C.3     1  UNL1        0.1760
     34 O          15.4917   69.2605   -6.7617 O.3     1  UNL1       -0.3801
     35 O          16.6177   70.7693   -8.8317 O.3     1  UNL1       -0.3794
     36 O          18.8290   71.6604   -7.2737 O.3     1  UNL1       -0.3263
     37 H          15.3872   68.4068   -7.2037 H       1  UNL1        0.2105
     38 H          16.9282   70.9177   -9.7359 H       1  UNL1        0.2105
     39 C          16.4896   69.7068   -3.9706 C.2     1  UNL1        0.2231
     40 C          15.9915   69.5467   -2.5582 C.3     1  UNL1        0.0946
     41 N          16.4090   70.9047   -4.5827 N.am    1  UNL1       -0.2994
     42 O          16.9637   68.7570   -4.5582 O.2     1  UNL1       -0.2751
     43 H          16.0292   71.6641   -4.1137 H       1  UNL1        0.1496
     44 C          19.4181   70.6333   -9.3806 C.3     1  UNL1        0.1693
     45 O          18.4951   71.4040  -10.1530 O.3     1  UNL1       -0.3794
     46 H          18.7893   71.5806  -11.0570 H       1  UNL1        0.2105
@<TRIPOS>BOND
     1    29    30    1
     2    30    41    1
     3    30    31    1
     4    31    34    1
     5    31    32    1
     6    32    35    1
     7    32    33    1
     8    33    36    1
     9    33    44    1
    10    39    40    1
    11    39    42    2
    12    39    41   am
    13    41    43    1
    14    29    28    1
    15    34    37    1
    16    35    38    1
    17    29    36    1
    18    44    45    1
    19    45    46    1
    20    15     6    1
    21    15    16   ar
    22    16    21    2
    23    16    17   ar
    24    17    23    1
    25    17    18   ar
    26    18    19   ar
    27    19    20   ar
    28    15    20   ar
    29    18    22    2
    30     6     7    1
    31     6    11    1
    32     7     9    1
    33     7     8    1
    34     8    13    1
    35     9    10    1
    36     9    12    1
    37    10     5    1
    38    10    11    1
    39    12    14    1
    40     5     4    1
    41     4     1    1
    42     1     2    1
    43     1    24    1
    44     1     3    2
    45    24    25    1
    46    28    25    1
    47    25    26    1
    48    25    27    2
@<TRIPOS>MOLECULE
UD2
 46 48 0 0 0
SMALL
GASTEIGER

@<TRIPOS>ATOM
      1 P          22.6980   72.0338   -3.4309 P.3     1  UNL1        0.2189
      2 O          23.8423   72.5065   -4.4597 O.3     1  UNL1       -0.4371
      3 O          23.0010   70.6683   -2.9486 O.2     1  UNL1       -0.5170
      4 O          22.6499   73.0466   -2.1797 O.3     1  UNL1       -0.3112
      5 C          22.2536   72.6428   -0.8677 C.3     1  UNL1        0.1811
      6 C          23.9451   72.6956    2.3060 C.3     1  UNL1        0.2383
      7 C          23.6698   71.1945    2.0361 C.3     1  UNL1        0.1895
      8 O          24.6849   70.3765    2.6213 O.3     1  UNL1       -0.3779
      9 C          23.7281   71.1259    0.4904 C.3     1  UNL1        0.1713
     10 C          23.4847   72.5789    0.0396 C.3     1  UNL1        0.1764
     11 O          23.2611   73.3622    1.2228 O.3     1  UNL1       -0.3308
     12 O          25.0137   70.6766    0.0590 O.3     1  UNL1       -0.3794
     13 H          24.5566   69.4288    2.4801 H       1  UNL1        0.2106
     14 H          25.2439   69.7889    0.3647 H       1  UNL1        0.2105
     15 N          23.3835   73.0990    3.5971 N.ar    1  UNL1       -0.2551
     16 C          22.1205   72.7589    3.9100 C.ar    1  UNL1        0.3323
     17 N          21.5786   73.1163    5.0893 N.ar    1  UNL1       -0.2743
     18 C          22.3008   73.8244    5.9813 C.ar    1  UNL1        0.2626
     19 C          23.6319   74.1884    5.6655 C.ar    1  UNL1        0.0795
     20 C          24.1511   73.8129    4.4776 C.ar    1  UNL1        0.0869
     21 O          21.4577   72.1204    3.1154 O.2     1  UNL1       -0.2464
     22 O          21.8117   74.1482    7.0492 O.2     1  UNL1       -0.2670
     23 H          20.6661   72.8639    5.2984 H       1  UNL1        0.1734
     24 O          21.2710   72.0355   -4.1771 O.3     1  UNL1       -0.2703
     25 P          19.8041   71.4990   -3.7855 P.3     1  UNL1        0.2208
     26 O          19.9401   70.2787   -2.7432 O.3     1  UNL1       -0.4371
     27 O          19.0278   72.5939   -3.1636 O.2     1  UNL1       -0.5170
     28 O          19.0470   70.9901   -5.1124 O.3     1  UNL1       -0.2865
     29 C          18.1640   71.8185   -5.8709 C.3     1  UNL1        0.2611
     30 C          16.7702   71.1868   -5.9010 C.3     1  UNL1        0.1582
     31 C          16.8502   69.8275   -6.6026 C.3     1  UNL1        0.1625
     32 C          17.4294   70.0229   -8.0064 C.3     1  UNL1        0.1686
     33 C          18.7982   70.6995   -7.8951 C.3     1  UNL1        0.1760
     34 O          15.5405   69.2633   -6.7006 O.3     1  UNL1       -0.3801
     35 O          16.5504   70.8457   -8.7755 O.3     1  UNL1       -0.3794
     36 O          18.6582   71.9435   -7.2060 O.3     1  UNL1       -0.3263
     37 H          15.5162   68.3995   -7.1347 H       1  UNL1        0.2105
     38 H          16.8558   71.0124   -9.6782 H       1  UNL1        0.2105
     39 C          16.4664   69.8226   -3.9050 C.2     1  UNL1        0.2231
     40 C          15.9698   69.6326   -2.4957 C.3     1  UNL1        0.0946
     41 N          16.2867   71.0027   -4.5303 N.am    1  UNL1       -0.2994
     42 O          17.0286   68.9128   -4.4780 O.2     1  UNL1       -0.2751
     43 H          15.8364   71.7300   -4.0729 H       1  UNL1        0.1496
     44 C          19.3573   70.9524   -9.2964 C.3     1  UNL1        0.1693
     45 O          18.6977   70.0995  -10.2344 O.3     1  UNL1       -0.3794
     46 H          19.0027   70.2059  -11.1458 H       1  UNL1        0.2105
@<TRIPOS>BOND
     1    29    30    1
     2    30    41    1
     3    30    31    1
     4    31    34    1
     5    31    32    1
     6    32    35    1
     7    32    33    1
     8    33    36    1
     9    33    44    1
    10    39    40    1
    11    39    42    2
    12    39    41   am
    13    41    43    1
    14    29    28    1
    15    34    37    1
    16    35    38    1
    17    29    36    1
    18    44    45    1
    19    45    46    1
    20    15     6    1
    21    15    16   ar
    22    16    21    2
    23    16    17   ar
    24    17    23    1
    25    17    18   ar
    26    18    19   ar
    27    19    20   ar
    28    15    20   ar
    29    18    22    2
    30     6     7    1
    31     6    11    1
    32     7     9    1
    33     7     8    1
    34     8    13    1
    35     9    10    1
    36     9    12    1
    37    10     5    1
    38    10    11    1
    39    12    14    1
    40     5     4    1
    41     4     1    1
    42     1     2    1
    43     1    24    1
    44     1     3    2
    45    24    25    1
    46    28    25    1
    47    25    26    1
    48    25    27    2
@<TRIPOS>MOLECULE
UD2
 46 48 0 0 0
SMALL
GASTEIGER

@<TRIPOS>ATOM
      1 P          20.2639   71.8512   -0.8035 P.3     1  UNL1        0.2189
      2 O          19.9259   72.8682    0.3978 O.3     1  UNL1       -0.4371
      3 O          20.9733   70.6696   -0.2654 O.2     1  UNL1       -0.5170
      4 O          18.8949   71.3802   -1.5089 O.3     1  UNL1       -0.3112
      5 C          18.8371   70.3156   -2.4600 C.3     1  UNL1        0.1811
      6 C          17.1089   70.4359   -5.6121 C.3     1  UNL1        0.2383
      7 C          16.9466   68.9705   -5.1344 C.3     1  UNL1        0.1895
      8 O          15.7153   68.4154   -5.6006 O.3     1  UNL1       -0.3779
      9 C          16.9326   69.1300   -3.5943 C.3     1  UNL1        0.1713
     10 C          17.6053   70.4945   -3.3510 C.3     1  UNL1        0.1764
     11 O          17.9996   71.0116   -4.6319 O.3     1  UNL1       -0.3308
     12 O          15.5901   69.1396   -3.1060 O.3     1  UNL1       -0.3794
     13 H          15.5682   67.4995   -5.3281 H       1  UNL1        0.2106
     14 H          15.0999   68.3258   -3.2848 H       1  UNL1        0.2105
     15 N          17.7115   70.4798   -6.9462 N.ar    1  UNL1       -0.2551
     16 C          16.9218   70.4715   -8.0348 C.ar    1  UNL1        0.3323
     17 N          17.4484   70.5110   -9.2731 N.ar    1  UNL1       -0.2743
     18 C          18.7855   70.5616   -9.4407 C.ar    1  UNL1        0.2626
     19 C          19.6287   70.5720   -8.3035 C.ar    1  UNL1        0.0795
     20 C          19.0734   70.5359   -7.0740 C.ar    1  UNL1        0.0869
     21 O          15.7144   70.4263   -7.8987 O.2     1  UNL1       -0.2464
     22 O          19.2634   70.5978  -10.5608 O.2     1  UNL1       -0.2670
     23 H          16.8646   70.5031  -10.0472 H       1  UNL1        0.1734
     24 O          21.1980   72.5912   -1.8866 O.3     1  UNL1       -0.2703
     25 P          20.9375   73.2109   -3.3499 P.3     1  UNL1        0.2208
     26 O          21.1268   72.0605   -4.4609 O.3     1  UNL1       -0.4371
     27 O          19.5593   73.7436   -3.4221 O.2     1  UNL1       -0.5170
     28 O          21.9881   74.4001   -3.6237 O.3     1  UNL1       -0.2865
     29 C          23.2909   74.1782   -4.1666 C.3     1  UNL1        0.2611
     30 C          24.1055   75.4714   -4.0855 C.3     1  UNL1        0.1582
     31 C          23.4244   76.5479   -4.9362 C.3     1  UNL1        0.1625
     32 C          23.2876   76.0372   -6.3731 C.3     1  UNL1        0.1686
     33 C          22.5042   74.7218   -6.3659 C.3     1  UNL1        0.1760
     34 O          24.2174   77.7372   -4.9254 O.3     1  UNL1       -0.3801
     35 O          24.5859   75.8174   -6.9275 O.3     1  UNL1       -0.3794
     36 O          23.1748   73.7744   -5.5325 O.3     1  UNL1       -0.3263
     37 H          23.8445   78.4628   -5.4447 H       1  UNL1        0.2105
     38 H          24.5753   75.4916   -7.8384 H       1  UNL1        0.2105
     39 C          25.3154   76.4531   -2.2120 C.2     1  UNL1        0.2231
     40 C          25.3876   76.9142   -0.7800 C.3     1  UNL1        0.0946
     41 N          24.1750   75.9194   -2.6924 N.am    1  UNL1       -0.2994
     42 O          26.2844   76.5621   -2.9341 O.2     1  UNL1       -0.2751
     43 H          23.4004   75.8312   -2.1151 H       1  UNL1        0.1496
     44 C          22.4145   74.1741   -7.7916 C.3     1  UNL1        0.1693
     45 O          23.4406   73.2001   -7.9938 O.3     1  UNL1       -0.3794
     46 H          23.4440   72.8095   -8.8784 H       1  UNL1        0.2105
@<TRIPOS>BOND
     1    29    30    1
     2    30    41    1
     3    30    31    1
     4    31    34    1
     5    31    32    1
     6    32    35    1
     7    32    33    1
     8    33    36    1
     9    33    44    1
    10    39    40    1
    11    39    42    2
    12    39    41   am
    13    41    43    1
    14    29    28    1
    15    34    37    1
    16    35    38    1
    17    29    36    1
    18    44    45    1
    19    45    46    1
    20    15     6    1
    21    15    16   ar
    22    16    21    2
    23    16    17   ar
    24    17    23    1
    25    17    18   ar
    26    18    19   ar
    27    19    20   ar
    28    15    20   ar
    29    18    22    2
    30     6     7    1
    31     6    11    1
    32     7     9    1
    33     7     8    1
    34     8    13    1
    35     9    10    1
    36     9    12    1
    37    10     5    1
    38    10    11    1
    39    12    14    1
    40     5     4    1
    41     4     1    1
    42     1     2    1
    43     1    24    1
    44     1     3    2
    45    24    25    1
    46    28    25    1
    47    25    26    1
    48    25    27    2
@<TRIPOS>MOLECULE
UD2
 46 48 0 0 0
SMALL
GASTEIGER

@<TRIPOS>ATOM
      1 P          22.6393   71.4996   -2.6937 P.3     1  UNL1        0.2189
      2 O          24.0306   70.9450   -3.2837 O.3     1  UNL1       -0.4371
      3 O          22.1425   70.5763   -1.6498 O.2     1  UNL1       -0.5170
      4 O          22.8719   72.9588   -2.0531 O.3     1  UNL1       -0.3112
      5 C          21.9662   73.5514   -1.1204 C.3     1  UNL1        0.1811
      6 C          23.3975   72.2195    1.8986 C.3     1  UNL1        0.2383
      7 C          22.6858   73.5215    2.3461 C.3     1  UNL1        0.1895
      8 O          22.2131   73.4084    3.6899 O.3     1  UNL1       -0.3779
      9 C          21.5034   73.6049    1.3499 C.3     1  UNL1        0.1713
     10 C          21.9453   72.7229    0.1665 C.3     1  UNL1        0.1764
     11 O          23.2670   72.2432    0.4605 O.3     1  UNL1       -0.3308
     12 O          20.3127   73.0854    1.9442 O.3     1  UNL1       -0.3794
     13 H          21.7610   74.1983    4.0158 H       1  UNL1        0.2106
     14 H          20.0216   73.5676    2.7298 H       1  UNL1        0.2105
     15 N          24.8088   72.2426    2.2894 N.ar    1  UNL1       -0.2551
     16 C          25.5092   71.0950    2.3254 C.ar    1  UNL1        0.3323
     17 N          26.8075   71.0866    2.6811 N.ar    1  UNL1       -0.2743
     18 C          27.4294   72.2380    3.0070 C.ar    1  UNL1        0.2626
     19 C          26.7045   73.4535    2.9724 C.ar    1  UNL1        0.0795
     20 C          25.4051   73.4329    2.6080 C.ar    1  UNL1        0.0869
     21 O          24.9614   70.0494    2.0339 O.2     1  UNL1       -0.2464
     22 O          28.6045   72.2318    3.3287 O.2     1  UNL1       -0.2670
     23 H          27.2974   70.2502    2.7030 H       1  UNL1        0.1734
     24 O          21.5555   71.6017   -3.8803 O.3     1  UNL1       -0.2703
     25 P          19.9460   71.5897   -3.9283 P.3     1  UNL1        0.2208
     26 O          19.3883   70.4553   -2.9304 O.3     1  UNL1       -0.4371
     27 O          19.4298   72.9113   -3.5096 O.2     1  UNL1       -0.5170
     28 O          19.4563   71.2728   -5.4291 O.3     1  UNL1       -0.2865
     29 C          18.3972   71.9866   -6.0695 C.3     1  UNL1        0.2611
     30 C          17.0652   71.2882   -5.7858 C.3     1  UNL1        0.1582
     31 C          17.1015   69.8772   -6.3810 C.3     1  UNL1        0.1625
     32 C          17.3981   69.9745   -7.8799 C.3     1  UNL1        0.1686
     33 C          18.7177   70.7238   -8.0829 C.3     1  UNL1        0.1760
     34 O          15.8351   69.2439   -6.1849 O.3     1  UNL1       -0.3801
     35 O          16.3414   70.6822   -8.5310 O.3     1  UNL1       -0.3794
     36 O          18.6276   72.0160   -7.4796 O.3     1  UNL1       -0.3263
     37 H          15.7867   68.3447   -6.5374 H       1  UNL1        0.2105
     38 H          16.4639   70.7823   -9.4855 H       1  UNL1        0.2105
     39 C          15.9709   72.0230   -3.7363 C.2     1  UNL1        0.2231
     40 C          15.7546   71.9367   -2.2483 C.3     1  UNL1        0.0946
     41 N          16.8555   71.2038   -4.3382 N.am    1  UNL1       -0.2994
     42 O          15.3485   72.8306   -4.3941 O.2     1  UNL1       -0.2751
     43 H          17.3541   70.5586   -3.8126 H       1  UNL1        0.1496
     44 C          18.9915   70.8776   -9.5802 C.3     1  UNL1        0.1693
     45 O          18.2203   69.9188  -10.3072 O.3     1  UNL1       -0.3794
     46 H          18.3442   69.9585  -11.2653 H       1  UNL1        0.2105
@<TRIPOS>BOND
     1    29    30    1
     2    30    41    1
     3    30    31    1
     4    31    34    1
     5    31    32    1
     6    32    35    1
     7    32    33    1
     8    33    36    1
     9    33    44    1
    10    39    40    1
    11    39    42    2
    12    39    41   am
    13    41    43    1
    14    29    28    1
    15    34    37    1
    16    35    38    1
    17    29    36    1
    18    44    45    1
    19    45    46    1
    20    15     6    1
    21    15    16   ar
    22    16    21    2
    23    16    17   ar
    24    17    23    1
    25    17    18   ar
    26    18    19   ar
    27    19    20   ar
    28    15    20   ar
    29    18    22    2
    30     6     7    1
    31     6    11    1
    32     7     9    1
    33     7     8    1
    34     8    13    1
    35     9    10    1
    36     9    12    1
    37    10     5    1
    38    10    11    1
    39    12    14    1
    40     5     4    1
    41     4     1    1
    42     1     2    1
    43     1    24    1
    44     1     3    2
    45    24    25    1
    46    28    25    1
    47    25    26    1
    48    25    27    2
