@<TRIPOS>MOLECULE
UD1
 46 48 0 0 0
SMALL
GASTEIGER

@<TRIPOS>ATOM
      1 P          20.7735   71.0828   -2.2242 P.3     1  UNL1        0.2189
      2 O          20.7645   72.5602   -2.3017 O.2     1  UNL1       -0.5170
      3 O          22.1607   70.5226   -2.8195 O.3     1  UNL1       -0.4371
      4 O          19.5454   70.4934   -3.0827 O.3     1  UNL1       -0.3112
      5 C          18.3457   70.9137   -2.4313 C.3     1  UNL1        0.1811
      6 C          16.8869   70.5649   -5.6990 C.3     1  UNL1        0.2383
      7 C          16.8757   69.1304   -5.1137 C.3     1  UNL1        0.1895
      8 O          15.7717   68.3801   -5.6210 O.3     1  UNL1       -0.3779
      9 C          16.7109   69.3996   -3.5953 C.3     1  UNL1        0.1713
     10 C          17.1803   70.8568   -3.4202 C.3     1  UNL1        0.1764
     11 O          17.6095   71.3277   -4.7092 O.3     1  UNL1       -0.3308
     12 O          15.3425   69.2580   -3.2077 O.3     1  UNL1       -0.3794
     13 H          15.8226   67.5012   -5.2203 H       1  UNL1        0.2106
     14 H          15.0920   68.3438   -3.3965 H       1  UNL1        0.2105
     15 N          17.5847   70.5957   -6.9849 N.ar    1  UNL1       -0.2551
     16 C          16.8806   70.5142   -8.1272 C.ar    1  UNL1        0.3323
     17 N          17.4957   70.5441   -9.3242 N.ar    1  UNL1       -0.2743
     18 C          18.8381   70.6477   -9.3960 C.ar    1  UNL1        0.2626
     19 C          19.5922   70.7283   -8.2011 C.ar    1  UNL1        0.0795
     20 C          18.9492   70.7015   -7.0140 C.ar    1  UNL1        0.0869
     21 O          15.6692   70.4204   -8.0789 O.2     1  UNL1       -0.2464
     22 O          19.3957   70.6700  -10.4776 O.2     1  UNL1       -0.2670
     23 H          16.9717   70.4890  -10.1382 H       1  UNL1        0.1734
     24 O          20.6234   70.6250   -0.6891 O.3     1  UNL1       -0.2703
     25 P          21.8552   71.2791    0.1137 P.3     1  UNL1        0.2208
     26 O          23.1107   71.0440   -0.6328 O.2     1  UNL1       -0.5170
     27 O          21.9646   70.6055    1.5719 O.3     1  UNL1       -0.4371
     28 O          21.6137   72.8624    0.2723 O.3     1  UNL1       -0.2865
     29 C          22.8925   73.4555    0.5048 C.3     1  UNL1        0.2611
     30 C          22.8093   74.3727    1.7263 C.3     1  UNL1        0.1582
     31 C          21.7507   75.4516    1.4718 C.3     1  UNL1        0.1625
     32 C          22.0754   76.1546    0.1495 C.3     1  UNL1        0.1686
     33 C          22.2109   75.1030   -0.9538 C.3     1  UNL1        0.1760
     34 O          21.7681   76.4009    2.5394 O.3     1  UNL1       -0.3801
     35 O          21.0224   77.0623   -0.1804 O.3     1  UNL1       -0.3794
     36 O          23.2799   74.2109   -0.6409 O.3     1  UNL1       -0.3263
     37 H          21.0886   77.0592    2.3391 H       1  UNL1        0.2105
     38 H          21.2665   77.4815   -1.0177 H       1  UNL1        0.2105
     39 C          23.0059   73.8465    4.0967 C.2     1  UNL1        0.2231
     40 C          22.6213   73.0372    5.3089 C.3     1  UNL1        0.0946
     41 N          22.4357   73.5871    2.9043 N.am    1  UNL1       -0.2994
     42 O          23.8293   74.7312    4.1946 O.2     1  UNL1       -0.2751
     43 H          21.7769   72.8790    2.8256 H       1  UNL1        0.1496
     44 C          22.5032   75.7975   -2.2855 C.3     1  UNL1        0.1693
     45 O          21.3422   75.7426   -3.1168 O.3     1  UNL1       -0.3794
     46 H          21.5685   76.1897   -3.9435 H       1  UNL1        0.2105
@<TRIPOS>BOND
     1    29    30    1
     2    29    28    1
     3    29    36    1
     4    30    31    1
     5    30    41    1
     6    31    32    1
     7    31    34    1
     8    32    33    1
     9    32    35    1
    10    33    44    1
    11    33    36    1
    12    44    45    1
    13    39    40    1
    14    39    41   am
    15    39    42    2
    16    41    43    1
    17    28    25    1
    18    34    37    1
    19    35    38    1
    20    45    46    1
    21    15    16   ar
    22    15    20   ar
    23    15     6    1
    24    16    17   ar
    25    16    21    2
    26    17    18   ar
    27    17    23    1
    28    18    19   ar
    29    18    22    2
    30    19    20   ar
    31     6     7    1
    32     6    11    1
    33     7     8    1
    34     7     9    1
    35     8    13    1
    36     9    10    1
    37     9    12    1
    38    10    11    1
    39    10     5    1
    40    12    14    1
    41     5     4    1
    42     4     1    1
    43     1     2    2
    44     1     3    1
    45     1    24    1
    46    24    25    1
    47    25    26    2
    48    25    27    1
@<TRIPOS>MOLECULE
UD1
 46 48 0 0 0
SMALL
GASTEIGER

@<TRIPOS>ATOM
      1 P          20.8267   71.9834   -2.1034 P.3     1  UNL1        0.2189
      2 O          21.6803   73.1654   -2.3546 O.2     1  UNL1       -0.5170
      3 O          21.6098   70.6504   -2.5535 O.3     1  UNL1       -0.4371
      4 O          19.4642   72.1161   -2.9512 O.3     1  UNL1       -0.3112
      5 C          18.5505   71.1555   -2.4193 C.3     1  UNL1        0.1811
      6 C          16.9680   70.6443   -5.6070 C.3     1  UNL1        0.2383
      7 C          17.0363   69.2309   -4.9764 C.3     1  UNL1        0.1895
      8 O          15.9409   68.4240   -5.4105 O.3     1  UNL1       -0.3779
      9 C          16.9263   69.5444   -3.4616 C.3     1  UNL1        0.1713
     10 C          17.3471   71.0229   -3.3538 C.3     1  UNL1        0.1764
     11 O          17.7026   71.4658   -4.6747 O.3     1  UNL1       -0.3308
     12 O          15.5821   69.3659   -3.0099 O.3     1  UNL1       -0.3794
     13 H          16.0422   67.5615   -4.9847 H       1  UNL1        0.2106
     14 H          15.3586   68.4374   -3.1584 H       1  UNL1        0.2105
     15 N          17.6086   70.6576   -6.9226 N.ar    1  UNL1       -0.2551
     16 C          16.8619   70.4970   -8.0290 C.ar    1  UNL1        0.3323
     17 N          17.4237   70.5089   -9.2522 N.ar    1  UNL1       -0.2743
     18 C          18.7551   70.6741   -9.3869 C.ar    1  UNL1        0.2626
     19 C          19.5539   70.8383   -8.2302 C.ar    1  UNL1        0.0795
     20 C          18.9637   70.8277   -7.0157 C.ar    1  UNL1        0.0869
     21 O          15.6597   70.3470   -7.9239 O.2     1  UNL1       -0.2464
     22 O          19.2648   70.6802  -10.4921 O.2     1  UNL1       -0.2670
     23 H          16.8693   70.3963  -10.0397 H       1  UNL1        0.1734
     24 O          20.4767   71.8977   -0.5353 O.3     1  UNL1       -0.2703
     25 P          21.8128   71.4035    0.2129 P.3     1  UNL1        0.2208
     26 O          22.8965   71.2264   -0.7786 O.2     1  UNL1       -0.5170
     27 O          21.5279   70.0014    0.9514 O.3     1  UNL1       -0.4371
     28 O          22.2567   72.5018    1.3025 O.3     1  UNL1       -0.2865
     29 C          22.3836   71.8191    2.5512 C.3     1  UNL1        0.2611
     30 C          21.8999   72.7335    3.6781 C.3     1  UNL1        0.1582
     31 C          22.7370   74.0176    3.6759 C.3     1  UNL1        0.1625
     32 C          24.2198   73.6361    3.7368 C.3     1  UNL1        0.1686
     33 C          24.5292   72.6559    2.6033 C.3     1  UNL1        0.1760
     34 O          22.3966   74.8130    4.8129 O.3     1  UNL1       -0.3801
     35 O          25.0216   74.8094    3.5880 O.3     1  UNL1       -0.3794
     36 O          23.7500   71.4712    2.7643 O.3     1  UNL1       -0.3263
     37 H          22.9450   75.6085    4.7716 H       1  UNL1        0.2105
     38 H          25.9454   74.5243    3.6314 H       1  UNL1        0.2105
     39 C          20.1537   74.1954    2.8134 C.2     1  UNL1        0.2231
     40 C          18.7018   74.5384    2.5971 C.3     1  UNL1        0.0946
     41 N          20.4896   73.0668    3.4673 N.am    1  UNL1       -0.2994
     42 O          21.0198   74.9360    2.3992 O.2     1  UNL1       -0.2751
     43 H          19.7967   72.4741    3.7991 H       1  UNL1        0.1496
     44 C          26.0154   72.2936    2.6355 C.3     1  UNL1        0.1693
     45 O          26.1662   70.8832    2.4620 O.3     1  UNL1       -0.3794
     46 H          27.1147   70.6978    2.4887 H       1  UNL1        0.2105
@<TRIPOS>BOND
     1    29    30    1
     2    29    28    1
     3    29    36    1
     4    30    31    1
     5    30    41    1
     6    31    32    1
     7    31    34    1
     8    32    33    1
     9    32    35    1
    10    33    44    1
    11    33    36    1
    12    44    45    1
    13    39    40    1
    14    39    41   am
    15    39    42    2
    16    41    43    1
    17    28    25    1
    18    34    37    1
    19    35    38    1
    20    45    46    1
    21    15    16   ar
    22    15    20   ar
    23    15     6    1
    24    16    17   ar
    25    16    21    2
    26    17    18   ar
    27    17    23    1
    28    18    19   ar
    29    18    22    2
    30    19    20   ar
    31     6     7    1
    32     6    11    1
    33     7     8    1
    34     7     9    1
    35     8    13    1
    36     9    10    1
    37     9    12    1
    38    10    11    1
    39    10     5    1
    40    12    14    1
    41     5     4    1
    42     4     1    1
    43     1     2    2
    44     1     3    1
    45     1    24    1
    46    24    25    1
    47    25    26    2
    48    25    27    1
@<TRIPOS>MOLECULE
UD1
 46 48 0 0 0
SMALL
GASTEIGER

@<TRIPOS>ATOM
      1 P          21.6745   71.0553    0.1906 P.3     1  UNL1        0.2189
      2 O          21.7398   70.0214    1.2468 O.2     1  UNL1       -0.5170
      3 O          23.0536   71.0615   -0.6404 O.3     1  UNL1       -0.4371
      4 O          21.4502   72.4993    0.8670 O.3     1  UNL1       -0.3112
      5 C          21.8387   72.3797    2.2364 C.3     1  UNL1        0.1811
      6 C          24.9893   73.9439    2.9810 C.3     1  UNL1        0.2383
      7 C          24.7895   74.1769    1.4624 C.3     1  UNL1        0.1895
      8 O          25.4011   75.3990    1.0480 O.3     1  UNL1       -0.3779
      9 C          23.2454   74.2637    1.3467 C.3     1  UNL1        0.1713
     10 C          22.7344   73.5591    2.6182 C.3     1  UNL1        0.1764
     11 O          23.8850   73.0860    3.3390 O.3     1  UNL1       -0.3308
     12 O          22.8217   75.6284    1.3185 O.3     1  UNL1       -0.3794
     13 H          25.2417   75.4839    0.0978 H       1  UNL1        0.2106
     14 H          23.2213   76.0288    0.5348 H       1  UNL1        0.2105
     15 N          26.2659   73.2776    3.2407 N.ar    1  UNL1       -0.2551
     16 C          27.1659   73.8559    4.0549 C.ar    1  UNL1        0.3323
     17 N          28.3467   73.2639    4.3148 N.ar    1  UNL1       -0.2743
     18 C          28.6506   72.0775    3.7510 C.ar    1  UNL1        0.2626
     19 C          27.7148   71.4603    2.8872 C.ar    1  UNL1        0.0795
     20 C          26.5358   72.0736    2.6480 C.ar    1  UNL1        0.0869
     21 O          26.9064   74.9259    4.5710 O.2     1  UNL1       -0.2464
     22 O          29.7198   71.5436    3.9815 O.2     1  UNL1       -0.2670
     23 H          28.9821   73.6931    4.9083 H       1  UNL1        0.1734
     24 O          20.4502   70.7320   -0.8020 O.3     1  UNL1       -0.2703
     25 P          20.8202   71.3858   -2.2250 P.3     1  UNL1        0.2208
     26 O          21.7838   70.5142   -2.9326 O.2     1  UNL1       -0.5170
     27 O          21.4790   72.8367   -1.9947 O.3     1  UNL1       -0.4371
     28 O          19.4848   71.5387   -3.1103 O.3     1  UNL1       -0.2865
     29 C          19.2813   70.2894   -3.7728 C.3     1  UNL1        0.2611
     30 C          18.7656   70.5472   -5.1897 C.3     1  UNL1        0.1582
     31 C          17.4544   71.3372   -5.1098 C.3     1  UNL1        0.1625
     32 C          16.4855   70.5871   -4.1897 C.3     1  UNL1        0.1686
     33 C          17.1724   70.3289   -2.8470 C.3     1  UNL1        0.1760
     34 O          16.8860   71.4548   -6.4154 O.3     1  UNL1       -0.3801
     35 O          15.3130   71.3773   -3.9842 O.3     1  UNL1       -0.3794
     36 O          18.3289   69.5168   -3.0453 O.3     1  UNL1       -0.3263
     37 H          16.0655   71.9575   -6.3186 H       1  UNL1        0.2105
     38 H          14.7321   70.8693   -3.4003 H       1  UNL1        0.2105
     39 C          19.9871   71.0436   -7.2381 C.2     1  UNL1        0.2231
     40 C          21.0098   71.8383   -8.0094 C.3     1  UNL1        0.0946
     41 N          19.7586   71.3192   -5.9396 N.am    1  UNL1       -0.2994
     42 O          19.3702   70.1553   -7.7863 O.2     1  UNL1       -0.2751
     43 H          20.2523   72.0299   -5.5006 H       1  UNL1        0.1496
     44 C          16.2015   69.6086   -1.9091 C.3     1  UNL1        0.1693
     45 O          16.6480   68.2675   -1.6990 O.3     1  UNL1       -0.3794
     46 H          16.0101   67.8500   -1.1046 H       1  UNL1        0.2105
@<TRIPOS>BOND
     1    29    30    1
     2    29    28    1
     3    29    36    1
     4    30    31    1
     5    30    41    1
     6    31    32    1
     7    31    34    1
     8    32    33    1
     9    32    35    1
    10    33    44    1
    11    33    36    1
    12    44    45    1
    13    39    40    1
    14    39    41   am
    15    39    42    2
    16    41    43    1
    17    28    25    1
    18    34    37    1
    19    35    38    1
    20    45    46    1
    21    15    16   ar
    22    15    20   ar
    23    15     6    1
    24    16    17   ar
    25    16    21    2
    26    17    18   ar
    27    17    23    1
    28    18    19   ar
    29    18    22    2
    30    19    20   ar
    31     6     7    1
    32     6    11    1
    33     7     8    1
    34     7     9    1
    35     8    13    1
    36     9    10    1
    37     9    12    1
    38    10    11    1
    39    10     5    1
    40    12    14    1
    41     5     4    1
    42     4     1    1
    43     1     2    2
    44     1     3    1
    45     1    24    1
    46    24    25    1
    47    25    26    2
    48    25    27    1
@<TRIPOS>MOLECULE
UD1
 46 48 0 0 0
SMALL
GASTEIGER

@<TRIPOS>ATOM
      1 P          20.9192   70.8384   -3.5119 P.3     1  UNL1        0.2189
      2 O          21.8361   71.4749   -4.4829 O.2     1  UNL1       -0.5170
      3 O          20.3969   69.4362   -4.1065 O.3     1  UNL1       -0.4371
      4 O          19.6622   71.8089   -3.2459 O.3     1  UNL1       -0.3112
      5 C          18.6481   71.0134   -2.6303 C.3     1  UNL1        0.1811
      6 C          17.0024   70.5742   -5.7967 C.3     1  UNL1        0.2383
      7 C          17.0061   69.1610   -5.1618 C.3     1  UNL1        0.1895
      8 O          15.8657   68.4100   -5.5797 O.3     1  UNL1       -0.3779
      9 C          16.9309   69.4844   -3.6469 C.3     1  UNL1        0.1713
     10 C          17.4280   70.9397   -3.5497 C.3     1  UNL1        0.1764
     11 O          17.7895   71.3598   -4.8764 O.3     1  UNL1       -0.3308
     12 O          15.5850   69.3763   -3.1784 O.3     1  UNL1       -0.3794
     13 H          15.9279   67.5448   -5.1520 H       1  UNL1        0.2106
     14 H          15.3125   68.4600   -3.3207 H       1  UNL1        0.2105
     15 N          17.6267   70.5507   -7.1200 N.ar    1  UNL1       -0.2551
     16 C          16.8562   70.4728   -8.2189 C.ar    1  UNL1        0.3323
     17 N          17.4029   70.4534   -9.4489 N.ar    1  UNL1       -0.2743
     18 C          18.7421   70.5030   -9.5981 C.ar    1  UNL1        0.2626
     19 C          19.5653   70.5792   -8.4495 C.ar    1  UNL1        0.0795
     20 C          18.9903   70.6025   -7.2279 C.ar    1  UNL1        0.0869
     21 O          15.6468   70.4274   -8.1007 O.2     1  UNL1       -0.2464
     22 O          19.2377   70.4807  -10.7095 O.2     1  UNL1       -0.2670
     23 H          16.8318   70.4017  -10.2308 H       1  UNL1        0.1734
     24 O          21.6986   70.5788   -2.1284 O.3     1  UNL1       -0.2703
     25 P          22.8971   71.6504   -2.0618 P.3     1  UNL1        0.2208
     26 O          22.4930   72.8867   -2.7669 O.2     1  UNL1       -0.5170
     27 O          24.2076   71.0355   -2.7666 O.3     1  UNL1       -0.4371
     28 O          23.2274   71.9932   -0.5243 O.3     1  UNL1       -0.2865
     29 C          22.6562   70.9485    0.2652 C.3     1  UNL1        0.2611
     30 C          21.5839   71.5378    1.1833 C.3     1  UNL1        0.1582
     31 C          22.2224   72.6055    2.0788 C.3     1  UNL1        0.1625
     32 C          23.4269   71.9869    2.7963 C.3     1  UNL1        0.1686
     33 C          24.3618   71.3663    1.7561 C.3     1  UNL1        0.1760
     34 O          21.2676   73.0568    3.0411 O.3     1  UNL1       -0.3801
     35 O          24.1236   73.0015    3.5221 O.3     1  UNL1       -0.3794
     36 O          23.6773   70.3336    1.0479 O.3     1  UNL1       -0.3263
     37 H          21.7103   73.7257    3.5815 H       1  UNL1        0.2105
     38 H          24.8729   72.5700    3.9568 H       1  UNL1        0.2105
     39 C          20.5418   73.4694    0.1263 C.2     1  UNL1        0.2231
     40 C          19.4521   74.0946   -0.7068 C.3     1  UNL1        0.0946
     41 N          20.5258   72.1455    0.3736 N.am    1  UNL1       -0.2994
     42 O          21.4330   74.1586    0.5747 O.2     1  UNL1       -0.2751
     43 H          19.8126   71.5938    0.0151 H       1  UNL1        0.1496
     44 C          25.5845   70.7741    2.4600 C.3     1  UNL1        0.1693
     45 O          26.6077   71.7671    2.5544 O.3     1  UNL1       -0.3794
     46 H          27.3581   71.3540    3.0026 H       1  UNL1        0.2105
@<TRIPOS>BOND
     1    29    30    1
     2    29    28    1
     3    29    36    1
     4    30    31    1
     5    30    41    1
     6    31    32    1
     7    31    34    1
     8    32    33    1
     9    32    35    1
    10    33    44    1
    11    33    36    1
    12    44    45    1
    13    39    40    1
    14    39    41   am
    15    39    42    2
    16    41    43    1
    17    28    25    1
    18    34    37    1
    19    35    38    1
    20    45    46    1
    21    15    16   ar
    22    15    20   ar
    23    15     6    1
    24    16    17   ar
    25    16    21    2
    26    17    18   ar
    27    17    23    1
    28    18    19   ar
    29    18    22    2
    30    19    20   ar
    31     6     7    1
    32     6    11    1
    33     7     8    1
    34     7     9    1
    35     8    13    1
    36     9    10    1
    37     9    12    1
    38    10    11    1
    39    10     5    1
    40    12    14    1
    41     5     4    1
    42     4     1    1
    43     1     2    2
    44     1     3    1
    45     1    24    1
    46    24    25    1
    47    25    26    2
    48    25    27    1
@<TRIPOS>MOLECULE
UD1
 46 48 0 0 0
SMALL
GASTEIGER

@<TRIPOS>ATOM
      1 P          20.7757   71.5376   -2.0280 P.3     1  UNL1        0.2189
      2 O          21.1609   72.8585   -2.5717 O.2     1  UNL1       -0.5170
      3 O          22.0988   70.6576   -1.7680 O.3     1  UNL1       -0.4371
      4 O          19.8269   70.7789   -3.0849 O.3     1  UNL1       -0.3112
      5 C          18.6179   70.4541   -2.3971 C.3     1  UNL1        0.1811
      6 C          17.0572   70.5157   -5.6355 C.3     1  UNL1        0.2383
      7 C          16.8989   69.0510   -5.1561 C.3     1  UNL1        0.1895
      8 O          15.7070   68.4668   -5.6828 O.3     1  UNL1       -0.3779
      9 C          16.7989   69.2209   -3.6178 C.3     1  UNL1        0.1713
     10 C          17.4319   70.6004   -3.3516 C.3     1  UNL1        0.1764
     11 O          17.8822   71.1175   -4.6153 O.3     1  UNL1       -0.3308
     12 O          15.4322   69.2013   -3.2001 O.3     1  UNL1       -0.3794
     13 H          15.6683   67.5599   -5.3488 H       1  UNL1        0.2106
     14 H          15.0770   68.3371   -3.4472 H       1  UNL1        0.2105
     15 N          17.7254   70.5670   -6.9364 N.ar    1  UNL1       -0.2551
     16 C          16.9938   70.5230   -8.0634 C.ar    1  UNL1        0.3323
     17 N          17.5813   70.5725   -9.2736 N.ar    1  UNL1       -0.2743
     18 C          18.9231   70.6582   -9.3745 C.ar    1  UNL1        0.2626
     19 C          19.7058   70.6994   -8.1961 C.ar    1  UNL1        0.0795
     20 C          19.0903   70.6536   -6.9951 C.ar    1  UNL1        0.0869
     21 O          15.7825   70.4458   -7.9888 O.2     1  UNL1       -0.2464
     22 O          19.4557   70.6982  -10.4682 O.2     1  UNL1       -0.2670
     23 H          17.0378   70.5444  -10.0761 H       1  UNL1        0.1734
     24 O          19.9825   71.7380   -0.6426 O.3     1  UNL1       -0.2703
     25 P          21.0880   71.7648    0.5264 P.3     1  UNL1        0.2208
     26 O          21.2627   70.4005    1.0712 O.2     1  UNL1       -0.5170
     27 O          20.6037   72.7532    1.7014 O.3     1  UNL1       -0.4371
     28 O          22.4885   72.2879   -0.0697 O.3     1  UNL1       -0.2865
     29 C          22.6472   73.6383    0.3691 C.3     1  UNL1        0.2611
     30 C          23.3685   73.6495    1.7181 C.3     1  UNL1        0.1582
     31 C          22.5481   72.8440    2.7318 C.3     1  UNL1        0.1625
     32 C          21.1180   73.3939    2.7525 C.3     1  UNL1        0.1686
     33 C          20.5653   73.3991    1.3257 C.3     1  UNL1        0.1760
     34 O          23.1323   72.9710    4.0295 O.3     1  UNL1       -0.3801
     35 O          20.2994   72.5657    3.5806 O.3     1  UNL1       -0.3794
     36 O          21.3647   74.2472    0.5021 O.3     1  UNL1       -0.3263
     37 H          22.5861   72.4498    4.6340 H       1  UNL1        0.2105
     38 H          19.4099   72.9465    3.5648 H       1  UNL1        0.2105
     39 C          24.9000   71.7687    1.9449 C.2     1  UNL1        0.2231
     40 C          26.2652   71.1480    1.7925 C.3     1  UNL1        0.0946
     41 N          24.6944   73.0459    1.5697 N.am    1  UNL1       -0.2994
     42 O          23.9865   71.1185    2.4061 O.2     1  UNL1       -0.2751
     43 H          25.4254   73.5666    1.2008 H       1  UNL1        0.1496
     44 C          19.1254   73.9163    1.3397 C.3     1  UNL1        0.1693
     45 O          18.5051   73.6337    0.0837 O.3     1  UNL1       -0.3794
     46 H          17.6021   73.9753    0.1345 H       1  UNL1        0.2105
@<TRIPOS>BOND
     1    29    30    1
     2    29    28    1
     3    29    36    1
     4    30    31    1
     5    30    41    1
     6    31    32    1
     7    31    34    1
     8    32    33    1
     9    32    35    1
    10    33    44    1
    11    33    36    1
    12    44    45    1
    13    39    40    1
    14    39    41   am
    15    39    42    2
    16    41    43    1
    17    28    25    1
    18    34    37    1
    19    35    38    1
    20    45    46    1
    21    15    16   ar
    22    15    20   ar
    23    15     6    1
    24    16    17   ar
    25    16    21    2
    26    17    18   ar
    27    17    23    1
    28    18    19   ar
    29    18    22    2
    30    19    20   ar
    31     6     7    1
    32     6    11    1
    33     7     8    1
    34     7     9    1
    35     8    13    1
    36     9    10    1
    37     9    12    1
    38    10    11    1
    39    10     5    1
    40    12    14    1
    41     5     4    1
    42     4     1    1
    43     1     2    2
    44     1     3    1
    45     1    24    1
    46    24    25    1
    47    25    26    2
    48    25    27    1
@<TRIPOS>MOLECULE
UD1
 46 48 0 0 0
SMALL
GASTEIGER

@<TRIPOS>ATOM
      1 P          16.6366   70.0427   -2.6136 P.3     1  UNL1        0.2189
      2 O          16.0688   69.0586   -3.5612 O.2     1  UNL1       -0.5170
      3 O          18.0114   69.4685   -2.0031 O.3     1  UNL1       -0.4371
      4 O          15.5881   70.3037   -1.4197 O.3     1  UNL1       -0.3112
      5 C          15.2667   69.0274   -0.8647 C.3     1  UNL1        0.1811
      6 C          12.3351   68.0786    0.9881 C.3     1  UNL1        0.2383
      7 C          12.6512   69.5162    1.4713 C.3     1  UNL1        0.1895
      8 O          11.4563   70.2062    1.8391 O.3     1  UNL1       -0.3779
      9 C          13.2905   70.1509    0.2089 C.3     1  UNL1        0.1713
     10 C          13.7591   68.9408   -0.6221 C.3     1  UNL1        0.1764
     11 O          13.4526   67.7563    0.1332 O.3     1  UNL1       -0.3308
     12 O          12.3218   70.9158   -0.5117 O.3     1  UNL1       -0.3794
     13 H          11.7212   71.0899    2.1295 H       1  UNL1        0.2106
     14 H          12.0246   71.6193    0.0807 H       1  UNL1        0.2105
     15 N          12.2674   67.1533    2.1198 N.ar    1  UNL1       -0.2551
     16 C          13.4029   66.6995    2.6782 C.ar    1  UNL1        0.3323
     17 N          13.3707   65.8508    3.7227 N.ar    1  UNL1       -0.2743
     18 C          12.1902   65.4328    4.2224 C.ar    1  UNL1        0.2626
     19 C          10.9871   65.8980    3.6402 C.ar    1  UNL1        0.0795
     20 C          11.0483   66.7530    2.5968 C.ar    1  UNL1        0.0869
     21 O          14.4754   67.0674    2.2388 O.2     1  UNL1       -0.2464
     22 O          12.1599   64.6617    5.1636 O.2     1  UNL1       -0.2670
     23 H          14.1995   65.5372    4.1162 H       1  UNL1        0.1734
     24 O          16.9265   71.4248   -3.3847 O.3     1  UNL1       -0.2703
     25 P          18.3889   71.9150   -2.9261 P.3     1  UNL1        0.2208
     26 O          19.0097   70.8806   -2.0697 O.2     1  UNL1       -0.5170
     27 O          18.2597   73.2896   -2.0979 O.3     1  UNL1       -0.4371
     28 O          19.3070   72.1575   -4.2256 O.3     1  UNL1       -0.2865
     29 C          20.1364   71.0030   -4.3684 C.3     1  UNL1        0.2611
     30 C          21.6003   71.4396   -4.4485 C.3     1  UNL1        0.1582
     31 C          21.7771   72.3840   -5.6429 C.3     1  UNL1        0.1625
     32 C          21.2329   71.6938   -6.8981 C.3     1  UNL1        0.1686
     33 C          19.7954   71.2407   -6.6342 C.3     1  UNL1        0.1760
     34 O          23.1638   72.6799   -5.8182 O.3     1  UNL1       -0.3801
     35 O          21.2530   72.6103   -7.9942 O.3     1  UNL1       -0.3794
     36 O          19.7751   70.3041   -5.5577 O.3     1  UNL1       -0.3263
     37 H          23.2287   73.2752   -6.5776 H       1  UNL1        0.2105
     38 H          20.9024   72.1363   -8.7616 H       1  UNL1        0.2105
     39 C          23.2092   71.9843   -2.7024 C.2     1  UNL1        0.2231
     40 C          23.5917   72.6994   -1.4317 C.3     1  UNL1        0.0946
     41 N          21.9725   72.1345   -3.2144 N.am    1  UNL1       -0.2994
     42 O          24.0148   71.2729   -3.2637 O.2     1  UNL1       -0.2751
     43 H          21.3276   72.7036   -2.7653 H       1  UNL1        0.1496
     44 C          19.2314   70.5788   -7.8931 C.3     1  UNL1        0.1693
     45 O          18.7295   71.5840   -8.7762 O.3     1  UNL1       -0.3794
     46 H          18.3841   71.1258   -9.5543 H       1  UNL1        0.2105
@<TRIPOS>BOND
     1    29    30    1
     2    29    28    1
     3    29    36    1
     4    30    31    1
     5    30    41    1
     6    31    32    1
     7    31    34    1
     8    32    33    1
     9    32    35    1
    10    33    44    1
    11    33    36    1
    12    44    45    1
    13    39    40    1
    14    39    41   am
    15    39    42    2
    16    41    43    1
    17    28    25    1
    18    34    37    1
    19    35    38    1
    20    45    46    1
    21    15    16   ar
    22    15    20   ar
    23    15     6    1
    24    16    17   ar
    25    16    21    2
    26    17    18   ar
    27    17    23    1
    28    18    19   ar
    29    18    22    2
    30    19    20   ar
    31     6     7    1
    32     6    11    1
    33     7     8    1
    34     7     9    1
    35     8    13    1
    36     9    10    1
    37     9    12    1
    38    10    11    1
    39    10     5    1
    40    12    14    1
    41     5     4    1
    42     4     1    1
    43     1     2    2
    44     1     3    1
    45     1    24    1
    46    24    25    1
    47    25    26    2
    48    25    27    1
@<TRIPOS>MOLECULE
UD1
 46 48 0 0 0
SMALL
GASTEIGER

@<TRIPOS>ATOM
      1 P          20.6405   71.3786   -1.3027 P.3     1  UNL1        0.2189
      2 O          21.4130   70.6497   -2.3325 O.2     1  UNL1       -0.5170
      3 O          20.7745   70.6157    0.1089 O.3     1  UNL1       -0.4371
      4 O          19.0907   71.4359   -1.7357 O.3     1  UNL1       -0.3112
      5 C          18.8253   70.2474   -2.4822 C.3     1  UNL1        0.1811
      6 C          17.1430   70.4416   -5.6539 C.3     1  UNL1        0.2383
      7 C          16.9239   68.9806   -5.1870 C.3     1  UNL1        0.1895
      8 O          15.6818   68.4698   -5.6724 O.3     1  UNL1       -0.3779
      9 C          16.8945   69.1328   -3.6439 C.3     1  UNL1        0.1713
     10 C          17.6121   70.4718   -3.3861 C.3     1  UNL1        0.1764
     11 O          18.0395   70.9826   -4.6603 O.3     1  UNL1       -0.3308
     12 O          15.5464   69.1811   -3.1715 O.3     1  UNL1       -0.3794
     13 H          15.6068   67.5615   -5.3487 H       1  UNL1        0.2106
     14 H          15.1349   68.3412   -3.4150 H       1  UNL1        0.2105
     15 N          17.7608   70.4760   -6.9800 N.ar    1  UNL1       -0.2551
     16 C          16.9848   70.4501   -8.0774 C.ar    1  UNL1        0.3323
     17 N          17.5255   70.4847   -9.3097 N.ar    1  UNL1       -0.2743
     18 C          18.8641   70.5368   -9.4632 C.ar    1  UNL1        0.2626
     19 C          19.6931   70.5585   -8.3163 C.ar    1  UNL1        0.0795
     20 C          19.1241   70.5283   -7.0922 C.ar    1  UNL1        0.0869
     21 O          15.7758   70.4032   -7.9554 O.2     1  UNL1       -0.2464
     22 O          19.3543   70.5632  -10.5769 O.2     1  UNL1       -0.2670
     23 H          16.9505   70.4701  -10.0903 H       1  UNL1        0.1734
     24 O          21.2136   72.8754   -1.1613 O.3     1  UNL1       -0.2703
     25 P          22.7602   72.7429   -0.7373 P.3     1  UNL1        0.2208
     26 O          23.1856   71.3311   -0.8587 O.2     1  UNL1       -0.5170
     27 O          22.9431   73.2286    0.7868 O.3     1  UNL1       -0.4371
     28 O          23.6633   73.6604   -1.7033 O.3     1  UNL1       -0.2865
     29 C          22.9345   74.8684   -1.9280 C.3     1  UNL1        0.2611
     30 C          22.8689   75.1467   -3.4308 C.3     1  UNL1        0.1582
     31 C          24.2946   75.2645   -3.9813 C.3     1  UNL1        0.1625
     32 C          25.0535   76.3100   -3.1571 C.3     1  UNL1        0.1686
     33 C          24.9567   75.9422   -1.6750 C.3     1  UNL1        0.1760
     34 O          24.2472   75.6714   -5.3502 O.3     1  UNL1       -0.3801
     35 O          26.4249   76.3305   -3.5574 O.3     1  UNL1       -0.3794
     36 O          23.5898   75.9475   -1.2651 O.3     1  UNL1       -0.3263
     37 H          25.1628   75.7324   -5.6554 H       1  UNL1        0.2105
     38 H          26.8648   76.9999   -3.0143 H       1  UNL1        0.2105
     39 C          22.8734   73.0133   -4.6067 C.2     1  UNL1        0.2231
     40 C          22.1565   71.8822   -5.2987 C.3     1  UNL1        0.0946
     41 N          22.1729   74.0474   -4.1026 N.am    1  UNL1       -0.2994
     42 O          24.0814   72.9929   -4.5042 O.2     1  UNL1       -0.2751
     43 H          21.2062   74.0641   -4.1848 H       1  UNL1        0.1496
     44 C          25.7390   76.9625   -0.8455 C.3     1  UNL1        0.1693
     45 O          25.6641   78.2445   -1.4723 O.3     1  UNL1       -0.3794
     46 H          26.1687   78.8563   -0.9194 H       1  UNL1        0.2105
@<TRIPOS>BOND
     1    29    30    1
     2    29    28    1
     3    29    36    1
     4    30    31    1
     5    30    41    1
     6    31    32    1
     7    31    34    1
     8    32    33    1
     9    32    35    1
    10    33    44    1
    11    33    36    1
    12    44    45    1
    13    39    40    1
    14    39    41   am
    15    39    42    2
    16    41    43    1
    17    28    25    1
    18    34    37    1
    19    35    38    1
    20    45    46    1
    21    15    16   ar
    22    15    20   ar
    23    15     6    1
    24    16    17   ar
    25    16    21    2
    26    17    18   ar
    27    17    23    1
    28    18    19   ar
    29    18    22    2
    30    19    20   ar
    31     6     7    1
    32     6    11    1
    33     7     8    1
    34     7     9    1
    35     8    13    1
    36     9    10    1
    37     9    12    1
    38    10    11    1
    39    10     5    1
    40    12    14    1
    41     5     4    1
    42     4     1    1
    43     1     2    2
    44     1     3    1
    45     1    24    1
    46    24    25    1
    47    25    26    2
    48    25    27    1
@<TRIPOS>MOLECULE
UD1
 46 48 0 0 0
SMALL
GASTEIGER

@<TRIPOS>ATOM
      1 P          20.4950   72.0005   -1.5508 P.3     1  UNL1        0.2189
      2 O          21.0257   73.1213   -2.3575 O.2     1  UNL1       -0.5170
      3 O          21.2188   70.6316   -1.9923 O.3     1  UNL1       -0.4371
      4 O          18.9084   71.8697   -1.7932 O.3     1  UNL1       -0.3112
      5 C          18.6844   70.5896   -2.3860 C.3     1  UNL1        0.1811
      6 C          17.0382   70.4975   -5.5811 C.3     1  UNL1        0.2383
      7 C          16.9535   69.0414   -5.0587 C.3     1  UNL1        0.1895
      8 O          15.7736   68.3946   -5.5368 O.3     1  UNL1       -0.3779
      9 C          16.8869   69.2497   -3.5233 C.3     1  UNL1        0.1713
     10 C          17.4687   70.6607   -3.3113 C.3     1  UNL1        0.1764
     11 O          17.8638   71.1606   -4.6002 O.3     1  UNL1       -0.3308
     12 O          15.5336   69.1859   -3.0680 O.3     1  UNL1       -0.3794
     13 H          15.7814   67.4965   -5.1779 H       1  UNL1        0.2106
     14 H          15.2083   68.3014   -3.2822 H       1  UNL1        0.2105
     15 N          17.6693   70.5400   -6.9007 N.ar    1  UNL1       -0.2551
     16 C          16.9076   70.4689   -8.0061 C.ar    1  UNL1        0.3323
     17 N          17.4607   70.5096   -9.2328 N.ar    1  UNL1       -0.2743
     18 C          18.7977   70.6138   -9.3722 C.ar    1  UNL1        0.2626
     19 C          19.6119   70.6835   -8.2167 C.ar    1  UNL1        0.0795
     20 C          19.0306   70.6459   -6.9986 C.ar    1  UNL1        0.0869
     21 O          15.7002   70.3748   -7.8968 O.2     1  UNL1       -0.2464
     22 O          19.2993   70.6459  -10.4807 O.2     1  UNL1       -0.2670
     23 H          16.8957   70.4620  -10.0194 H       1  UNL1        0.1734
     24 O          20.7782   72.2799    0.0082 O.3     1  UNL1       -0.2703
     25 P          22.0682   71.4060    0.4102 P.3     1  UNL1        0.2208
     26 O          22.9324   71.2274   -0.7773 O.2     1  UNL1       -0.5170
     27 O          21.5943   69.9650    0.9497 O.3     1  UNL1       -0.4371
     28 O          22.8934   72.1649    1.5651 O.3     1  UNL1       -0.2865
     29 C          22.4377   73.5189    1.5786 C.3     1  UNL1        0.2611
     30 C          23.5475   74.4306    1.0522 C.3     1  UNL1        0.1582
     31 C          24.7899   74.2690    1.9353 C.3     1  UNL1        0.1625
     32 C          24.3882   74.5067    3.3948 C.3     1  UNL1        0.1686
     33 C          23.2167   73.5869    3.7454 C.3     1  UNL1        0.1760
     34 O          25.7809   75.2221    1.5467 O.3     1  UNL1       -0.3801
     35 O          25.4967   74.2177    4.2488 O.3     1  UNL1       -0.3794
     36 O          22.0986   73.8915    2.9126 O.3     1  UNL1       -0.3263
     37 H          26.5429   75.0849    2.1262 H       1  UNL1        0.2105
     38 H          25.2006   74.3793    5.1559 H       1  UNL1        0.2105
     39 C          24.0867   75.0164   -1.2500 C.2     1  UNL1        0.2231
     40 C          24.4221   74.6340   -2.6690 C.3     1  UNL1        0.0946
     41 N          23.8738   74.0596   -0.3262 N.am    1  UNL1       -0.2994
     42 O          24.0079   76.1859   -0.9398 O.2     1  UNL1       -0.2751
     43 H          23.9366   73.1236   -0.5743 H       1  UNL1        0.1496
     44 C          22.8287   73.7932    5.2110 C.3     1  UNL1        0.1693
     45 O          22.3677   72.5573    5.7607 O.3     1  UNL1       -0.3794
     46 H          22.1339   72.7310    6.6825 H       1  UNL1        0.2105
@<TRIPOS>BOND
     1    29    30    1
     2    29    28    1
     3    29    36    1
     4    30    31    1
     5    30    41    1
     6    31    32    1
     7    31    34    1
     8    32    33    1
     9    32    35    1
    10    33    44    1
    11    33    36    1
    12    44    45    1
    13    39    40    1
    14    39    41   am
    15    39    42    2
    16    41    43    1
    17    28    25    1
    18    34    37    1
    19    35    38    1
    20    45    46    1
    21    15    16   ar
    22    15    20   ar
    23    15     6    1
    24    16    17   ar
    25    16    21    2
    26    17    18   ar
    27    17    23    1
    28    18    19   ar
    29    18    22    2
    30    19    20   ar
    31     6     7    1
    32     6    11    1
    33     7     8    1
    34     7     9    1
    35     8    13    1
    36     9    10    1
    37     9    12    1
    38    10    11    1
    39    10     5    1
    40    12    14    1
    41     5     4    1
    42     4     1    1
    43     1     2    2
    44     1     3    1
    45     1    24    1
    46    24    25    1
    47    25    26    2
    48    25    27    1
@<TRIPOS>MOLECULE
UD1
 46 48 0 0 0
SMALL
GASTEIGER

@<TRIPOS>ATOM
      1 P          23.4718   72.4843   -3.3241 P.3     1  UNL1        0.2189
      2 O          24.5175   73.4101   -3.8121 O.2     1  UNL1       -0.5170
      3 O          24.0952   71.0088   -3.1603 O.3     1  UNL1       -0.4371
      4 O          22.2594   72.4390   -4.3828 O.3     1  UNL1       -0.3112
      5 C          22.8387   72.5737   -5.6815 C.3     1  UNL1        0.1811
      6 C          19.5454   71.9276   -6.9715 C.3     1  UNL1        0.2383
      7 C          19.4224   73.2998   -6.2629 C.3     1  UNL1        0.1895
      8 O          18.4394   74.1173   -6.8991 O.3     1  UNL1       -0.3779
      9 C          20.8427   73.8930   -6.4532 C.3     1  UNL1        0.1713
     10 C          21.7283   72.6626   -6.7295 C.3     1  UNL1        0.1764
     11 O          20.8859   71.5002   -6.6492 O.3     1  UNL1       -0.3308
     12 O          20.8645   74.7927   -7.5634 O.3     1  UNL1       -0.3794
     13 H          18.4118   74.9525   -6.4121 H       1  UNL1        0.2106
     14 H          20.2479   75.5074   -7.3559 H       1  UNL1        0.2105
     15 N          18.5613   70.9811   -6.4450 N.ar    1  UNL1       -0.2551
     16 C          18.6449   70.5754   -5.1661 C.ar    1  UNL1        0.3323
     17 N          17.7512   69.7086   -4.6540 N.ar    1  UNL1       -0.2743
     18 C          16.7567   69.2236   -5.4245 C.ar    1  UNL1        0.2626
     19 C          16.6604   69.6377   -6.7743 C.ar    1  UNL1        0.0795
     20 C          17.5670   70.5122   -7.2608 C.ar    1  UNL1        0.0869
     21 O          19.5362   71.0040   -4.4586 O.2     1  UNL1       -0.2464
     22 O          15.9510   68.4361   -4.9639 O.2     1  UNL1       -0.2670
     23 H          17.8239   69.4304   -3.7280 H       1  UNL1        0.1734
     24 O          22.9226   72.9969   -1.9013 O.3     1  UNL1       -0.2703
     25 P          22.5868   71.6848   -1.0324 P.3     1  UNL1        0.2208
     26 O          23.8477   71.0232   -0.6308 O.2     1  UNL1       -0.5170
     27 O          21.7051   70.6671   -1.9150 O.3     1  UNL1       -0.4371
     28 O          21.7602   72.1073    0.2824 O.3     1  UNL1       -0.2865
     29 C          22.3473   73.3147    0.7709 C.3     1  UNL1        0.2611
     30 C          22.8754   73.0823    2.1876 C.3     1  UNL1        0.1582
     31 C          21.7163   72.6411    3.0885 C.3     1  UNL1        0.1625
     32 C          20.5873   73.6709    2.9742 C.3     1  UNL1        0.1686
     33 C          20.2298   73.8567    1.4981 C.3     1  UNL1        0.1760
     34 O          22.1646   72.5655    4.4430 O.3     1  UNL1       -0.3801
     35 O          19.4417   73.2055    3.6900 O.3     1  UNL1       -0.3794
     36 O          21.3643   74.3477    0.7852 O.3     1  UNL1       -0.3263
     37 H          21.4060   72.2850    4.9731 H       1  UNL1        0.2105
     38 H          18.7565   73.8818    3.5914 H       1  UNL1        0.2105
     39 C          25.1863   72.3490    2.4245 C.2     1  UNL1        0.2231
     40 C          26.2429   71.2742    2.3982 C.3     1  UNL1        0.0946
     41 N          23.9021   72.0385    2.1627 N.am    1  UNL1       -0.2994
     42 O          25.4924   73.4939    2.6808 O.2     1  UNL1       -0.2751
     43 H          23.6569   71.1223    1.9573 H       1  UNL1        0.1496
     44 C          19.0806   74.8595    1.3752 C.3     1  UNL1        0.1693
     45 O          18.3849   74.6391    0.1466 O.3     1  UNL1       -0.3794
     46 H          17.6711   75.2900    0.1087 H       1  UNL1        0.2105
@<TRIPOS>BOND
     1    29    30    1
     2    29    28    1
     3    29    36    1
     4    30    31    1
     5    30    41    1
     6    31    32    1
     7    31    34    1
     8    32    33    1
     9    32    35    1
    10    33    44    1
    11    33    36    1
    12    44    45    1
    13    39    40    1
    14    39    41   am
    15    39    42    2
    16    41    43    1
    17    28    25    1
    18    34    37    1
    19    35    38    1
    20    45    46    1
    21    15    16   ar
    22    15    20   ar
    23    15     6    1
    24    16    17   ar
    25    16    21    2
    26    17    18   ar
    27    17    23    1
    28    18    19   ar
    29    18    22    2
    30    19    20   ar
    31     6     7    1
    32     6    11    1
    33     7     8    1
    34     7     9    1
    35     8    13    1
    36     9    10    1
    37     9    12    1
    38    10    11    1
    39    10     5    1
    40    12    14    1
    41     5     4    1
    42     4     1    1
    43     1     2    2
    44     1     3    1
    45     1    24    1
    46    24    25    1
    47    25    26    2
    48    25    27    1
@<TRIPOS>MOLECULE
UD1
 46 48 0 0 0
SMALL
GASTEIGER

@<TRIPOS>ATOM
      1 P          23.5260   72.4556   -3.2637 P.3     1  UNL1        0.2189
      2 O          24.5121   73.3987   -3.8353 O.2     1  UNL1       -0.5170
      3 O          24.1601   70.9762   -3.2215 O.3     1  UNL1       -0.4371
      4 O          22.2014   72.4447   -4.1793 O.3     1  UNL1       -0.3112
      5 C          21.6840   73.7761   -4.1745 C.3     1  UNL1        0.1811
      6 C          18.6561   72.6330   -5.7404 C.3     1  UNL1        0.2383
      7 C          18.8368   71.6996   -4.5172 C.3     1  UNL1        0.1895
      8 O          17.5726   71.2684   -4.0121 O.3     1  UNL1       -0.3779
      9 C          19.5509   72.6287   -3.5013 C.3     1  UNL1        0.1713
     10 C          20.1685   73.7362   -4.3768 C.3     1  UNL1        0.1764
     11 O          19.8663   73.4197   -5.7464 O.3     1  UNL1       -0.3308
     12 O          18.6086   73.1789   -2.5783 O.3     1  UNL1       -0.3794
     13 H          17.7544   70.6933   -3.2560 H       1  UNL1        0.2106
     14 H          18.2147   72.4344   -2.1042 H       1  UNL1        0.2105
     15 N          18.5400   71.8552   -6.9746 N.ar    1  UNL1       -0.2551
     16 C          17.3232   71.5399   -7.4514 C.ar    1  UNL1        0.3323
     17 N          17.1864   70.8290   -8.5864 N.ar    1  UNL1       -0.2743
     18 C          18.2759   70.4114   -9.2621 C.ar    1  UNL1        0.2626
     19 C          19.5630   70.7312   -8.7680 C.ar    1  UNL1        0.0795
     20 C          19.6713   71.4501   -7.6302 C.ar    1  UNL1        0.0869
     21 O          16.3311   71.9094   -6.8533 O.2     1  UNL1       -0.2464
     22 O          18.1534   69.7645  -10.2857 O.2     1  UNL1       -0.2670
     23 H          16.3010   70.6146   -8.9184 H       1  UNL1        0.1734
     24 O          23.1427   72.9190   -1.7713 O.3     1  UNL1       -0.2703
     25 P          22.7726   71.5850   -0.9510 P.3     1  UNL1        0.2208
     26 O          24.0161   70.8806   -0.5682 O.2     1  UNL1       -0.5170
     27 O          21.8719   70.6199   -1.8726 O.3     1  UNL1       -0.4371
     28 O          21.9498   71.9797    0.3748 O.3     1  UNL1       -0.2865
     29 C          22.4974   73.2102    0.8516 C.3     1  UNL1        0.2611
     30 C          22.9882   73.0215    2.2881 C.3     1  UNL1        0.1582
     31 C          21.8124   72.5766    3.1651 C.3     1  UNL1        0.1625
     32 C          20.6665   73.5794    2.9941 C.3     1  UNL1        0.1686
     33 C          20.3487   73.7237    1.5042 C.3     1  UNL1        0.1760
     34 O          22.2222   72.5415    4.5335 O.3     1  UNL1       -0.3801
     35 O          19.5100   73.1064    3.6872 O.3     1  UNL1       -0.3794
     36 O          21.4935   74.2221    0.8132 O.3     1  UNL1       -0.3263
     37 H          21.4541   72.2573    5.0479 H       1  UNL1        0.2105
     38 H          18.8143   73.7655    3.5530 H       1  UNL1        0.2105
     39 C          25.3272   72.3604    2.4499 C.2     1  UNL1        0.2231
     40 C          26.4059   71.3078    2.4795 C.3     1  UNL1        0.0946
     41 N          24.0364   71.9993    2.3174 N.am    1  UNL1       -0.2994
     42 O          25.6215   73.5328    2.5447 O.2     1  UNL1       -0.2751
     43 H          23.8007   71.0611    2.2413 H       1  UNL1        0.1496
     44 C          19.1834   74.6988    1.3247 C.3     1  UNL1        0.1693
     45 O          18.8724   74.8194   -0.0649 O.3     1  UNL1       -0.3794
     46 H          18.1354   75.4412   -0.1338 H       1  UNL1        0.2105
@<TRIPOS>BOND
     1    29    30    1
     2    29    28    1
     3    29    36    1
     4    30    31    1
     5    30    41    1
     6    31    32    1
     7    31    34    1
     8    32    33    1
     9    32    35    1
    10    33    44    1
    11    33    36    1
    12    44    45    1
    13    39    40    1
    14    39    41   am
    15    39    42    2
    16    41    43    1
    17    28    25    1
    18    34    37    1
    19    35    38    1
    20    45    46    1
    21    15    16   ar
    22    15    20   ar
    23    15     6    1
    24    16    17   ar
    25    16    21    2
    26    17    18   ar
    27    17    23    1
    28    18    19   ar
    29    18    22    2
    30    19    20   ar
    31     6     7    1
    32     6    11    1
    33     7     8    1
    34     7     9    1
    35     8    13    1
    36     9    10    1
    37     9    12    1
    38    10    11    1
    39    10     5    1
    40    12    14    1
    41     5     4    1
    42     4     1    1
    43     1     2    2
    44     1     3    1
    45     1    24    1
    46    24    25    1
    47    25    26    2
    48    25    27    1
@<TRIPOS>MOLECULE
UD1
 46 48 0 0 0
SMALL
GASTEIGER

@<TRIPOS>ATOM
      1 P          20.7943   71.5227   -1.6043 P.3     1  UNL1        0.2189
      2 O          20.4009   70.6200   -0.5002 O.2     1  UNL1       -0.5170
      3 O          21.1098   72.9871   -1.0139 O.3     1  UNL1       -0.4371
      4 O          19.5911   71.6226   -2.6697 O.3     1  UNL1       -0.3112
      5 C          18.6776   70.5684   -2.3624 C.3     1  UNL1        0.1811
      6 C          17.0429   70.5033   -5.5641 C.3     1  UNL1        0.2383
      7 C          16.9417   69.0464   -5.0469 C.3     1  UNL1        0.1895
      8 O          15.7573   68.4130   -5.5318 O.3     1  UNL1       -0.3779
      9 C          16.8712   69.2503   -3.5111 C.3     1  UNL1        0.1713
     10 C          17.4662   70.6547   -3.2922 C.3     1  UNL1        0.1764
     11 O          17.8714   71.1549   -4.5778 O.3     1  UNL1       -0.3308
     12 O          15.5156   69.1985   -3.0612 O.3     1  UNL1       -0.3794
     13 H          15.7548   67.5137   -5.1758 H       1  UNL1        0.2106
     14 H          15.1824   68.3179   -3.2797 H       1  UNL1        0.2105
     15 N          17.6796   70.5439   -6.8811 N.ar    1  UNL1       -0.2551
     16 C          16.9238   70.4564   -7.9895 C.ar    1  UNL1        0.3323
     17 N          17.4820   70.4950   -9.2139 N.ar    1  UNL1       -0.2743
     18 C          18.8184   70.6135   -9.3479 C.ar    1  UNL1        0.2626
     19 C          19.6265   70.7006   -8.1893 C.ar    1  UNL1        0.0795
     20 C          19.0400   70.6648   -6.9736 C.ar    1  UNL1        0.0869
     21 O          15.7171   70.3492   -7.8849 O.2     1  UNL1       -0.2464
     22 O          19.3246   70.6437  -10.4544 O.2     1  UNL1       -0.2670
     23 H          16.9212   70.4353  -10.0026 H       1  UNL1        0.1734
     24 O          22.1072   70.9417   -2.3307 O.3     1  UNL1       -0.2703
     25 P          23.0978   72.1875   -2.5667 P.3     1  UNL1        0.2208
     26 O          24.1922   71.7821   -3.4760 O.2     1  UNL1       -0.5170
     27 O          23.7183   72.6552   -1.1565 O.3     1  UNL1       -0.4371
     28 O          22.2797   73.4086   -3.2227 O.3     1  UNL1       -0.2865
     29 C          23.2460   74.3159   -3.7557 C.3     1  UNL1        0.2611
     30 C          22.7458   75.7502   -3.5747 C.3     1  UNL1        0.1582
     31 C          21.4016   75.9068   -4.2945 C.3     1  UNL1        0.1625
     32 C          21.5684   75.4531   -5.7486 C.3     1  UNL1        0.1686
     33 C          22.1547   74.0398   -5.7655 C.3     1  UNL1        0.1760
     34 O          20.9968   77.2766   -4.2603 O.3     1  UNL1       -0.3801
     35 O          20.2956   75.4518   -6.3979 O.3     1  UNL1       -0.3794
     36 O          23.4383   74.0428   -5.1420 O.3     1  UNL1       -0.3263
     37 H          20.1490   77.3291   -4.7227 H       1  UNL1        0.2105
     38 H          20.4463   75.1600   -7.3082 H       1  UNL1        0.2105
     39 C          22.9017   77.2432   -1.6562 C.2     1  UNL1        0.2231
     40 C          22.7254   77.5335   -0.1875 C.3     1  UNL1        0.0946
     41 N          22.5743   76.0328   -2.1482 N.am    1  UNL1       -0.2994
     42 O          23.3390   78.0992   -2.3951 O.2     1  UNL1       -0.2751
     43 H          22.2245   75.3475   -1.5570 H       1  UNL1        0.1496
     44 C          22.2951   73.5645   -7.2131 C.3     1  UNL1        0.1693
     45 O          23.0375   72.3439   -7.2443 O.3     1  UNL1       -0.3794
     46 H          23.1031   72.0799   -8.1720 H       1  UNL1        0.2105
@<TRIPOS>BOND
     1    29    30    1
     2    29    28    1
     3    29    36    1
     4    30    31    1
     5    30    41    1
     6    31    32    1
     7    31    34    1
     8    32    33    1
     9    32    35    1
    10    33    44    1
    11    33    36    1
    12    44    45    1
    13    39    40    1
    14    39    41   am
    15    39    42    2
    16    41    43    1
    17    28    25    1
    18    34    37    1
    19    35    38    1
    20    45    46    1
    21    15    16   ar
    22    15    20   ar
    23    15     6    1
    24    16    17   ar
    25    16    21    2
    26    17    18   ar
    27    17    23    1
    28    18    19   ar
    29    18    22    2
    30    19    20   ar
    31     6     7    1
    32     6    11    1
    33     7     8    1
    34     7     9    1
    35     8    13    1
    36     9    10    1
    37     9    12    1
    38    10    11    1
    39    10     5    1
    40    12    14    1
    41     5     4    1
    42     4     1    1
    43     1     2    2
    44     1     3    1
    45     1    24    1
    46    24    25    1
    47    25    26    2
    48    25    27    1
@<TRIPOS>MOLECULE
UD1
 46 48 0 0 0
SMALL
GASTEIGER

@<TRIPOS>ATOM
      1 P          21.9381   73.5726   -4.4815 P.3     1  UNL1        0.2189
      2 O          22.6019   74.7229   -3.8294 O.2     1  UNL1       -0.5170
      3 O          22.6113   73.3096   -5.9203 O.3     1  UNL1       -0.4371
      4 O          20.3724   73.8956   -4.6736 O.3     1  UNL1       -0.3112
      5 C          19.6998   73.3837   -3.5221 C.3     1  UNL1        0.1811
      6 C          17.8554   71.2621   -5.7636 C.3     1  UNL1        0.2383
      7 C          18.5445   70.2826   -4.7808 C.3     1  UNL1        0.1895
      8 O          17.7557   69.1069   -4.5938 O.3     1  UNL1       -0.3779
      9 C          18.6074   71.1200   -3.4770 C.3     1  UNL1        0.1713
     10 C          18.4768   72.5770   -3.9612 C.3     1  UNL1        0.1764
     11 O          18.4002   72.5475   -5.3966 O.3     1  UNL1       -0.3308
     12 O          17.5257   70.7757   -2.6086 O.3     1  UNL1       -0.3794
     13 H          18.2382   68.5414   -3.9750 H       1  UNL1        0.2106
     14 H          17.6302   69.8402   -2.3896 H       1  UNL1        0.2105
     15 N          18.1958   70.9336   -7.1484 N.ar    1  UNL1       -0.2551
     16 C          17.2175   70.6469   -8.0249 C.ar    1  UNL1        0.3323
     17 N          17.5011   70.3451   -9.3058 N.ar    1  UNL1       -0.2743
     18 C          18.7806   70.3165   -9.7299 C.ar    1  UNL1        0.2626
     19 C          19.8207   70.6105   -8.8163 C.ar    1  UNL1        0.0795
     20 C          19.5077   70.9152   -7.5386 C.ar    1  UNL1        0.0869
     21 O          16.0586   70.6685   -7.6575 O.2     1  UNL1       -0.2464
     22 O          19.0385   70.0391  -10.8866 O.2     1  UNL1       -0.2670
     23 H          16.7826   70.1455   -9.9256 H       1  UNL1        0.1734
     24 O          22.1069   72.2634   -3.5615 O.3     1  UNL1       -0.2703
     25 P          23.6411   72.2300   -3.0774 P.3     1  UNL1        0.2208
     26 O          24.4901   72.9070   -4.0822 O.2     1  UNL1       -0.5170
     27 O          24.1198   70.7015   -2.9137 O.3     1  UNL1       -0.4371
     28 O          23.7756   72.9873   -1.6636 O.3     1  UNL1       -0.2865
     29 C          22.6423   72.6079   -0.8807 C.3     1  UNL1        0.2611
     30 C          22.1597   73.8141   -0.0732 C.3     1  UNL1        0.1582
     31 C          23.2999   74.3034    0.8270 C.3     1  UNL1        0.1625
     32 C          23.8080   73.1220    1.6602 C.3     1  UNL1        0.1686
     33 C          24.1692   71.9689    0.7214 C.3     1  UNL1        0.1760
     34 O          22.8182   75.3325    1.6932 O.3     1  UNL1       -0.3801
     35 O          24.9651   73.5200    2.3978 O.3     1  UNL1       -0.3794
     36 O          23.0093   71.5506    0.0030 O.3     1  UNL1       -0.3263
     37 H          23.5661   75.6104    2.2397 H       1  UNL1        0.2105
     38 H          25.2518   72.7482    2.9064 H       1  UNL1        0.2105
     39 C          20.6530   75.6107   -0.7338 C.2     1  UNL1        0.2231
     40 C          20.2424   76.7148   -1.6744 C.3     1  UNL1        0.0946
     41 N          21.7606   74.8871   -0.9863 N.am    1  UNL1       -0.2994
     42 O          19.9858   75.3732    0.2504 O.2     1  UNL1       -0.2751
     43 H          22.2946   75.0768   -1.7740 H       1  UNL1        0.1496
     44 C          24.7086   70.7951    1.5415 C.3     1  UNL1        0.1693
     45 O          24.1536   70.8381    2.8576 O.3     1  UNL1       -0.3794
     46 H          24.5184   70.0839    3.3399 H       1  UNL1        0.2105
@<TRIPOS>BOND
     1    29    30    1
     2    29    28    1
     3    29    36    1
     4    30    31    1
     5    30    41    1
     6    31    32    1
     7    31    34    1
     8    32    33    1
     9    32    35    1
    10    33    44    1
    11    33    36    1
    12    44    45    1
    13    39    40    1
    14    39    41   am
    15    39    42    2
    16    41    43    1
    17    28    25    1
    18    34    37    1
    19    35    38    1
    20    45    46    1
    21    15    16   ar
    22    15    20   ar
    23    15     6    1
    24    16    17   ar
    25    16    21    2
    26    17    18   ar
    27    17    23    1
    28    18    19   ar
    29    18    22    2
    30    19    20   ar
    31     6     7    1
    32     6    11    1
    33     7     8    1
    34     7     9    1
    35     8    13    1
    36     9    10    1
    37     9    12    1
    38    10    11    1
    39    10     5    1
    40    12    14    1
    41     5     4    1
    42     4     1    1
    43     1     2    2
    44     1     3    1
    45     1    24    1
    46    24    25    1
    47    25    26    2
    48    25    27    1
@<TRIPOS>MOLECULE
UD1
 46 48 0 0 0
SMALL
GASTEIGER

@<TRIPOS>ATOM
      1 P          16.2901   70.5000   -3.0205 P.3     1  UNL1        0.2189
      2 O          15.8085   69.1387   -3.3422 O.2     1  UNL1       -0.5170
      3 O          17.4882   70.4062   -1.9488 O.3     1  UNL1       -0.4371
      4 O          15.0815   71.3632   -2.3985 O.3     1  UNL1       -0.3112
      5 C          14.7896   70.8034   -1.1172 C.3     1  UNL1        0.1811
      6 C          12.5093   68.3004    0.0922 C.3     1  UNL1        0.2383
      7 C          11.8307   69.6474    0.4463 C.3     1  UNL1        0.1895
      8 O          10.4081   69.5237    0.4268 O.3     1  UNL1       -0.3779
      9 C          12.3216   70.5704   -0.6992 C.3     1  UNL1        0.1713
     10 C          13.5854   69.8672   -1.2310 C.3     1  UNL1        0.1764
     11 O          13.7979   68.6969   -0.4233 O.3     1  UNL1       -0.3308
     12 O          11.3285   70.6696   -1.7223 O.3     1  UNL1       -0.3794
     13 H          10.0483   70.3920    0.6549 H       1  UNL1        0.2106
     14 H          10.5449   71.0609   -1.3138 H       1  UNL1        0.2105
     15 N          12.6646   67.4676    1.2854 N.ar    1  UNL1       -0.2551
     16 C          11.7365   66.5394    1.5756 C.ar    1  UNL1        0.3323
     17 N          11.8556   65.7566    2.6643 N.ar    1  UNL1       -0.2743
     18 C          12.9109   65.8992    3.4914 C.ar    1  UNL1        0.2626
     19 C          13.8923   66.8766    3.2011 C.ar    1  UNL1        0.0795
     20 C          13.7508   67.6446    2.0996 C.ar    1  UNL1        0.0869
     21 O          10.7791   66.3988    0.8392 O.2     1  UNL1       -0.2464
     22 O          13.0172   65.1953    4.4787 O.2     1  UNL1       -0.2670
     23 H          11.1791   65.0889    2.8557 H       1  UNL1        0.1734
     24 O          16.8229   71.2117   -4.3616 O.3     1  UNL1       -0.2703
     25 P          17.7081   70.1210   -5.1465 P.3     1  UNL1        0.2208
     26 O          17.0546   69.7878   -6.4313 O.2     1  UNL1       -0.5170
     27 O          17.8388   68.7896   -4.2506 O.3     1  UNL1       -0.4371
     28 O          19.1742   70.7213   -5.4301 O.3     1  UNL1       -0.2865
     29 C          19.0116   72.1224   -5.6573 C.3     1  UNL1        0.2611
     30 C          19.6876   72.5021   -6.9760 C.3     1  UNL1        0.1582
     31 C          21.1739   72.1350   -6.9011 C.3     1  UNL1        0.1625
     32 C          21.7763   72.7823   -5.6496 C.3     1  UNL1        0.1686
     33 C          20.9443   72.3789   -4.4304 C.3     1  UNL1        0.1760
     34 O          21.8460   72.6192   -8.0653 O.3     1  UNL1       -0.3801
     35 O          23.1226   72.3344   -5.4807 O.3     1  UNL1       -0.3794
     36 O          19.6056   72.8487   -4.5834 O.3     1  UNL1       -0.3263
     37 H          22.7753   72.3666   -7.9768 H       1  UNL1        0.2105
     38 H          23.4625   72.7644   -4.6832 H       1  UNL1        0.2105
     39 C          19.5909   70.6150   -8.5135 C.2     1  UNL1        0.2231
     40 C          18.9416   69.8644   -9.6480 C.3     1  UNL1        0.0946
     41 N          19.0569   71.7722   -8.0777 N.am    1  UNL1       -0.2994
     42 O          20.5949   70.1775   -7.9931 O.2     1  UNL1       -0.2751
     43 H          18.2536   72.1227   -8.4941 H       1  UNL1        0.1496
     44 C          21.5569   72.9941   -3.1704 C.3     1  UNL1        0.1693
     45 O          22.1233   74.2669   -3.4883 O.3     1  UNL1       -0.3794
     46 H          22.4976   74.6190   -2.6694 H       1  UNL1        0.2105
@<TRIPOS>BOND
     1    29    30    1
     2    29    28    1
     3    29    36    1
     4    30    31    1
     5    30    41    1
     6    31    32    1
     7    31    34    1
     8    32    33    1
     9    32    35    1
    10    33    44    1
    11    33    36    1
    12    44    45    1
    13    39    40    1
    14    39    41   am
    15    39    42    2
    16    41    43    1
    17    28    25    1
    18    34    37    1
    19    35    38    1
    20    45    46    1
    21    15    16   ar
    22    15    20   ar
    23    15     6    1
    24    16    17   ar
    25    16    21    2
    26    17    18   ar
    27    17    23    1
    28    18    19   ar
    29    18    22    2
    30    19    20   ar
    31     6     7    1
    32     6    11    1
    33     7     8    1
    34     7     9    1
    35     8    13    1
    36     9    10    1
    37     9    12    1
    38    10    11    1
    39    10     5    1
    40    12    14    1
    41     5     4    1
    42     4     1    1
    43     1     2    2
    44     1     3    1
    45     1    24    1
    46    24    25    1
    47    25    26    2
    48    25    27    1
@<TRIPOS>MOLECULE
UD1
 46 48 0 0 0
SMALL
GASTEIGER

@<TRIPOS>ATOM
      1 P          23.5373   72.3386   -3.2594 P.3     1  UNL1        0.2189
      2 O          24.5225   73.1135   -4.0453 O.2     1  UNL1       -0.5170
      3 O          24.0600   70.8256   -3.0858 O.3     1  UNL1       -0.4371
      4 O          22.1233   72.3317   -4.0296 O.3     1  UNL1       -0.3112
      5 C          22.4079   72.5028   -5.4189 C.3     1  UNL1        0.1811
      6 C          19.3653   70.6993   -6.0645 C.3     1  UNL1        0.2383
      7 C          19.1581   72.0701   -6.7559 C.3     1  UNL1        0.1895
      8 O          18.3173   71.9422   -7.9030 O.3     1  UNL1       -0.3779
      9 C          20.6043   72.4482   -7.1693 C.3     1  UNL1        0.1713
     10 C          21.4933   71.5957   -6.2434 C.3     1  UNL1        0.1764
     11 O          20.6211   70.8575   -5.3706 O.3     1  UNL1       -0.3308
     12 O          20.8357   72.1166   -8.5401 O.3     1  UNL1       -0.3794
     13 H          18.2283   72.8262   -8.2852 H       1  UNL1        0.2106
     14 H          20.2106   72.6366   -9.0626 H       1  UNL1        0.2105
     15 N          18.2833   70.4263   -5.1178 N.ar    1  UNL1       -0.2551
     16 C          17.1819   69.7772   -5.5338 C.ar    1  UNL1        0.3323
     17 N          16.1729   69.5091   -4.6840 N.ar    1  UNL1       -0.2743
     18 C          16.2481   69.8986   -3.3954 C.ar    1  UNL1        0.2626
     19 C          17.3993   70.5881   -2.9455 C.ar    1  UNL1        0.0795
     20 C          18.3990   70.8392   -3.8178 C.ar    1  UNL1        0.0869
     21 O          17.0993   69.4194   -6.6930 O.2     1  UNL1       -0.2464
     22 O          15.3343   69.6610   -2.6273 O.2     1  UNL1       -0.2670
     23 H          15.3879   69.0357   -5.0001 H       1  UNL1        0.1734
     24 O          23.3557   73.0143   -1.8105 O.3     1  UNL1       -0.2703
     25 P          21.8207   73.4859   -1.7067 P.3     1  UNL1        0.2208
     26 O          20.9323   72.3484   -2.0316 O.2     1  UNL1       -0.5170
     27 O          21.5560   74.6867   -2.7461 O.3     1  UNL1       -0.4371
     28 O          21.5146   73.9955   -0.2110 O.3     1  UNL1       -0.2865
     29 C          20.5092   73.1325    0.3234 C.3     1  UNL1        0.2611
     30 C          19.4675   73.9703    1.0668 C.3     1  UNL1        0.1582
     31 C          20.1608   74.7526    2.1880 C.3     1  UNL1        0.1625
     32 C          20.9475   73.7674    3.0590 C.3     1  UNL1        0.1686
     33 C          21.8800   72.9469    2.1654 C.3     1  UNL1        0.1760
     34 O          19.1797   75.4215    2.9826 O.3     1  UNL1       -0.3801
     35 O          21.7185   74.4900    4.0208 O.3     1  UNL1       -0.3794
     36 O          21.1113   72.2025    1.2212 O.3     1  UNL1       -0.3263
     37 H          19.6584   75.8999    3.6734 H       1  UNL1        0.2105
     38 H          22.1973   73.8332    4.5460 H       1  UNL1        0.2105
     39 C          17.5107   75.1399    0.2083 C.2     1  UNL1        0.2231
     40 C          16.8600   76.1026   -0.7521 C.3     1  UNL1        0.0946
     41 N          18.8350   74.9058    0.1345 N.am    1  UNL1       -0.2994
     42 O          16.8417   74.5753    1.0472 O.2     1  UNL1       -0.2751
     43 H          19.3706   75.3573   -0.5370 H       1  UNL1        0.1496
     44 C          22.6942   71.9820    3.0298 C.3     1  UNL1        0.1693
     45 O          23.1367   70.8832    2.2305 O.3     1  UNL1       -0.3794
     46 H          23.6440   70.3007    2.8118 H       1  UNL1        0.2105
@<TRIPOS>BOND
     1    29    30    1
     2    29    28    1
     3    29    36    1
     4    30    31    1
     5    30    41    1
     6    31    32    1
     7    31    34    1
     8    32    33    1
     9    32    35    1
    10    33    44    1
    11    33    36    1
    12    44    45    1
    13    39    40    1
    14    39    41   am
    15    39    42    2
    16    41    43    1
    17    28    25    1
    18    34    37    1
    19    35    38    1
    20    45    46    1
    21    15    16   ar
    22    15    20   ar
    23    15     6    1
    24    16    17   ar
    25    16    21    2
    26    17    18   ar
    27    17    23    1
    28    18    19   ar
    29    18    22    2
    30    19    20   ar
    31     6     7    1
    32     6    11    1
    33     7     8    1
    34     7     9    1
    35     8    13    1
    36     9    10    1
    37     9    12    1
    38    10    11    1
    39    10     5    1
    40    12    14    1
    41     5     4    1
    42     4     1    1
    43     1     2    2
    44     1     3    1
    45     1    24    1
    46    24    25    1
    47    25    26    2
    48    25    27    1
@<TRIPOS>MOLECULE
UD1
 46 48 0 0 0
SMALL
GASTEIGER

@<TRIPOS>ATOM
      1 P          22.8494   72.4493   -3.2367 P.3     1  UNL1        0.2189
      2 O          22.9704   73.5781   -2.2880 O.2     1  UNL1       -0.5170
      3 O          24.2815   72.1619   -3.9143 O.3     1  UNL1       -0.4371
      4 O          21.7806   72.8234   -4.3815 O.3     1  UNL1       -0.3112
      5 C          22.3757   72.4764   -5.6328 C.3     1  UNL1        0.1811
      6 C          19.3190   70.6516   -6.1366 C.3     1  UNL1        0.2383
      7 C          19.0931   71.9973   -6.8702 C.3     1  UNL1        0.1895
      8 O          18.2233   71.8292   -7.9902 O.3     1  UNL1       -0.3779
      9 C          20.5280   72.3605   -7.3334 C.3     1  UNL1        0.1713
     10 C          21.4410   71.5409   -6.4012 C.3     1  UNL1        0.1764
     11 O          20.5921   70.8340   -5.4810 O.3     1  UNL1       -0.3308
     12 O          20.7245   71.9810   -8.6972 O.3     1  UNL1       -0.3794
     13 H          18.1239   72.6993   -8.4007 H       1  UNL1        0.2106
     14 H          20.0858   72.4824   -9.2215 H       1  UNL1        0.2105
     15 N          18.2618   70.4121   -5.1535 N.ar    1  UNL1       -0.2551
     16 C          17.1362   69.7787   -5.5265 C.ar    1  UNL1        0.3323
     17 N          16.1490   69.5414   -4.6426 N.ar    1  UNL1       -0.2743
     18 C          16.2712   69.9466   -3.3624 C.ar    1  UNL1        0.2626
     19 C          17.4485   70.6199   -2.9577 C.ar    1  UNL1        0.0795
     20 C          18.4253   70.8401   -3.8636 C.ar    1  UNL1        0.0869
     21 O          17.0112   69.4071   -6.6775 O.2     1  UNL1       -0.2464
     22 O          15.3773   69.7369   -2.5636 O.2     1  UNL1       -0.2670
     23 H          15.3459   69.0790   -4.9279 H       1  UNL1        0.1734
     24 O          22.3543   71.1367   -2.4488 O.3     1  UNL1       -0.2703
     25 P          21.4602   71.6467   -1.2119 P.3     1  UNL1        0.2208
     26 O          20.6884   70.5114   -0.6602 O.2     1  UNL1       -0.5170
     27 O          20.4449   72.7893   -1.7178 O.3     1  UNL1       -0.4371
     28 O          22.4184   72.2503   -0.0683 O.3     1  UNL1       -0.2865
     29 C          21.9016   71.8005    1.1854 C.3     1  UNL1        0.2611
     30 C          21.4444   73.0081    2.0057 C.3     1  UNL1        0.1582
     31 C          22.6351   73.9498    2.2177 C.3     1  UNL1        0.1625
     32 C          23.7914   73.1487    2.8255 C.3     1  UNL1        0.1686
     33 C          24.0735   71.9320    1.9416 C.3     1  UNL1        0.1760
     34 O          22.2596   75.0040    3.1060 O.3     1  UNL1       -0.3801
     35 O          24.9577   73.9711    2.8956 O.3     1  UNL1       -0.3794
     36 O          22.9193   71.0943    1.8917 O.3     1  UNL1       -0.3263
     37 H          23.0360   75.5711    3.2106 H       1  UNL1        0.2105
     38 H          25.6597   73.4287    3.2823 H       1  UNL1        0.2105
     39 C          19.3333   74.2228    1.9623 C.2     1  UNL1        0.2231
     40 C          18.2397   74.9496    1.2220 C.3     1  UNL1        0.0946
     41 N          20.3821   73.7147    1.2870 N.am    1  UNL1       -0.2994
     42 O          19.2688   74.0947    3.1663 O.2     1  UNL1       -0.2751
     43 H          20.4338   73.8168    0.3234 H       1  UNL1        0.1496
     44 C          25.2485   71.1426    2.5225 C.3     1  UNL1        0.1693
     45 O          24.9311   69.7492    2.5267 O.3     1  UNL1       -0.3794
     46 H          25.6953   69.2893    2.8996 H       1  UNL1        0.2105
@<TRIPOS>BOND
     1    29    30    1
     2    29    28    1
     3    29    36    1
     4    30    31    1
     5    30    41    1
     6    31    32    1
     7    31    34    1
     8    32    33    1
     9    32    35    1
    10    33    44    1
    11    33    36    1
    12    44    45    1
    13    39    40    1
    14    39    41   am
    15    39    42    2
    16    41    43    1
    17    28    25    1
    18    34    37    1
    19    35    38    1
    20    45    46    1
    21    15    16   ar
    22    15    20   ar
    23    15     6    1
    24    16    17   ar
    25    16    21    2
    26    17    18   ar
    27    17    23    1
    28    18    19   ar
    29    18    22    2
    30    19    20   ar
    31     6     7    1
    32     6    11    1
    33     7     8    1
    34     7     9    1
    35     8    13    1
    36     9    10    1
    37     9    12    1
    38    10    11    1
    39    10     5    1
    40    12    14    1
    41     5     4    1
    42     4     1    1
    43     1     2    2
    44     1     3    1
    45     1    24    1
    46    24    25    1
    47    25    26    2
    48    25    27    1
@<TRIPOS>MOLECULE
UD1
 46 48 0 0 0
SMALL
GASTEIGER

@<TRIPOS>ATOM
      1 P          21.4983   73.0685   -6.4610 P.3     1  UNL1        0.2189
      2 O          20.6542   73.8993   -7.3476 O.2     1  UNL1       -0.5170
      3 O          23.0474   73.4445   -6.6878 O.3     1  UNL1       -0.4371
      4 O          21.2687   71.5125   -6.8060 O.3     1  UNL1       -0.3112
      5 C          20.7349   71.4564   -8.1297 C.3     1  UNL1        0.1811
      6 C          17.6154   70.1132   -6.9501 C.3     1  UNL1        0.2383
      7 C          17.2094   71.1450   -8.0320 C.3     1  UNL1        0.1895
      8 O          16.0001   70.7539   -8.6830 O.3     1  UNL1       -0.3779
      9 C          18.4106   71.0804   -9.0108 C.3     1  UNL1        0.1713
     10 C          19.5525   70.4869   -8.1633 C.3     1  UNL1        0.1764
     11 O          19.0432   70.2908   -6.8331 O.3     1  UNL1       -0.3308
     12 O          18.1077   70.2305  -10.1192 O.3     1  UNL1       -0.3794
     13 H          15.8032   71.4350   -9.3410 H       1  UNL1        0.2106
     14 H          17.3500   70.6229  -10.5730 H       1  UNL1        0.2105
     15 N          16.9530   70.4059   -5.6785 N.ar    1  UNL1       -0.2551
     16 C          16.4723   69.3979   -4.9300 C.ar    1  UNL1        0.3323
     17 N          15.8619   69.6375   -3.7543 N.ar    1  UNL1       -0.2743
     18 C          15.7142   70.9022   -3.3107 C.ar    1  UNL1        0.2626
     19 C          16.2103   71.9732   -4.0915 C.ar    1  UNL1        0.0795
     20 C          16.8231   71.7042   -5.2643 C.ar    1  UNL1        0.0869
     21 O          16.5979   68.2519   -5.3166 O.2     1  UNL1       -0.2464
     22 O          15.1583   71.1202   -2.2502 O.2     1  UNL1       -0.2670
     23 H          15.5254   68.8980   -3.2251 H       1  UNL1        0.1734
     24 O          21.0976   73.3426   -4.9270 O.3     1  UNL1       -0.2703
     25 P          22.4738   73.4919   -4.1066 P.3     1  UNL1        0.2208
     26 O          23.0926   74.7998   -4.4153 O.2     1  UNL1       -0.5170
     27 O          23.4817   72.3092   -4.5282 O.3     1  UNL1       -0.4371
     28 O          22.1717   73.4004   -2.5283 O.3     1  UNL1       -0.2865
     29 C          23.2010   72.5918   -1.9556 C.3     1  UNL1        0.2611
     30 C          22.5720   71.3551   -1.3113 C.3     1  UNL1        0.1582
     31 C          21.5742   71.8023   -0.2370 C.3     1  UNL1        0.1625
     32 C          22.2893   72.7499    0.7320 C.3     1  UNL1        0.1686
     33 C          22.9371   73.8832   -0.0663 C.3     1  UNL1        0.1760
     34 O          21.0917   70.6603    0.4734 O.3     1  UNL1       -0.3801
     35 O          21.3431   73.2934    1.6544 O.3     1  UNL1       -0.3794
     36 O          23.9026   73.3460   -0.9695 O.3     1  UNL1       -0.3263
     37 H          20.4687   70.9869    1.1371 H       1  UNL1        0.2105
     38 H          21.8342   73.8833    2.2439 H       1  UNL1        0.2105
     39 C          20.5507   70.7349   -2.5213 C.2     1  UNL1        0.2231
     40 C          19.8329   69.9278   -3.5728 C.3     1  UNL1        0.0946
     41 N          21.8744   70.5717   -2.3330 N.am    1  UNL1       -0.2994
     42 O          19.9363   71.5311   -1.8440 O.2     1  UNL1       -0.2751
     43 H          22.3662   69.9344   -2.8748 H       1  UNL1        0.1496
     44 C          23.6266   74.8533    0.8952 C.3     1  UNL1        0.1693
     45 O          24.9852   74.4524    1.0840 O.3     1  UNL1       -0.3794
     46 H          25.3822   75.0880    1.6949 H       1  UNL1        0.2105
@<TRIPOS>BOND
     1    29    30    1
     2    29    28    1
     3    29    36    1
     4    30    31    1
     5    30    41    1
     6    31    32    1
     7    31    34    1
     8    32    33    1
     9    32    35    1
    10    33    44    1
    11    33    36    1
    12    44    45    1
    13    39    40    1
    14    39    41   am
    15    39    42    2
    16    41    43    1
    17    28    25    1
    18    34    37    1
    19    35    38    1
    20    45    46    1
    21    15    16   ar
    22    15    20   ar
    23    15     6    1
    24    16    17   ar
    25    16    21    2
    26    17    18   ar
    27    17    23    1
    28    18    19   ar
    29    18    22    2
    30    19    20   ar
    31     6     7    1
    32     6    11    1
    33     7     8    1
    34     7     9    1
    35     8    13    1
    36     9    10    1
    37     9    12    1
    38    10    11    1
    39    10     5    1
    40    12    14    1
    41     5     4    1
    42     4     1    1
    43     1     2    2
    44     1     3    1
    45     1    24    1
    46    24    25    1
    47    25    26    2
    48    25    27    1
@<TRIPOS>MOLECULE
UD1
 46 48 0 0 0
SMALL
GASTEIGER

@<TRIPOS>ATOM
      1 P          16.2075   69.5451   -2.3713 P.3     1  UNL1        0.2189
      2 O          15.6571   69.2031   -3.7013 O.2     1  UNL1       -0.5170
      3 O          17.0503   68.2968   -1.8021 O.3     1  UNL1       -0.4371
      4 O          14.9993   69.8809   -1.3613 O.3     1  UNL1       -0.3112
      5 C          14.8279   68.7353   -0.5255 C.3     1  UNL1        0.1811
      6 C          11.3823   67.8570    0.0067 C.3     1  UNL1        0.2383
      7 C          12.1739   66.9042    0.9372 C.3     1  UNL1        0.1895
      8 O          11.4127   66.5763    2.1000 O.3     1  UNL1       -0.3779
      9 C          13.4095   67.7645    1.3090 C.3     1  UNL1        0.1713
     10 C          13.4794   68.8224    0.1908 C.3     1  UNL1        0.1764
     11 O          12.4153   68.5407   -0.7342 O.3     1  UNL1       -0.3308
     12 O          13.2219   68.3853    2.5827 O.3     1  UNL1       -0.3794
     13 H          11.9589   65.9833    2.6344 H       1  UNL1        0.2106
     14 H          13.1256   67.6731    3.2290 H       1  UNL1        0.2105
     15 N          10.5150   67.0992   -0.8962 N.ar    1  UNL1       -0.2551
     16 C           9.3851   67.6599   -1.3613 C.ar    1  UNL1        0.3323
     17 N           8.5706   66.9877   -2.1962 N.ar    1  UNL1       -0.2743
     18 C           8.8732   65.7293   -2.5740 C.ar    1  UNL1        0.2626
     19 C          10.0566   65.1249   -2.0871 C.ar    1  UNL1        0.0795
     20 C          10.8584   65.8236   -1.2551 C.ar    1  UNL1        0.0869
     21 O           9.0986   68.7941   -1.0297 O.2     1  UNL1       -0.2464
     22 O           8.1351   65.1190   -3.3250 O.2     1  UNL1       -0.2670
     23 H           7.7620   67.4094   -2.5258 H       1  UNL1        0.1734
     24 O          17.1694   70.8282   -2.5024 O.3     1  UNL1       -0.2703
     25 P          18.6369   70.2743   -2.8615 P.3     1  UNL1        0.2208
     26 O          18.5331   68.8798   -3.3446 O.2     1  UNL1       -0.5170
     27 O          19.5645   70.3181   -1.5463 O.3     1  UNL1       -0.4371
     28 O          19.2924   71.1924   -4.0095 O.3     1  UNL1       -0.2865
     29 C          20.4016   70.4645   -4.5396 C.3     1  UNL1        0.2611
     30 C          21.6686   71.3124   -4.4140 C.3     1  UNL1        0.1582
     31 C          21.4697   72.6268   -5.1771 C.3     1  UNL1        0.1625
     32 C          21.0429   72.3007   -6.6122 C.3     1  UNL1        0.1686
     33 C          19.8210   71.3805   -6.5718 C.3     1  UNL1        0.1760
     34 O          22.6952   73.3611   -5.1936 O.3     1  UNL1       -0.3801
     35 O          20.7104   73.5092   -7.2982 O.3     1  UNL1       -0.3794
     36 O          20.1574   70.1611   -5.9113 O.3     1  UNL1       -0.3263
     37 H          22.5248   74.1782   -5.6819 H       1  UNL1        0.2105
     38 H          20.4472   73.2584   -8.1951 H       1  UNL1        0.2105
     39 C          23.1616   71.4182   -2.4921 C.2     1  UNL1        0.2231
     40 C          23.4281   71.7134   -1.0381 C.3     1  UNL1        0.0946
     41 N          21.9280   71.5994   -3.0017 N.am    1  UNL1       -0.2994
     42 O          24.0578   71.0169   -3.2034 O.2     1  UNL1       -0.2751
     43 H          21.2106   71.9203   -2.4326 H       1  UNL1        0.1496
     44 C          19.3668   71.0749   -8.0006 C.3     1  UNL1        0.1693
     45 O          18.3699   72.0192   -8.3963 O.3     1  UNL1       -0.3794
     46 H          18.1116   71.7915   -9.2996 H       1  UNL1        0.2105
@<TRIPOS>BOND
     1    29    30    1
     2    29    28    1
     3    29    36    1
     4    30    31    1
     5    30    41    1
     6    31    32    1
     7    31    34    1
     8    32    33    1
     9    32    35    1
    10    33    44    1
    11    33    36    1
    12    44    45    1
    13    39    40    1
    14    39    41   am
    15    39    42    2
    16    41    43    1
    17    28    25    1
    18    34    37    1
    19    35    38    1
    20    45    46    1
    21    15    16   ar
    22    15    20   ar
    23    15     6    1
    24    16    17   ar
    25    16    21    2
    26    17    18   ar
    27    17    23    1
    28    18    19   ar
    29    18    22    2
    30    19    20   ar
    31     6     7    1
    32     6    11    1
    33     7     8    1
    34     7     9    1
    35     8    13    1
    36     9    10    1
    37     9    12    1
    38    10    11    1
    39    10     5    1
    40    12    14    1
    41     5     4    1
    42     4     1    1
    43     1     2    2
    44     1     3    1
    45     1    24    1
    46    24    25    1
    47    25    26    2
    48    25    27    1
@<TRIPOS>MOLECULE
UD1
 46 48 0 0 0
SMALL
GASTEIGER

@<TRIPOS>ATOM
      1 P          21.0962   71.3521   -0.8393 P.3     1  UNL1        0.2189
      2 O          22.0048   70.7329   -1.8291 O.2     1  UNL1       -0.5170
      3 O          20.9728   70.3941    0.4489 O.3     1  UNL1       -0.4371
      4 O          19.6411   71.5524   -1.4992 O.3     1  UNL1       -0.3112
      5 C          19.4740   70.5070   -2.4582 C.3     1  UNL1        0.1811
      6 C          17.4538   70.6045   -5.4308 C.3     1  UNL1        0.2383
      7 C          17.2491   69.1753   -4.8690 C.3     1  UNL1        0.1895
      8 O          15.9473   68.6823   -5.1879 O.3     1  UNL1       -0.3779
      9 C          17.3963   69.4015   -3.3418 C.3     1  UNL1        0.1713
     10 C          18.1739   70.7274   -3.2330 C.3     1  UNL1        0.1764
     11 O          18.4699   71.1629   -4.5709 O.3     1  UNL1       -0.3308
     12 O          16.1112   69.5157   -2.7267 O.3     1  UNL1       -0.3794
     13 H          15.8846   67.7933   -4.8122 H       1  UNL1        0.2106
     14 H          15.6527   68.6789   -2.8804 H       1  UNL1        0.2105
     15 N          17.9203   70.5559   -6.8169 N.ar    1  UNL1       -0.2551
     16 C          17.0260   70.5311   -7.8204 C.ar    1  UNL1        0.3323
     17 N          17.4266   70.4902   -9.1050 N.ar    1  UNL1       -0.2743
     18 C          18.7405   70.4641   -9.4065 C.ar    1  UNL1        0.2626
     19 C          19.6926   70.4838   -8.3597 C.ar    1  UNL1        0.0795
     20 C          19.2633   70.5302   -7.0802 C.ar    1  UNL1        0.0869
     21 O          15.8375   70.5542   -7.5645 O.2     1  UNL1       -0.2464
     22 O          19.1037   70.4224  -10.5674 O.2     1  UNL1       -0.2670
     23 H          16.7678   70.4776   -9.8163 H       1  UNL1        0.1734
     24 O          21.6837   72.7816   -0.3920 O.3     1  UNL1       -0.2703
     25 P          22.9588   72.4877    0.5445 P.3     1  UNL1        0.2208
     26 O          24.0755   73.3742    0.1496 O.2     1  UNL1       -0.5170
     27 O          23.4082   70.9512    0.3737 O.3     1  UNL1       -0.4371
     28 O          22.5720   72.7645    2.0822 O.3     1  UNL1       -0.2865
     29 C          22.8134   74.1512    2.3272 C.3     1  UNL1        0.2611
     30 C          23.7182   74.2976    3.5519 C.3     1  UNL1        0.1582
     31 C          23.0361   73.6454    4.7598 C.3     1  UNL1        0.1625
     32 C          21.6325   74.2414    4.9110 C.3     1  UNL1        0.1686
     33 C          20.8839   74.0964    3.5844 C.3     1  UNL1        0.1760
     34 O          23.7998   73.9052    5.9390 O.3     1  UNL1       -0.3801
     35 O          20.9256   73.5447    5.9389 O.3     1  UNL1       -0.3794
     36 O          21.5728   74.8140    2.5612 O.3     1  UNL1       -0.3263
     37 H          23.3360   73.4778    6.6721 H       1  UNL1        0.2105
     38 H          20.0492   73.9505    6.0000 H       1  UNL1        0.2105
     39 C          26.1433   74.1833    3.7517 C.2     1  UNL1        0.2231
     40 C          27.4622   73.5028    3.4878 C.3     1  UNL1        0.0946
     41 N          24.9996   73.6367    3.2962 N.am    1  UNL1       -0.2994
     42 O          26.1116   75.2235    4.3739 O.2     1  UNL1       -0.2751
     43 H          25.0248   72.8044    2.7980 H       1  UNL1        0.1496
     44 C          19.4692   74.6595    3.7343 C.3     1  UNL1        0.1693
     45 O          18.6492   73.7119    4.4211 O.3     1  UNL1       -0.3794
     46 H          17.7688   74.1046    4.4941 H       1  UNL1        0.2105
@<TRIPOS>BOND
     1    29    30    1
     2    29    28    1
     3    29    36    1
     4    30    31    1
     5    30    41    1
     6    31    32    1
     7    31    34    1
     8    32    33    1
     9    32    35    1
    10    33    44    1
    11    33    36    1
    12    44    45    1
    13    39    40    1
    14    39    41   am
    15    39    42    2
    16    41    43    1
    17    28    25    1
    18    34    37    1
    19    35    38    1
    20    45    46    1
    21    15    16   ar
    22    15    20   ar
    23    15     6    1
    24    16    17   ar
    25    16    21    2
    26    17    18   ar
    27    17    23    1
    28    18    19   ar
    29    18    22    2
    30    19    20   ar
    31     6     7    1
    32     6    11    1
    33     7     8    1
    34     7     9    1
    35     8    13    1
    36     9    10    1
    37     9    12    1
    38    10    11    1
    39    10     5    1
    40    12    14    1
    41     5     4    1
    42     4     1    1
    43     1     2    2
    44     1     3    1
    45     1    24    1
    46    24    25    1
    47    25    26    2
    48    25    27    1
@<TRIPOS>MOLECULE
UD1
 46 48 0 0 0
SMALL
GASTEIGER

@<TRIPOS>ATOM
      1 P          23.5136   72.4598   -3.3051 P.3     1  UNL1        0.2189
      2 O          24.4724   73.3736   -3.9642 O.2     1  UNL1       -0.5170
      3 O          24.1314   70.9735   -3.2624 O.3     1  UNL1       -0.4371
      4 O          22.1332   72.4425   -4.1339 O.3     1  UNL1       -0.3112
      5 C          22.4806   72.5051   -5.5180 C.3     1  UNL1        0.1811
      6 C          19.4211   70.7114   -6.1090 C.3     1  UNL1        0.2383
      7 C          19.2182   72.0710   -6.8234 C.3     1  UNL1        0.1895
      8 O          18.3680   71.9283   -7.9619 O.3     1  UNL1       -0.3779
      9 C          20.6638   72.4316   -7.2540 C.3     1  UNL1        0.1713
     10 C          21.5538   71.5897   -6.3194 C.3     1  UNL1        0.1764
     11 O          20.6831   70.8734   -5.4272 O.3     1  UNL1       -0.3308
     12 O          20.8828   72.0739   -8.6203 O.3     1  UNL1       -0.3794
     13 H          18.2822   72.8060   -8.3593 H       1  UNL1        0.2106
     14 H          20.2575   72.5888   -9.1475 H       1  UNL1        0.2105
     15 N          18.3443   70.4629   -5.1498 N.ar    1  UNL1       -0.2551
     16 C          17.2279   69.8300   -5.5505 C.ar    1  UNL1        0.3323
     17 N          16.2231   69.5846   -4.6889 N.ar    1  UNL1       -0.2743
     18 C          16.3181   69.9809   -3.4036 C.ar    1  UNL1        0.2626
     19 C          17.4853   70.6534   -2.9698 C.ar    1  UNL1        0.0795
     20 C          18.4802   70.8819   -3.8537 C.ar    1  UNL1        0.0869
     21 O          17.1275   69.4664   -6.7065 O.2     1  UNL1       -0.2464
     22 O          15.4082   69.7637   -2.6249 O.2     1  UNL1       -0.2670
     23 H          15.4271   69.1227   -4.9940 H       1  UNL1        0.1734
     24 O          23.2322   72.9683   -1.8047 O.3     1  UNL1       -0.2703
     25 P          22.8069   71.6747   -0.9475 P.3     1  UNL1        0.2208
     26 O          24.0097   70.8706   -0.6383 O.2     1  UNL1       -0.5170
     27 O          21.7706   70.7833   -1.7982 O.3     1  UNL1       -0.4371
     28 O          22.1082   72.1443    0.4243 O.3     1  UNL1       -0.2865
     29 C          22.4027   73.5330    0.5851 C.3     1  UNL1        0.2611
     30 C          23.1101   73.7474    1.9244 C.3     1  UNL1        0.1582
     31 C          22.2023   73.2522    3.0558 C.3     1  UNL1        0.1625
     32 C          20.8368   73.9350    2.9230 C.3     1  UNL1        0.1686
     33 C          20.2994   73.7037    1.5091 C.3     1  UNL1        0.1760
     34 O          22.7858   73.5826    4.3174 O.3     1  UNL1       -0.3801
     35 O          19.9299   73.3796    3.8772 O.3     1  UNL1       -0.3794
     36 O          21.1893   74.2814    0.5546 O.3     1  UNL1       -0.3263
     37 H          22.1835   73.2533    4.9987 H       1  UNL1        0.2105
     38 H          19.0849   73.8361    3.7587 H       1  UNL1        0.2105
     39 C          24.4102   71.7639    2.4807 C.2     1  UNL1        0.2231
     40 C          25.7048   70.9918    2.4970 C.3     1  UNL1        0.0946
     41 N          24.3674   72.9968    1.9400 N.am    1  UNL1       -0.2994
     42 O          23.4069   71.2754    2.9551 O.2     1  UNL1       -0.2751
     43 H          25.1702   73.3880    1.5606 H       1  UNL1        0.1496
     44 C          18.9209   74.3542    1.3760 C.3     1  UNL1        0.1693
     45 O          18.8604   75.5168    2.2049 O.3     1  UNL1       -0.3794
     46 H          17.9779   75.8952    2.0921 H       1  UNL1        0.2105
@<TRIPOS>BOND
     1    29    30    1
     2    29    28    1
     3    29    36    1
     4    30    31    1
     5    30    41    1
     6    31    32    1
     7    31    34    1
     8    32    33    1
     9    32    35    1
    10    33    44    1
    11    33    36    1
    12    44    45    1
    13    39    40    1
    14    39    41   am
    15    39    42    2
    16    41    43    1
    17    28    25    1
    18    34    37    1
    19    35    38    1
    20    45    46    1
    21    15    16   ar
    22    15    20   ar
    23    15     6    1
    24    16    17   ar
    25    16    21    2
    26    17    18   ar
    27    17    23    1
    28    18    19   ar
    29    18    22    2
    30    19    20   ar
    31     6     7    1
    32     6    11    1
    33     7     8    1
    34     7     9    1
    35     8    13    1
    36     9    10    1
    37     9    12    1
    38    10    11    1
    39    10     5    1
    40    12    14    1
    41     5     4    1
    42     4     1    1
    43     1     2    2
    44     1     3    1
    45     1    24    1
    46    24    25    1
    47    25    26    2
    48    25    27    1
@<TRIPOS>MOLECULE
UD1
 46 48 0 0 0
SMALL
GASTEIGER

@<TRIPOS>ATOM
      1 P          21.2074   71.4990   -0.3944 P.3     1  UNL1        0.2189
      2 O          21.0833   70.3116    0.4793 O.2     1  UNL1       -0.5170
      3 O          19.7551   72.1594   -0.6119 O.3     1  UNL1       -0.4371
      4 O          21.8128   71.0554   -1.8190 O.3     1  UNL1       -0.3112
      5 C          21.4297   72.0577   -2.7618 C.3     1  UNL1        0.1811
      6 C          20.6150   71.1992   -6.1569 C.3     1  UNL1        0.2383
      7 C          21.0323   72.6897   -6.2229 C.3     1  UNL1        0.1895
      8 O          21.6278   72.9985   -7.4835 O.3     1  UNL1       -0.3779
      9 C          22.0755   72.7867   -5.0794 C.3     1  UNL1        0.1713
     10 C          21.7557   71.5791   -4.1774 C.3     1  UNL1        0.1764
     11 O          20.6149   70.9109   -4.7425 O.3     1  UNL1       -0.3308
     12 O          23.4020   72.6910   -5.6030 O.3     1  UNL1       -0.3794
     13 H          21.8632   73.9363   -7.4600 H       1  UNL1        0.2106
     14 H          23.5198   73.4389   -6.2037 H       1  UNL1        0.2105
     15 N          19.2790   71.0082   -6.7227 N.ar    1  UNL1       -0.2551
     16 C          19.1327   70.3198   -7.8681 C.ar    1  UNL1        0.3323
     17 N          17.9155   70.1254   -8.4093 N.ar    1  UNL1       -0.2743
     18 C          16.8175   70.6298   -7.8111 C.ar    1  UNL1        0.2626
     19 C          16.9578   71.3616   -6.6079 C.ar    1  UNL1        0.0795
     20 C          18.1899   71.5372   -6.0841 C.ar    1  UNL1        0.0869
     21 O          20.1135   69.8587   -8.4195 O.2     1  UNL1       -0.2464
     22 O          15.7170   70.4587   -8.3020 O.2     1  UNL1       -0.2670
     23 H          17.8280   69.6223   -9.2335 H       1  UNL1        0.1734
     24 O          22.1883   72.5722    0.2946 O.3     1  UNL1       -0.2703
     25 P          22.0323   72.3902    1.8858 P.3     1  UNL1        0.2208
     26 O          22.7404   71.1637    2.3136 O.2     1  UNL1       -0.5170
     27 O          20.4717   72.2669    2.2621 O.3     1  UNL1       -0.4371
     28 O          22.6649   73.6649    2.6376 O.3     1  UNL1       -0.2865
     29 C          23.2436   73.1846    3.8524 C.3     1  UNL1        0.2611
     30 C          22.9243   74.1620    4.9849 C.3     1  UNL1        0.1582
     31 C          23.4847   75.5434    4.6278 C.3     1  UNL1        0.1625
     32 C          24.9728   75.3970    4.2930 C.3     1  UNL1        0.1686
     33 C          25.1373   74.3284    3.2102 C.3     1  UNL1        0.1760
     34 O          23.3252   76.4268    5.7393 O.3     1  UNL1       -0.3801
     35 O          25.4804   76.6446    3.8161 O.3     1  UNL1       -0.3794
     36 O          24.6564   73.0746    3.6932 O.3     1  UNL1       -0.3263
     37 H          23.6897   77.2816    5.4714 H       1  UNL1        0.2105
     38 H          26.4174   76.5077    3.6169 H       1  UNL1        0.2105
     39 C          20.9456   74.3095    6.3982 C.2     1  UNL1        0.2231
     40 C          19.4518   74.4012    6.5781 C.3     1  UNL1        0.0946
     41 N          21.4733   74.2516    5.1602 N.am    1  UNL1       -0.2994
     42 O          21.6729   74.2872    7.3681 O.2     1  UNL1       -0.2751
     43 H          20.8915   74.2692    4.3839 H       1  UNL1        0.1496
     44 C          26.6174   74.1974    2.8453 C.3     1  UNL1        0.1693
     45 O          27.0779   72.8878    3.1842 O.3     1  UNL1       -0.3794
     46 H          28.0122   72.8476    2.9390 H       1  UNL1        0.2105
@<TRIPOS>BOND
     1    29    30    1
     2    29    28    1
     3    29    36    1
     4    30    31    1
     5    30    41    1
     6    31    32    1
     7    31    34    1
     8    32    33    1
     9    32    35    1
    10    33    44    1
    11    33    36    1
    12    44    45    1
    13    39    40    1
    14    39    41   am
    15    39    42    2
    16    41    43    1
    17    28    25    1
    18    34    37    1
    19    35    38    1
    20    45    46    1
    21    15    16   ar
    22    15    20   ar
    23    15     6    1
    24    16    17   ar
    25    16    21    2
    26    17    18   ar
    27    17    23    1
    28    18    19   ar
    29    18    22    2
    30    19    20   ar
    31     6     7    1
    32     6    11    1
    33     7     8    1
    34     7     9    1
    35     8    13    1
    36     9    10    1
    37     9    12    1
    38    10    11    1
    39    10     5    1
    40    12    14    1
    41     5     4    1
    42     4     1    1
    43     1     2    2
    44     1     3    1
    45     1    24    1
    46    24    25    1
    47    25    26    2
    48    25    27    1
