@<TRIPOS>MOLECULE
GDU
 43 45 0 0 0
SMALL
GASTEIGER

@<TRIPOS>ATOM
      1 P          22.0337   70.8812   -2.4174 P.3     1  UNL1        0.2189
      2 O          21.4639   69.5746   -2.0203 O.2     1  UNL1       -0.5170
      3 O          23.4974   70.6582   -3.0504 O.3     1  UNL1       -0.4371
      4 O          21.0772   71.5748   -3.5087 O.3     1  UNL1       -0.3112
      5 C          20.0990   72.3235   -2.7854 C.3     1  UNL1        0.1811
      6 C          17.8773   71.3398   -5.4355 C.3     1  UNL1        0.2383
      7 C          17.9827   70.0856   -4.5305 C.3     1  UNL1        0.1895
      8 O          16.7718   69.3270   -4.5673 O.3     1  UNL1       -0.3779
      9 C          18.1996   70.7136   -3.1291 C.3     1  UNL1        0.1713
     10 C          18.7257   72.1292   -3.4307 C.3     1  UNL1        0.1764
     11 O          18.8355   72.2526   -4.8593 O.3     1  UNL1       -0.3308
     12 O          16.9650   70.7737   -2.4121 O.3     1  UNL1       -0.3794
     13 H          16.9028   68.5644   -3.9867 H       1  UNL1        0.2106
     14 H          16.6578   69.8631   -2.3065 H       1  UNL1        0.2105
     15 N          18.2403   71.0144   -6.8158 N.ar    1  UNL1       -0.2551
     16 C          17.2793   70.6945   -7.7004 C.ar    1  UNL1        0.3323
     17 N          17.5859   70.3947   -8.9763 N.ar    1  UNL1       -0.2743
     18 C          18.8687   70.4010   -9.3869 C.ar    1  UNL1        0.2626
     19 C          19.8920   70.7305   -8.4647 C.ar    1  UNL1        0.0795
     20 C          19.5564   71.0312   -7.1921 C.ar    1  UNL1        0.0869
     21 O          16.1176   70.6851   -7.3448 O.2     1  UNL1       -0.2464
     22 O          19.1476   70.1252  -10.5404 O.2     1  UNL1       -0.2670
     23 H          16.8791   70.1703   -9.6023 H       1  UNL1        0.1734
     24 O          22.1495   71.8310   -1.1225 O.3     1  UNL1       -0.2703
     25 P          22.4435   70.8712    0.1354 P.3     1  UNL1        0.2208
     26 O          21.2386   70.0659    0.4334 O.2     1  UNL1       -0.5170
     27 O          23.6714   69.8893   -0.2145 O.3     1  UNL1       -0.4371
     28 O          22.8226   71.7664    1.4179 O.3     1  UNL1       -0.2858
     29 C          22.0169   72.9439    1.3548 C.3     1  UNL1        0.2704
     30 C          22.9123   74.1616    1.1205 C.3     1  UNL1        0.1967
     31 C          23.9273   74.2614    2.2634 C.3     1  UNL1        0.1715
     32 C          23.1680   74.2567    3.5950 C.3     1  UNL1        0.1694
     33 C          22.2540   73.0297    3.6424 C.3     1  UNL1        0.1761
     34 O          23.6015   74.0167   -0.1225 O.3     1  UNL1       -0.3775
     35 O          24.6739   75.4736    2.1380 O.3     1  UNL1       -0.3794
     36 O          22.3850   75.4463    3.7027 O.3     1  UNL1       -0.3794
     37 O          21.3038   73.0960    2.5800 O.3     1  UNL1       -0.3258
     38 H          22.9253   73.9506   -0.8104 H       1  UNL1        0.2106
     39 H          25.1236   75.4382    1.2843 H       1  UNL1        0.2105
     40 H          22.9996   76.1905    3.6625 H       1  UNL1        0.2105
     41 C          21.5164   72.9969    4.9829 C.3     1  UNL1        0.1693
     42 O          22.4180   73.3579    6.0306 O.3     1  UNL1       -0.3794
     43 H          21.9151   73.3257    6.8561 H       1  UNL1        0.2105
@<TRIPOS>BOND
     1    15    16   ar
     2    15    20   ar
     3    15     6    1
     4    16    17   ar
     5    16    21    2
     6    17    18   ar
     7    17    23    1
     8    18    19   ar
     9    18    22    2
    10    19    20   ar
    11     6     7    1
    12     6    11    1
    13     7     8    1
    14     7     9    1
    15     8    13    1
    16     9    10    1
    17     9    12    1
    18    10    11    1
    19    10     5    1
    20    12    14    1
    21     5     4    1
    22     4     1    1
    23     1     2    2
    24     1     3    1
    25     1    24    1
    26    24    25    1
    27    25    26    2
    28    25    27    1
    29    25    28    1
    30    28    29    1
    31    29    30    1
    32    29    37    1
    33    30    31    1
    34    30    34    1
    35    31    32    1
    36    31    35    1
    37    32    33    1
    38    32    36    1
    39    33    41    1
    40    33    37    1
    41    41    42    1
    42    34    38    1
    43    35    39    1
    44    36    40    1
    45    42    43    1
@<TRIPOS>MOLECULE
GDU
 43 45 0 0 0
SMALL
GASTEIGER

@<TRIPOS>ATOM
      1 P          22.1298   70.9872   -2.6341 P.3     1  UNL1        0.2189
      2 O          21.5678   69.6373   -2.4072 O.2     1  UNL1       -0.5170
      3 O          23.5979   70.8552   -3.2823 O.3     1  UNL1       -0.4371
      4 O          21.1731   71.8061   -3.6346 O.3     1  UNL1       -0.3112
      5 C          20.1802   72.4430   -2.8290 C.3     1  UNL1        0.1811
      6 C          17.9298   71.3926   -5.4289 C.3     1  UNL1        0.2383
      7 C          18.0600   70.1556   -4.5038 C.3     1  UNL1        0.1895
      8 O          16.8558   69.3855   -4.5097 O.3     1  UNL1       -0.3779
      9 C          18.2912   70.8101   -3.1169 C.3     1  UNL1        0.1713
     10 C          18.7996   72.2249   -3.4508 C.3     1  UNL1        0.1764
     11 O          18.8876   72.3241   -4.8828 O.3     1  UNL1       -0.3308
     12 O          17.0665   70.8716   -2.3831 O.3     1  UNL1       -0.3794
     13 H          17.0023   68.6344   -3.9178 H       1  UNL1        0.2106
     14 H          16.7694   69.9602   -2.2572 H       1  UNL1        0.2105
     15 N          18.2759   71.0464   -6.8085 N.ar    1  UNL1       -0.2551
     16 C          17.3045   70.7092   -7.6751 C.ar    1  UNL1        0.3323
     17 N          17.5955   70.3901   -8.9500 N.ar    1  UNL1       -0.2743
     18 C          18.8728   70.3939   -9.3774 C.ar    1  UNL1        0.2626
     19 C          19.9070   70.7413   -8.4740 C.ar    1  UNL1        0.0795
     20 C          19.5869   71.0613   -7.2022 C.ar    1  UNL1        0.0869
     21 O          16.1476   70.7018   -7.3043 O.2     1  UNL1       -0.2464
     22 O          19.1376   70.1004  -10.5299 O.2     1  UNL1       -0.2670
     23 H          16.8814   70.1534   -9.5631 H       1  UNL1        0.1734
     24 O          22.2331   71.7675   -1.2295 O.3     1  UNL1       -0.2703
     25 P          21.8973   70.6973   -0.0754 P.3     1  UNL1        0.2208
     26 O          20.9219   69.7096   -0.5875 O.2     1  UNL1       -0.5170
     27 O          23.2489   69.9386    0.3623 O.3     1  UNL1       -0.4371
     28 O          21.2738   71.4579    1.1984 O.3     1  UNL1       -0.2858
     29 C          22.2853   72.3364    1.6932 C.3     1  UNL1        0.2704
     30 C          22.1121   72.5135    3.2025 C.3     1  UNL1        0.1967
     31 C          20.7176   73.0831    3.4810 C.3     1  UNL1        0.1715
     32 C          20.5338   74.3575    2.6493 C.3     1  UNL1        0.1694
     33 C          20.8250   74.0397    1.1806 C.3     1  UNL1        0.1761
     34 O          22.2527   71.2488    3.8521 O.3     1  UNL1       -0.3775
     35 O          20.5939   73.3918    4.8709 O.3     1  UNL1       -0.3794
     36 O          21.4343   75.3646    3.1129 O.3     1  UNL1       -0.3794
     37 O          22.1753   73.5998    1.0418 O.3     1  UNL1       -0.3258
     38 H          23.1398   70.9254    3.6441 H       1  UNL1        0.2106
     39 H          20.7281   72.5666    5.3539 H       1  UNL1        0.2105
     40 H          21.2184   75.5276    4.0403 H       1  UNL1        0.2105
     41 C          20.6110   75.2980    0.3362 C.3     1  UNL1        0.1693
     42 O          21.4910   75.2710   -0.7889 O.3     1  UNL1       -0.3794
     43 H          21.3243   76.0787   -1.2940 H       1  UNL1        0.2105
@<TRIPOS>BOND
     1    15    16   ar
     2    15    20   ar
     3    15     6    1
     4    16    17   ar
     5    16    21    2
     6    17    18   ar
     7    17    23    1
     8    18    19   ar
     9    18    22    2
    10    19    20   ar
    11     6     7    1
    12     6    11    1
    13     7     8    1
    14     7     9    1
    15     8    13    1
    16     9    10    1
    17     9    12    1
    18    10    11    1
    19    10     5    1
    20    12    14    1
    21     5     4    1
    22     4     1    1
    23     1     2    2
    24     1     3    1
    25     1    24    1
    26    24    25    1
    27    25    26    2
    28    25    27    1
    29    25    28    1
    30    28    29    1
    31    29    30    1
    32    29    37    1
    33    30    31    1
    34    30    34    1
    35    31    32    1
    36    31    35    1
    37    32    33    1
    38    32    36    1
    39    33    41    1
    40    33    37    1
    41    41    42    1
    42    34    38    1
    43    35    39    1
    44    36    40    1
    45    42    43    1
@<TRIPOS>MOLECULE
GDU
 43 45 0 0 0
SMALL
GASTEIGER

@<TRIPOS>ATOM
      1 P          21.6259   70.5817   -0.3329 P.3     1  UNL1        0.2189
      2 O          21.7975   69.6623    0.8138 O.2     1  UNL1       -0.5170
      3 O          23.0716   71.0392   -0.8748 O.3     1  UNL1       -0.4371
      4 O          20.8252   69.8307   -1.5083 O.3     1  UNL1       -0.3112
      5 C          20.9806   70.6231   -2.6866 C.3     1  UNL1        0.1811
      6 C          18.4239   71.0006   -5.1862 C.3     1  UNL1        0.2383
      7 C          18.0935   69.6546   -4.4919 C.3     1  UNL1        0.1895
      8 O          16.6857   69.4070   -4.5033 O.3     1  UNL1       -0.3779
      9 C          18.6000   69.9015   -3.0470 C.3     1  UNL1        0.1713
     10 C          19.6052   71.0587   -3.1954 C.3     1  UNL1        0.1764
     11 O          19.6827   71.3852   -4.5938 O.3     1  UNL1       -0.3308
     12 O          17.5162   70.2776   -2.1951 O.3     1  UNL1       -0.3794
     13 H          16.5481   68.5589   -4.0589 H       1  UNL1        0.2106
     14 H          16.8941   69.5375   -2.1900 H       1  UNL1        0.2105
     15 N          18.5688   70.8162   -6.6312 N.ar    1  UNL1       -0.2551
     16 C          17.4748   70.7855   -7.4126 C.ar    1  UNL1        0.3323
     17 N          17.5807   70.6208   -8.7443 N.ar    1  UNL1       -0.2743
     18 C          18.7908   70.4734   -9.3172 C.ar    1  UNL1        0.2626
     19 C          19.9515   70.4978   -8.5058 C.ar    1  UNL1        0.0795
     20 C          19.8171   70.6688   -7.1735 C.ar    1  UNL1        0.0869
     21 O          16.3765   70.9177   -6.9102 O.2     1  UNL1       -0.2464
     22 O          18.8873   70.3194  -10.5220 O.2     1  UNL1       -0.2670
     23 H          16.7808   70.6054   -9.2936 H       1  UNL1        0.1734
     24 O          20.7966   71.8784    0.1396 O.3     1  UNL1       -0.2703
     25 P          21.8201   73.1201    0.1185 P.3     1  UNL1        0.2208
     26 O          23.1862   72.6283   -0.1658 O.2     1  UNL1       -0.5170
     27 O          21.3761   74.1617   -1.0271 O.3     1  UNL1       -0.4371
     28 O          21.8008   73.8573    1.5489 O.3     1  UNL1       -0.2858
     29 C          22.7885   73.2179    2.3586 C.3     1  UNL1        0.2704
     30 C          22.1168   72.5922    3.5819 C.3     1  UNL1        0.1967
     31 C          21.3977   73.6900    4.3720 C.3     1  UNL1        0.1715
     32 C          22.3993   74.8090    4.6788 C.3     1  UNL1        0.1694
     33 C          23.0486   75.2683    3.3709 C.3     1  UNL1        0.1761
     34 O          21.1716   71.6082    3.1581 O.3     1  UNL1       -0.3775
     35 O          20.8901   73.1485    5.5933 O.3     1  UNL1       -0.3794
     36 O          23.4028   74.3209    5.5704 O.3     1  UNL1       -0.3794
     37 O          23.7542   74.1802    2.7758 O.3     1  UNL1       -0.3258
     38 H          21.6659   70.9429    2.6601 H       1  UNL1        0.2106
     39 H          20.2761   72.4432    5.3529 H       1  UNL1        0.2105
     40 H          22.9488   74.0385    6.3750 H       1  UNL1        0.2105
     41 C          24.0258   76.4095    3.6619 C.3     1  UNL1        0.1693
     42 O          23.3163   77.6493    3.6830 O.3     1  UNL1       -0.3794
     43 H          23.9663   78.3406    3.8697 H       1  UNL1        0.2105
@<TRIPOS>BOND
     1    15    16   ar
     2    15    20   ar
     3    15     6    1
     4    16    17   ar
     5    16    21    2
     6    17    18   ar
     7    17    23    1
     8    18    19   ar
     9    18    22    2
    10    19    20   ar
    11     6     7    1
    12     6    11    1
    13     7     8    1
    14     7     9    1
    15     8    13    1
    16     9    10    1
    17     9    12    1
    18    10    11    1
    19    10     5    1
    20    12    14    1
    21     5     4    1
    22     4     1    1
    23     1     2    2
    24     1     3    1
    25     1    24    1
    26    24    25    1
    27    25    26    2
    28    25    27    1
    29    25    28    1
    30    28    29    1
    31    29    30    1
    32    29    37    1
    33    30    31    1
    34    30    34    1
    35    31    32    1
    36    31    35    1
    37    32    33    1
    38    32    36    1
    39    33    41    1
    40    33    37    1
    41    41    42    1
    42    34    38    1
    43    35    39    1
    44    36    40    1
    45    42    43    1
@<TRIPOS>MOLECULE
GDU
 43 45 0 0 0
SMALL
GASTEIGER

@<TRIPOS>ATOM
      1 P          22.0920   74.0150   -6.7964 P.3     1  UNL1        0.2189
      2 O          22.7227   72.6851   -6.9489 O.2     1  UNL1       -0.5170
      3 O          23.2288   75.1549   -6.8300 O.3     1  UNL1       -0.4371
      4 O          21.0528   74.2578   -7.9997 O.3     1  UNL1       -0.3112
      5 C          21.3246   73.2631   -8.9882 C.3     1  UNL1        0.1811
      6 C          18.6434   71.2103   -7.7535 C.3     1  UNL1        0.2383
      7 C          18.0082   72.6127   -7.9344 C.3     1  UNL1        0.1895
      8 O          16.6210   72.5057   -8.2622 O.3     1  UNL1       -0.3779
      9 C          18.8163   73.1837   -9.1286 C.3     1  UNL1        0.1713
     10 C          20.1090   72.3469   -9.1400 C.3     1  UNL1        0.1764
     11 O          20.0422   71.4359   -8.0293 O.3     1  UNL1       -0.3308
     12 O          18.0919   73.0144  -10.3486 O.3     1  UNL1       -0.3794
     13 H          16.2872   73.4083   -8.3605 H       1  UNL1        0.2106
     14 H          17.2684   73.5125  -10.2569 H       1  UNL1        0.2105
     15 N          18.4588   70.7310   -6.3827 N.ar    1  UNL1       -0.2551
     16 C          17.3283   70.0835   -6.0492 C.ar    1  UNL1        0.3323
     17 N          17.1352   69.6295   -4.7968 N.ar    1  UNL1       -0.2743
     18 C          18.0726   69.8266   -3.8500 C.ar    1  UNL1        0.2626
     19 C          19.2659   70.5121   -4.1854 C.ar    1  UNL1        0.0795
     20 C          19.4359   70.9531   -5.4499 C.ar    1  UNL1        0.0869
     21 O          16.4739   69.8978   -6.8927 O.2     1  UNL1       -0.2464
     22 O          17.8966   69.4203   -2.7149 O.2     1  UNL1       -0.2670
     23 H          16.3151   69.1605   -4.5748 H       1  UNL1        0.1734
     24 O          21.3109   74.0792   -5.3899 O.3     1  UNL1       -0.2703
     25 P          22.4011   73.8066   -4.2378 P.3     1  UNL1        0.2208
     26 O          23.4914   72.9660   -4.7797 O.2     1  UNL1       -0.5170
     27 O          23.0077   75.2098   -3.7305 O.3     1  UNL1       -0.4371
     28 O          21.7006   73.0484   -3.0031 O.3     1  UNL1       -0.2858
     29 C          22.7116   72.8415   -2.0158 C.3     1  UNL1        0.2704
     30 C          22.8673   71.3429   -1.7528 C.3     1  UNL1        0.1967
     31 C          21.5247   70.7777   -1.2789 C.3     1  UNL1        0.1715
     32 C          21.0407   71.6033   -0.0815 C.3     1  UNL1        0.1694
     33 C          21.0217   73.0831   -0.4723 C.3     1  UNL1        0.1761
     34 O          23.2673   70.6848   -2.9561 O.3     1  UNL1       -0.3775
     35 O          21.6891   69.4127   -0.8890 O.3     1  UNL1       -0.3794
     36 O          21.9250   71.4071    1.0229 O.3     1  UNL1       -0.3794
     37 O          22.3408   73.5084   -0.8115 O.3     1  UNL1       -0.3258
     38 H          24.1109   71.0761   -3.2209 H       1  UNL1        0.2106
     39 H          22.0048   68.9355   -1.6668 H       1  UNL1        0.2105
     40 H          21.9094   70.4635    1.2297 H       1  UNL1        0.2105
     41 C          20.5070   73.9134    0.7058 C.3     1  UNL1        0.1693
     42 O          21.5652   74.1139    1.6444 O.3     1  UNL1       -0.3794
     43 H          21.2005   74.6406    2.3689 H       1  UNL1        0.2105
@<TRIPOS>BOND
     1    15    16   ar
     2    15    20   ar
     3    15     6    1
     4    16    17   ar
     5    16    21    2
     6    17    18   ar
     7    17    23    1
     8    18    19   ar
     9    18    22    2
    10    19    20   ar
    11     6     7    1
    12     6    11    1
    13     7     8    1
    14     7     9    1
    15     8    13    1
    16     9    10    1
    17     9    12    1
    18    10    11    1
    19    10     5    1
    20    12    14    1
    21     5     4    1
    22     4     1    1
    23     1     2    2
    24     1     3    1
    25     1    24    1
    26    24    25    1
    27    25    26    2
    28    25    27    1
    29    25    28    1
    30    28    29    1
    31    29    30    1
    32    29    37    1
    33    30    31    1
    34    30    34    1
    35    31    32    1
    36    31    35    1
    37    32    33    1
    38    32    36    1
    39    33    41    1
    40    33    37    1
    41    41    42    1
    42    34    38    1
    43    35    39    1
    44    36    40    1
    45    42    43    1
@<TRIPOS>MOLECULE
GDU
 43 45 0 0 0
SMALL
GASTEIGER

@<TRIPOS>ATOM
      1 P          21.6565   70.4128   -0.4544 P.3     1  UNL1        0.2189
      2 O          21.8474   69.5711    0.7475 O.2     1  UNL1       -0.5170
      3 O          23.0874   70.7242   -1.1242 O.3     1  UNL1       -0.4371
      4 O          20.7267   69.6359   -1.5120 O.3     1  UNL1       -0.3112
      5 C          20.9445   70.2495   -2.7835 C.3     1  UNL1        0.1811
      6 C          18.4885   70.9444   -5.3158 C.3     1  UNL1        0.2383
      7 C          18.0156   69.6175   -4.6688 C.3     1  UNL1        0.1895
      8 O          16.5910   69.5080   -4.7129 O.3     1  UNL1       -0.3779
      9 C          18.5134   69.7727   -3.2082 C.3     1  UNL1        0.1713
     10 C          19.6284   70.8307   -3.3033 C.3     1  UNL1        0.1764
     11 O          19.7660   71.1880   -4.6895 O.3     1  UNL1       -0.3308
     12 O          17.4534   70.2277   -2.3648 O.3     1  UNL1       -0.3794
     13 H          16.3631   68.6649   -4.2970 H       1  UNL1        0.2106
     14 H          16.7629   69.5516   -2.3934 H       1  UNL1        0.2105
     15 N          18.6450   70.7881   -6.7629 N.ar    1  UNL1       -0.2551
     16 C          17.5608   70.8173   -7.5579 C.ar    1  UNL1        0.3323
     17 N          17.6775   70.6795   -8.8918 N.ar    1  UNL1       -0.2743
     18 C          18.8884   70.4993   -9.4534 C.ar    1  UNL1        0.2626
     19 C          20.0387   70.4606   -8.6278 C.ar    1  UNL1        0.0795
     20 C          19.8937   70.6056   -7.2935 C.ar    1  UNL1        0.0869
     21 O          16.4619   70.9796   -7.0657 O.2     1  UNL1       -0.2464
     22 O          18.9945   70.3697  -10.6602 O.2     1  UNL1       -0.2670
     23 H          16.8847   70.7074   -9.4508 H       1  UNL1        0.1734
     24 O          20.9505   71.7970   -0.0324 O.3     1  UNL1       -0.2703
     25 P          22.0036   72.5976    0.8840 P.3     1  UNL1        0.2208
     26 O          21.3128   73.7112    1.5709 O.2     1  UNL1       -0.5170
     27 O          22.6297   71.5974    1.9804 O.3     1  UNL1       -0.4371
     28 O          23.1831   73.1850   -0.0401 O.3     1  UNL1       -0.2858
     29 C          22.7314   74.4449   -0.5384 C.3     1  UNL1        0.2704
     30 C          22.7513   74.4243   -2.0677 C.3     1  UNL1        0.1967
     31 C          24.1780   74.1343   -2.5439 C.3     1  UNL1        0.1715
     32 C          25.1272   75.1466   -1.8927 C.3     1  UNL1        0.1694
     33 C          24.9282   75.1109   -0.3754 C.3     1  UNL1        0.1761
     34 O          21.8698   73.4059   -2.5442 O.3     1  UNL1       -0.3775
     35 O          24.2437   74.2570   -3.9662 O.3     1  UNL1       -0.3794
     36 O          24.8409   76.4560   -2.3863 O.3     1  UNL1       -0.3794
     37 O          23.5869   75.4787   -0.0570 O.3     1  UNL1       -0.3258
     38 H          20.9872   73.6246   -2.2154 H       1  UNL1        0.2106
     39 H          23.6244   73.6126   -4.3316 H       1  UNL1        0.2105
     40 H          24.9734   76.4297   -3.3429 H       1  UNL1        0.2105
     41 C          25.8959   76.0939    0.2874 C.3     1  UNL1        0.1693
     42 O          26.1468   75.6807    1.6318 O.3     1  UNL1       -0.3794
     43 H          26.7599   76.3244    2.0126 H       1  UNL1        0.2105
@<TRIPOS>BOND
     1    15    16   ar
     2    15    20   ar
     3    15     6    1
     4    16    17   ar
     5    16    21    2
     6    17    18   ar
     7    17    23    1
     8    18    19   ar
     9    18    22    2
    10    19    20   ar
    11     6     7    1
    12     6    11    1
    13     7     8    1
    14     7     9    1
    15     8    13    1
    16     9    10    1
    17     9    12    1
    18    10    11    1
    19    10     5    1
    20    12    14    1
    21     5     4    1
    22     4     1    1
    23     1     2    2
    24     1     3    1
    25     1    24    1
    26    24    25    1
    27    25    26    2
    28    25    27    1
    29    25    28    1
    30    28    29    1
    31    29    30    1
    32    29    37    1
    33    30    31    1
    34    30    34    1
    35    31    32    1
    36    31    35    1
    37    32    33    1
    38    32    36    1
    39    33    41    1
    40    33    37    1
    41    41    42    1
    42    34    38    1
    43    35    39    1
    44    36    40    1
    45    42    43    1
@<TRIPOS>MOLECULE
GDU
 43 45 0 0 0
SMALL
GASTEIGER

@<TRIPOS>ATOM
      1 P          21.6768   70.6722   -0.9109 P.3     1  UNL1        0.2189
      2 O          23.0927   70.2491   -0.8345 O.2     1  UNL1       -0.5170
      3 O          20.8056   69.5082   -1.6031 O.3     1  UNL1       -0.4371
      4 O          21.1187   70.9506    0.5716 O.3     1  UNL1       -0.3112
      5 C          21.3311   72.3375    0.8400 C.3     1  UNL1        0.1811
      6 C          23.1070   73.9515    3.5174 C.3     1  UNL1        0.2383
      7 C          21.7132   74.6299    3.5104 C.3     1  UNL1        0.1895
      8 O          21.3415   75.0449    4.8268 O.3     1  UNL1       -0.3779
      9 C          20.7960   73.4827    3.0125 C.3     1  UNL1        0.1713
     10 C          21.7592   72.5169    2.2977 C.3     1  UNL1        0.1764
     11 O          23.0729   73.0995    2.3527 O.3     1  UNL1       -0.3308
     12 O          20.1584   72.8377    4.1169 O.3     1  UNL1       -0.3794
     13 H          20.4695   75.4574    4.7533 H       1  UNL1        0.2106
     14 H          19.6172   73.5068    4.5575 H       1  UNL1        0.2105
     15 N          24.1699   74.9505    3.3948 N.ar    1  UNL1       -0.2551
     16 C          25.2125   74.9226    4.2436 C.ar    1  UNL1        0.3323
     17 N          26.2047   75.8273    4.1501 N.ar    1  UNL1       -0.2743
     18 C          26.1635   76.7865    3.2054 C.ar    1  UNL1        0.2626
     19 C          25.0686   76.8317    2.3080 C.ar    1  UNL1        0.0795
     20 C          24.0891   75.9096    2.4213 C.ar    1  UNL1        0.0869
     21 O          25.2637   74.0630    5.1006 O.2     1  UNL1       -0.2464
     22 O          27.0588   77.6088    3.1231 O.2     1  UNL1       -0.2670
     23 H          26.9518   75.7896    4.7684 H       1  UNL1        0.1734
     24 O          21.5663   72.0174   -1.7887 O.3     1  UNL1       -0.2703
     25 P          22.0163   71.6358   -3.2860 P.3     1  UNL1        0.2208
     26 O          22.3878   72.8668   -4.0181 O.2     1  UNL1       -0.5170
     27 O          23.2834   70.6431   -3.2288 O.3     1  UNL1       -0.4371
     28 O          20.7985   70.9063   -4.0441 O.3     1  UNL1       -0.2858
     29 C          19.8026   71.9017   -4.2832 C.3     1  UNL1        0.2704
     30 C          18.4486   71.3982   -3.7809 C.3     1  UNL1        0.1967
     31 C          18.0988   70.0972   -4.5099 C.3     1  UNL1        0.1715
     32 C          18.1836   70.3438   -6.0204 C.3     1  UNL1        0.1694
     33 C          19.5596   70.9259   -6.3532 C.3     1  UNL1        0.1761
     34 O          18.5195   71.1564   -2.3746 O.3     1  UNL1       -0.3775
     35 O          16.7733   69.6926   -4.1607 O.3     1  UNL1       -0.3794
     36 O          17.1631   71.2629   -6.4125 O.3     1  UNL1       -0.3794
     37 O          19.7302   72.1728   -5.6810 O.3     1  UNL1       -0.3258
     38 H          18.7485   71.9984   -1.9580 H       1  UNL1        0.2106
     39 H          16.7637   69.5610   -3.2042 H       1  UNL1        0.2105
     40 H          16.3173   70.8584   -6.1793 H       1  UNL1        0.2105
     41 C          19.6673   71.1440   -7.8641 C.3     1  UNL1        0.1693
     42 O          20.3354   70.0300   -8.4589 O.3     1  UNL1       -0.3794
     43 H          20.3819   70.2061   -9.4087 H       1  UNL1        0.2105
@<TRIPOS>BOND
     1    15    16   ar
     2    15    20   ar
     3    15     6    1
     4    16    17   ar
     5    16    21    2
     6    17    18   ar
     7    17    23    1
     8    18    19   ar
     9    18    22    2
    10    19    20   ar
    11     6     7    1
    12     6    11    1
    13     7     8    1
    14     7     9    1
    15     8    13    1
    16     9    10    1
    17     9    12    1
    18    10    11    1
    19    10     5    1
    20    12    14    1
    21     5     4    1
    22     4     1    1
    23     1     2    2
    24     1     3    1
    25     1    24    1
    26    24    25    1
    27    25    26    2
    28    25    27    1
    29    25    28    1
    30    28    29    1
    31    29    30    1
    32    29    37    1
    33    30    31    1
    34    30    34    1
    35    31    32    1
    36    31    35    1
    37    32    33    1
    38    32    36    1
    39    33    41    1
    40    33    37    1
    41    41    42    1
    42    34    38    1
    43    35    39    1
    44    36    40    1
    45    42    43    1
@<TRIPOS>MOLECULE
GDU
 43 45 0 0 0
SMALL
GASTEIGER

@<TRIPOS>ATOM
      1 P          22.8160   74.5056   -4.8004 P.3     1  UNL1        0.2189
      2 O          23.3132   73.1120   -4.8110 O.2     1  UNL1       -0.5170
      3 O          23.7327   75.4097   -5.7675 O.3     1  UNL1       -0.4371
      4 O          21.2943   74.5369   -5.3202 O.3     1  UNL1       -0.3112
      5 C          21.3417   74.4456   -6.7449 C.3     1  UNL1        0.1811
      6 C          18.8335   71.8863   -6.4509 C.3     1  UNL1        0.2383
      7 C          18.1263   73.1808   -5.9743 C.3     1  UNL1        0.1895
      8 O          16.7283   73.1361   -6.2689 O.3     1  UNL1       -0.3779
      9 C          18.8355   74.2692   -6.8214 C.3     1  UNL1        0.1713
     10 C          20.1615   73.6098   -7.2437 C.3     1  UNL1        0.1764
     11 O          20.2018   72.3023   -6.6461 O.3     1  UNL1       -0.3308
     12 O          18.0482   74.6031   -7.9662 O.3     1  UNL1       -0.3794
     13 H          16.3491   73.9664   -5.9483 H       1  UNL1        0.2106
     14 H          17.2101   74.9550   -7.6368 H       1  UNL1        0.2105
     15 N          18.7523   70.8443   -5.4260 N.ar    1  UNL1       -0.2551
     16 C          17.6111   70.1505   -5.2693 C.ar    1  UNL1        0.3323
     17 N          17.5114   69.1850   -4.3368 N.ar    1  UNL1       -0.2743
     18 C          18.5563   68.9038   -3.5346 C.ar    1  UNL1        0.2626
     19 C          19.7628   69.6304   -3.6844 C.ar    1  UNL1        0.0795
     20 C          19.8372   70.5907   -4.6304 C.ar    1  UNL1        0.0869
     21 O          16.6603   70.3926   -5.9858 O.2     1  UNL1       -0.2464
     22 O          18.4654   68.0332   -2.6871 O.2     1  UNL1       -0.2670
     23 H          16.6815   68.6913   -4.2404 H       1  UNL1        0.1734
     24 O          22.8843   75.0874   -3.3006 O.3     1  UNL1       -0.2703
     25 P          21.6394   74.4572   -2.4986 P.3     1  UNL1        0.2208
     26 O          20.6235   75.5064   -2.2618 O.2     1  UNL1       -0.5170
     27 O          20.9888   73.2671   -3.3672 O.3     1  UNL1       -0.4371
     28 O          22.1486   73.8737   -1.0878 O.3     1  UNL1       -0.2858
     29 C          20.9844   73.5107   -0.3444 C.3     1  UNL1        0.2704
     30 C          21.0428   74.1568    1.0407 C.3     1  UNL1        0.1967
     31 C          22.3114   73.6849    1.7579 C.3     1  UNL1        0.1715
     32 C          22.3367   72.1523    1.7515 C.3     1  UNL1        0.1694
     33 C          22.1820   71.6579    0.3111 C.3     1  UNL1        0.1761
     34 O          21.0689   75.5788    0.9048 O.3     1  UNL1       -0.3775
     35 O          22.3069   74.1617    3.1052 O.3     1  UNL1       -0.3794
     36 O          21.2633   71.6533    2.5508 O.3     1  UNL1       -0.3794
     37 O          20.9286   72.0920   -0.2148 O.3     1  UNL1       -0.3258
     38 H          20.2573   75.8298    0.4430 H       1  UNL1        0.2106
     39 H          22.2786   75.1258    3.0607 H       1  UNL1        0.2105
     40 H          21.3985   71.9936    3.4448 H       1  UNL1        0.2105
     41 C          22.2404   70.1289    0.2894 C.3     1  UNL1        0.1693
     42 O          23.0748   69.6697    1.3542 O.3     1  UNL1       -0.3794
     43 H          23.0843   68.7039    1.3058 H       1  UNL1        0.2105
@<TRIPOS>BOND
     1    15    16   ar
     2    15    20   ar
     3    15     6    1
     4    16    17   ar
     5    16    21    2
     6    17    18   ar
     7    17    23    1
     8    18    19   ar
     9    18    22    2
    10    19    20   ar
    11     6     7    1
    12     6    11    1
    13     7     8    1
    14     7     9    1
    15     8    13    1
    16     9    10    1
    17     9    12    1
    18    10    11    1
    19    10     5    1
    20    12    14    1
    21     5     4    1
    22     4     1    1
    23     1     2    2
    24     1     3    1
    25     1    24    1
    26    24    25    1
    27    25    26    2
    28    25    27    1
    29    25    28    1
    30    28    29    1
    31    29    30    1
    32    29    37    1
    33    30    31    1
    34    30    34    1
    35    31    32    1
    36    31    35    1
    37    32    33    1
    38    32    36    1
    39    33    41    1
    40    33    37    1
    41    41    42    1
    42    34    38    1
    43    35    39    1
    44    36    40    1
    45    42    43    1
@<TRIPOS>MOLECULE
GDU
 43 45 0 0 0
SMALL
GASTEIGER

@<TRIPOS>ATOM
      1 P          22.8712   72.3207   -3.4241 P.3     1  UNL1        0.2189
      2 O          23.8089   73.1137   -4.2495 O.2     1  UNL1       -0.5170
      3 O          23.4090   70.8076   -3.3048 O.3     1  UNL1       -0.4371
      4 O          22.7663   72.9702   -1.9564 O.3     1  UNL1       -0.3112
      5 C          22.4424   71.9092   -1.0565 C.3     1  UNL1        0.1811
      6 C          22.2434   73.7293    2.0378 C.3     1  UNL1        0.2383
      7 C          21.9000   74.7765    0.9476 C.3     1  UNL1        0.1895
      8 O          20.9944   75.7603    1.4529 O.3     1  UNL1       -0.3779
      9 C          21.2188   73.9035   -0.1383 C.3     1  UNL1        0.1713
     10 C          21.7144   72.4769    0.1632 C.3     1  UNL1        0.1764
     11 O          22.6202   72.5620    1.2769 O.3     1  UNL1       -0.3308
     12 O          19.7967   73.9813   -0.0223 O.3     1  UNL1       -0.3794
     13 H          20.8225   76.3788    0.7292 H       1  UNL1        0.2106
     14 H          19.5545   74.9067   -0.1626 H       1  UNL1        0.2105
     15 N          23.3608   74.1892    2.8641 N.ar    1  UNL1       -0.2551
     16 C          23.4389   73.8089    4.1516 C.ar    1  UNL1        0.3323
     17 N          24.4577   74.2148    4.9319 N.ar    1  UNL1       -0.2743
     18 C          25.4154   75.0211    4.4350 C.ar    1  UNL1        0.2626
     19 C          25.3431   75.4344    3.0822 C.ar    1  UNL1        0.0795
     20 C          24.3128   75.0092    2.3205 C.ar    1  UNL1        0.0869
     21 O          22.5826   73.0814    4.6138 O.2     1  UNL1       -0.2464
     22 O          26.3355   75.3929    5.1419 O.2     1  UNL1       -0.2670
     23 H          24.5005   73.9272    5.8578 H       1  UNL1        0.1734
     24 O          21.4176   72.3191   -4.1167 O.3     1  UNL1       -0.2703
     25 P          21.5490   73.1657   -5.4790 P.3     1  UNL1        0.2208
     26 O          21.6582   74.6055   -5.1562 O.2     1  UNL1       -0.5170
     27 O          22.8651   72.6943   -6.2788 O.3     1  UNL1       -0.4371
     28 O          20.2487   72.9170   -6.3941 O.3     1  UNL1       -0.2858
     29 C          20.4469   71.6732   -7.0676 C.3     1  UNL1        0.2704
     30 C          20.3028   71.8822   -8.5758 C.3     1  UNL1        0.1967
     31 C          18.9071   72.4405   -8.8707 C.3     1  UNL1        0.1715
     32 C          17.8643   71.5120   -8.2382 C.3     1  UNL1        0.1694
     33 C          18.1925   71.3326   -6.7540 C.3     1  UNL1        0.1761
     34 O          21.2947   72.8057   -9.0280 O.3     1  UNL1       -0.3775
     35 O          18.7037   72.5029  -10.2839 O.3     1  UNL1       -0.3794
     36 O          17.8922   70.2442   -8.8954 O.3     1  UNL1       -0.3794
     37 O          19.4784   70.7300   -6.6148 O.3     1  UNL1       -0.3258
     38 H          22.1545   72.4176   -8.8160 H       1  UNL1        0.2106
     39 H          19.3865   73.0857  -10.6395 H       1  UNL1        0.2105
     40 H          17.6862   70.4063   -9.8252 H       1  UNL1        0.2105
     41 C          17.1372   70.4343   -6.1049 C.3     1  UNL1        0.1693
     42 O          16.1190   70.1304   -7.0599 O.3     1  UNL1       -0.3794
     43 H          15.4758   69.5635   -6.6125 H       1  UNL1        0.2105
@<TRIPOS>BOND
     1    15    16   ar
     2    15    20   ar
     3    15     6    1
     4    16    17   ar
     5    16    21    2
     6    17    18   ar
     7    17    23    1
     8    18    19   ar
     9    18    22    2
    10    19    20   ar
    11     6     7    1
    12     6    11    1
    13     7     8    1
    14     7     9    1
    15     8    13    1
    16     9    10    1
    17     9    12    1
    18    10    11    1
    19    10     5    1
    20    12    14    1
    21     5     4    1
    22     4     1    1
    23     1     2    2
    24     1     3    1
    25     1    24    1
    26    24    25    1
    27    25    26    2
    28    25    27    1
    29    25    28    1
    30    28    29    1
    31    29    30    1
    32    29    37    1
    33    30    31    1
    34    30    34    1
    35    31    32    1
    36    31    35    1
    37    32    33    1
    38    32    36    1
    39    33    41    1
    40    33    37    1
    41    41    42    1
    42    34    38    1
    43    35    39    1
    44    36    40    1
    45    42    43    1
@<TRIPOS>MOLECULE
GDU
 43 45 0 0 0
SMALL
GASTEIGER

@<TRIPOS>ATOM
      1 P          19.5962   69.7711   -3.0337 P.3     1  UNL1        0.2189
      2 O          18.6198   68.8937   -2.3508 O.2     1  UNL1       -0.5170
      3 O          19.6037   69.4410   -4.6097 O.3     1  UNL1       -0.4371
      4 O          19.1841   71.3096   -2.8096 O.3     1  UNL1       -0.3112
      5 C          17.8358   71.4468   -3.2608 C.3     1  UNL1        0.1811
      6 C          17.9250   72.7668   -6.6040 C.3     1  UNL1        0.2383
      7 C          16.4263   72.4690   -6.3432 C.3     1  UNL1        0.1895
      8 O          15.5926   73.3802   -7.0628 O.3     1  UNL1       -0.3779
      9 C          16.3100   72.7024   -4.8143 C.3     1  UNL1        0.1713
     10 C          17.7562   72.5633   -4.3035 C.3     1  UNL1        0.1764
     11 O          18.5826   72.2358   -5.4339 O.3     1  UNL1       -0.3308
     12 O          15.8011   74.0103   -4.5459 O.3     1  UNL1       -0.3794
     13 H          14.6776   73.1418   -6.8584 H       1  UNL1        0.2106
     14 H          14.9195   74.0543   -4.9404 H       1  UNL1        0.2105
     15 N          18.3870   72.0801   -7.8115 N.ar    1  UNL1       -0.2551
     16 C          18.4355   72.7448   -8.9794 C.ar    1  UNL1        0.3323
     17 N          18.8596   72.1378  -10.1035 N.ar    1  UNL1       -0.2743
     18 C          19.2350   70.8445  -10.0777 C.ar    1  UNL1        0.2626
     19 C          19.1838   70.1301   -8.8557 C.ar    1  UNL1        0.0795
     20 C          18.7584   70.7643   -7.7424 C.ar    1  UNL1        0.0869
     21 O          18.1004   73.9120   -9.0182 O.2     1  UNL1       -0.2464
     22 O          19.6146   70.2929  -11.0956 O.2     1  UNL1       -0.2670
     23 H          18.8922   72.6340  -10.9368 H       1  UNL1        0.1734
     24 O          21.0647   69.5135   -2.4258 O.3     1  UNL1       -0.2703
     25 P          21.8988   70.8749   -2.6279 P.3     1  UNL1        0.2208
     26 O          23.3395   70.5581   -2.7422 O.2     1  UNL1       -0.5170
     27 O          21.4039   71.6128   -3.9713 O.3     1  UNL1       -0.4371
     28 O          21.6599   71.8443   -1.3656 O.3     1  UNL1       -0.2858
     29 C          22.7823   71.6798   -0.4979 C.3     1  UNL1        0.2704
     30 C          22.3078   71.1374    0.8511 C.3     1  UNL1        0.1967
     31 C          21.2965   72.1170    1.4546 C.3     1  UNL1        0.1715
     32 C          21.9316   73.5114    1.4992 C.3     1  UNL1        0.1694
     33 C          22.4332   73.8748    0.0994 C.3     1  UNL1        0.1761
     34 O          21.6890   69.8633    0.6638 O.3     1  UNL1       -0.3775
     35 O          20.9550   71.6998    2.7782 O.3     1  UNL1       -0.3794
     36 O          23.0249   73.5093    2.4182 O.3     1  UNL1       -0.3794
     37 O          23.4270   72.9381   -0.3140 O.3     1  UNL1       -0.3258
     38 H          22.3581   69.2825    0.2766 H       1  UNL1        0.2106
     39 H          20.5717   70.8168    2.7031 H       1  UNL1        0.2105
     40 H          22.6640   73.2704    3.2819 H       1  UNL1        0.2105
     41 C          23.0387   75.2800    0.1254 C.3     1  UNL1        0.1693
     42 O          24.4312   75.1922    0.4322 O.3     1  UNL1       -0.3794
     43 H          24.7741   76.0965    0.4381 H       1  UNL1        0.2105
@<TRIPOS>BOND
     1    15    16   ar
     2    15    20   ar
     3    15     6    1
     4    16    17   ar
     5    16    21    2
     6    17    18   ar
     7    17    23    1
     8    18    19   ar
     9    18    22    2
    10    19    20   ar
    11     6     7    1
    12     6    11    1
    13     7     8    1
    14     7     9    1
    15     8    13    1
    16     9    10    1
    17     9    12    1
    18    10    11    1
    19    10     5    1
    20    12    14    1
    21     5     4    1
    22     4     1    1
    23     1     2    2
    24     1     3    1
    25     1    24    1
    26    24    25    1
    27    25    26    2
    28    25    27    1
    29    25    28    1
    30    28    29    1
    31    29    30    1
    32    29    37    1
    33    30    31    1
    34    30    34    1
    35    31    32    1
    36    31    35    1
    37    32    33    1
    38    32    36    1
    39    33    41    1
    40    33    37    1
    41    41    42    1
    42    34    38    1
    43    35    39    1
    44    36    40    1
    45    42    43    1
@<TRIPOS>MOLECULE
GDU
 43 45 0 0 0
SMALL
GASTEIGER

@<TRIPOS>ATOM
      1 P          22.8068   72.0800   -3.4350 P.3     1  UNL1        0.2189
      2 O          23.2628   70.6847   -3.2484 O.2     1  UNL1       -0.5170
      3 O          22.3351   72.6843   -2.0189 O.3     1  UNL1       -0.4371
      4 O          24.0146   72.9659   -4.0209 O.3     1  UNL1       -0.3112
      5 C          23.6648   74.3345   -3.8085 C.3     1  UNL1        0.1811
      6 C          27.0639   75.5064   -3.7868 C.3     1  UNL1        0.2383
      7 C          26.2584   76.6608   -4.4361 C.3     1  UNL1        0.1895
      8 O          26.8603   77.9256   -4.1512 O.3     1  UNL1       -0.3779
      9 C          24.8821   76.5323   -3.7329 C.3     1  UNL1        0.1713
     10 C          24.8603   75.0821   -3.2152 C.3     1  UNL1        0.1764
     11 O          26.0851   74.4563   -3.6353 O.3     1  UNL1       -0.3308
     12 O          24.7863   77.4589   -2.6493 O.3     1  UNL1       -0.3794
     13 H          26.3137   78.5978   -4.5817 H       1  UNL1        0.2106
     14 H          24.8655   78.3441   -3.0299 H       1  UNL1        0.2105
     15 N          28.1513   75.0748   -4.6666 N.ar    1  UNL1       -0.2551
     16 C          29.2546   74.5162   -4.1383 C.ar    1  UNL1        0.3323
     17 N          30.2674   74.1076   -4.9253 N.ar    1  UNL1       -0.2743
     18 C          30.1951   74.2618   -6.2614 C.ar    1  UNL1        0.2626
     19 C          29.0415   74.8538   -6.8314 C.ar    1  UNL1        0.0795
     20 C          28.0386   75.2508   -6.0195 C.ar    1  UNL1        0.0869
     21 O          29.3340   74.3702   -2.9348 O.2     1  UNL1       -0.2464
     22 O          31.1133   73.8967   -6.9742 O.2     1  UNL1       -0.2670
     23 H          31.0544   73.7027   -4.5274 H       1  UNL1        0.1734
     24 O          21.5708   72.1063   -4.4665 O.3     1  UNL1       -0.2703
     25 P          20.4251   71.1616   -3.8461 P.3     1  UNL1        0.2208
     26 O          21.0535   70.0231   -3.1403 O.2     1  UNL1       -0.5170
     27 O          19.5341   72.0106   -2.8071 O.3     1  UNL1       -0.4371
     28 O          19.4854   70.6080   -5.0295 O.3     1  UNL1       -0.2858
     29 C          18.5994   71.6696   -5.3869 C.3     1  UNL1        0.2704
     30 C          17.1853   71.1146   -5.5649 C.3     1  UNL1        0.1967
     31 C          17.2059   70.0375   -6.6539 C.3     1  UNL1        0.1715
     32 C          17.8376   70.6308   -7.9182 C.3     1  UNL1        0.1694
     33 C          19.2042   71.2212   -7.5617 C.3     1  UNL1        0.1761
     34 O          16.7365   70.5445   -4.3341 O.3     1  UNL1       -0.3775
     35 O          15.8703   69.6136   -6.9351 O.3     1  UNL1       -0.3794
     36 O          16.9904   71.6555   -8.4399 O.3     1  UNL1       -0.3794
     37 O          19.0420   72.2662   -6.6038 O.3     1  UNL1       -0.3258
     38 H          16.7464   71.2545   -3.6778 H       1  UNL1        0.2106
     39 H          15.5098   69.2600   -6.1122 H       1  UNL1        0.2105
     40 H          16.1423   71.2405   -8.6441 H       1  UNL1        0.2105
     41 C          19.8588   71.7861   -8.8244 C.3     1  UNL1        0.1693
     42 O          19.4135   73.1276   -9.0314 O.3     1  UNL1       -0.3794
     43 H          19.8486   73.4463   -9.8342 H       1  UNL1        0.2105
@<TRIPOS>BOND
     1    15    16   ar
     2    15    20   ar
     3    15     6    1
     4    16    17   ar
     5    16    21    2
     6    17    18   ar
     7    17    23    1
     8    18    19   ar
     9    18    22    2
    10    19    20   ar
    11     6     7    1
    12     6    11    1
    13     7     8    1
    14     7     9    1
    15     8    13    1
    16     9    10    1
    17     9    12    1
    18    10    11    1
    19    10     5    1
    20    12    14    1
    21     5     4    1
    22     4     1    1
    23     1     2    2
    24     1     3    1
    25     1    24    1
    26    24    25    1
    27    25    26    2
    28    25    27    1
    29    25    28    1
    30    28    29    1
    31    29    30    1
    32    29    37    1
    33    30    31    1
    34    30    34    1
    35    31    32    1
    36    31    35    1
    37    32    33    1
    38    32    36    1
    39    33    41    1
    40    33    37    1
    41    41    42    1
    42    34    38    1
    43    35    39    1
    44    36    40    1
    45    42    43    1
@<TRIPOS>MOLECULE
GDU
 43 45 0 0 0
SMALL
GASTEIGER

@<TRIPOS>ATOM
      1 P          21.8663   74.1948   -5.3731 P.3     1  UNL1        0.2189
      2 O          23.0675   74.2973   -6.2311 O.2     1  UNL1       -0.5170
      3 O          20.7494   75.2347   -5.8872 O.3     1  UNL1       -0.4371
      4 O          21.2805   72.6987   -5.4457 O.3     1  UNL1       -0.3112
      5 C          20.2814   72.6946   -6.4666 C.3     1  UNL1        0.1811
      6 C          16.6873   72.6887   -6.3658 C.3     1  UNL1        0.2383
      7 C          17.0596   71.3498   -7.0528 C.3     1  UNL1        0.1895
      8 O          16.0859   70.3427   -6.7683 O.3     1  UNL1       -0.3779
      9 C          18.4181   71.0096   -6.3866 C.3     1  UNL1        0.1713
     10 C          18.9212   72.3626   -5.8503 C.3     1  UNL1        0.1764
     11 O          17.9572   73.3608   -6.2276 O.3     1  UNL1       -0.3308
     12 O          18.2316   70.0786   -5.3187 O.3     1  UNL1       -0.3794
     13 H          16.3748   69.5392   -7.2228 H       1  UNL1        0.2106
     14 H          17.8607   69.2755   -5.7088 H       1  UNL1        0.2105
     15 N          15.7799   73.4687   -7.2090 N.ar    1  UNL1       -0.2551
     16 C          14.7199   74.0845   -6.6564 C.ar    1  UNL1        0.3323
     17 N          13.8723   74.8108   -7.4087 N.ar    1  UNL1       -0.2743
     18 C          14.0684   74.9245   -8.7364 C.ar    1  UNL1        0.2626
     19 C          15.1775   74.2765   -9.3332 C.ar    1  UNL1        0.0795
     20 C          16.0144   73.5580   -8.5548 C.ar    1  UNL1        0.0869
     21 O          14.5304   73.9914   -5.4599 O.2     1  UNL1       -0.2464
     22 O          13.2990   75.5777   -9.4189 O.2     1  UNL1       -0.2670
     23 H          13.1148   75.2520   -6.9924 H       1  UNL1        0.1734
     24 O          22.2630   74.5440   -3.8522 O.3     1  UNL1       -0.2703
     25 P          23.4126   73.5042   -3.4194 P.3     1  UNL1        0.2208
     26 O          23.2137   72.2238   -4.1336 O.2     1  UNL1       -0.5170
     27 O          24.8554   74.1112   -3.7987 O.3     1  UNL1       -0.4371
     28 O          23.3388   73.2513   -1.8317 O.3     1  UNL1       -0.2858
     29 C          21.9761   72.9577   -1.5212 C.3     1  UNL1        0.2704
     30 C          21.4732   73.9375   -0.4598 C.3     1  UNL1        0.1967
     31 C          22.3514   73.8136    0.7891 C.3     1  UNL1        0.1715
     32 C          22.3835   72.3434    1.2217 C.3     1  UNL1        0.1694
     33 C          22.8196   71.4841    0.0324 C.3     1  UNL1        0.1761
     34 O          21.5454   75.2712   -0.9671 O.3     1  UNL1       -0.3775
     35 O          21.8067   74.6140    1.8404 O.3     1  UNL1       -0.3794
     36 O          21.0822   71.9440    1.6542 O.3     1  UNL1       -0.3794
     37 O          21.8791   71.6221   -1.0318 O.3     1  UNL1       -0.3258
     38 H          20.9851   75.3008   -1.7545 H       1  UNL1        0.2106
     39 H          21.7945   75.5251    1.5209 H       1  UNL1        0.2105
     40 H          20.8473   72.5139    2.3980 H       1  UNL1        0.2105
     41 C          22.8881   70.0172    0.4631 C.3     1  UNL1        0.1693
     42 O          21.5702   69.4663    0.4862 O.3     1  UNL1       -0.3794
     43 H          21.6574   68.5432    0.7610 H       1  UNL1        0.2105
@<TRIPOS>BOND
     1    15    16   ar
     2    15    20   ar
     3    15     6    1
     4    16    17   ar
     5    16    21    2
     6    17    18   ar
     7    17    23    1
     8    18    19   ar
     9    18    22    2
    10    19    20   ar
    11     6     7    1
    12     6    11    1
    13     7     8    1
    14     7     9    1
    15     8    13    1
    16     9    10    1
    17     9    12    1
    18    10    11    1
    19    10     5    1
    20    12    14    1
    21     5     4    1
    22     4     1    1
    23     1     2    2
    24     1     3    1
    25     1    24    1
    26    24    25    1
    27    25    26    2
    28    25    27    1
    29    25    28    1
    30    28    29    1
    31    29    30    1
    32    29    37    1
    33    30    31    1
    34    30    34    1
    35    31    32    1
    36    31    35    1
    37    32    33    1
    38    32    36    1
    39    33    41    1
    40    33    37    1
    41    41    42    1
    42    34    38    1
    43    35    39    1
    44    36    40    1
    45    42    43    1
@<TRIPOS>MOLECULE
GDU
 43 45 0 0 0
SMALL
GASTEIGER

@<TRIPOS>ATOM
      1 P          22.6394   73.8988   -4.7989 P.3     1  UNL1        0.2189
      2 O          23.5383   72.7365   -4.6240 O.2     1  UNL1       -0.5170
      3 O          23.3350   74.9728   -5.7764 O.3     1  UNL1       -0.4371
      4 O          21.2484   73.4101   -5.4417 O.3     1  UNL1       -0.3112
      5 C          21.5645   72.7889   -6.6886 C.3     1  UNL1        0.1811
      6 C          18.2765   72.0596   -7.9473 C.3     1  UNL1        0.2383
      7 C          19.1913   72.0122   -9.1979 C.3     1  UNL1        0.1895
      8 O          18.6914   71.0810  -10.1604 O.3     1  UNL1       -0.3779
      9 C          20.5349   71.5210   -8.5992 C.3     1  UNL1        0.1713
     10 C          20.4225   71.8583   -7.1008 C.3     1  UNL1        0.1764
     11 O          19.1596   72.5167   -6.9011 O.3     1  UNL1       -0.3308
     12 O          20.6828   70.1129   -8.7921 O.3     1  UNL1       -0.3794
     13 H          19.3025   71.0997  -10.9100 H       1  UNL1        0.2106
     14 H          20.6873   69.9599   -9.7468 H       1  UNL1        0.2105
     15 N          17.1776   73.0062   -8.1450 N.ar    1  UNL1       -0.2551
     16 C          16.0283   72.8451   -7.4657 C.ar    1  UNL1        0.3323
     17 N          15.0039   73.7034   -7.6265 N.ar    1  UNL1       -0.2743
     18 C          15.1112   74.7375   -8.4828 C.ar    1  UNL1        0.2626
     19 C          16.3138   74.9163   -9.2094 C.ar    1  UNL1        0.0795
     20 C          17.3271   74.0433   -9.0260 C.ar    1  UNL1        0.0869
     21 O          15.9170   71.9173   -6.6893 O.2     1  UNL1       -0.2464
     22 O          14.1827   75.5121   -8.6326 O.2     1  UNL1       -0.2670
     23 H          14.1832   73.5744   -7.1248 H       1  UNL1        0.1734
     24 O          22.3602   74.5803   -3.3671 O.3     1  UNL1       -0.2703
     25 P          21.4311   73.5607   -2.5382 P.3     1  UNL1        0.2208
     26 O          20.0160   73.9760   -2.6563 O.2     1  UNL1       -0.5170
     27 O          21.6048   72.0734   -3.1316 O.3     1  UNL1       -0.4371
     28 O          21.8676   73.5734   -0.9892 O.3     1  UNL1       -0.2858
     29 C          20.7385   73.1286   -0.2362 C.3     1  UNL1        0.2704
     30 C          20.6253   73.9534    1.0469 C.3     1  UNL1        0.1967
     31 C          21.9142   73.7922    1.8586 C.3     1  UNL1        0.1715
     32 C          22.1791   72.2967    2.0658 C.3     1  UNL1        0.1694
     33 C          22.1765   71.5975    0.7042 C.3     1  UNL1        0.1761
     34 O          20.4354   75.3301    0.7156 O.3     1  UNL1       -0.3775
     35 O          21.7672   74.4363    3.1259 O.3     1  UNL1       -0.3794
     36 O          21.1581   71.7411    2.8956 O.3     1  UNL1       -0.3794
     37 O          20.8988   71.7494    0.0874 O.3     1  UNL1       -0.3258
     38 H          19.6189   75.3831    0.2004 H       1  UNL1        0.2106
     39 H          21.5908   75.3686    2.9472 H       1  UNL1        0.2105
     40 H          21.1931   72.2141    3.7372 H       1  UNL1        0.2105
     41 C          22.4743   70.1087    0.8967 C.3     1  UNL1        0.1693
     42 O          23.6069   69.7442    0.1060 O.3     1  UNL1       -0.3794
     43 H          23.7613   68.8014    0.2560 H       1  UNL1        0.2105
@<TRIPOS>BOND
     1    15    16   ar
     2    15    20   ar
     3    15     6    1
     4    16    17   ar
     5    16    21    2
     6    17    18   ar
     7    17    23    1
     8    18    19   ar
     9    18    22    2
    10    19    20   ar
    11     6     7    1
    12     6    11    1
    13     7     8    1
    14     7     9    1
    15     8    13    1
    16     9    10    1
    17     9    12    1
    18    10    11    1
    19    10     5    1
    20    12    14    1
    21     5     4    1
    22     4     1    1
    23     1     2    2
    24     1     3    1
    25     1    24    1
    26    24    25    1
    27    25    26    2
    28    25    27    1
    29    25    28    1
    30    28    29    1
    31    29    30    1
    32    29    37    1
    33    30    31    1
    34    30    34    1
    35    31    32    1
    36    31    35    1
    37    32    33    1
    38    32    36    1
    39    33    41    1
    40    33    37    1
    41    41    42    1
    42    34    38    1
    43    35    39    1
    44    36    40    1
    45    42    43    1
@<TRIPOS>MOLECULE
GDU
 43 45 0 0 0
SMALL
GASTEIGER

@<TRIPOS>ATOM
      1 P          22.9053   72.9517   -3.5927 P.3     1  UNL1        0.2189
      2 O          23.7838   73.8312   -4.3955 O.2     1  UNL1       -0.5170
      3 O          23.4840   71.4492   -3.6166 O.3     1  UNL1       -0.4371
      4 O          22.8549   73.4833   -2.0756 O.3     1  UNL1       -0.3112
      5 C          22.2026   74.7539   -2.1038 C.3     1  UNL1        0.1811
      6 C          23.4153   75.6309    1.1654 C.3     1  UNL1        0.2383
      7 C          24.6523   75.0486    0.4348 C.3     1  UNL1        0.1895
      8 O          25.8563   75.6583    0.9057 O.3     1  UNL1       -0.3779
      9 C          24.3734   75.4411   -1.0395 C.3     1  UNL1        0.1713
     10 C          22.8536   75.6861   -1.0805 C.3     1  UNL1        0.1764
     11 O          22.3368   75.4075    0.2323 O.3     1  UNL1       -0.3308
     12 O          25.0880   76.6297   -1.3837 O.3     1  UNL1       -0.3794
     13 H          26.5846   75.2537    0.4139 H       1  UNL1        0.2106
     14 H          26.0286   76.4305   -1.2819 H       1  UNL1        0.2105
     15 N          23.1695   74.9154    2.4186 N.ar    1  UNL1       -0.2551
     16 C          22.8127   73.6193    2.3876 C.ar    1  UNL1        0.3323
     17 N          22.5844   72.9375    3.5255 N.ar    1  UNL1       -0.2743
     18 C          22.7010   73.5492    4.7198 C.ar    1  UNL1        0.2626
     19 C          23.0706   74.9158    4.7676 C.ar    1  UNL1        0.0795
     20 C          23.2978   75.5747    3.6115 C.ar    1  UNL1        0.0869
     21 O          22.7039   73.0538    1.3177 O.2     1  UNL1       -0.2464
     22 O          22.4899   72.9342    5.7502 O.2     1  UNL1       -0.2670
     23 H          22.3318   72.0014    3.4846 H       1  UNL1        0.1734
     24 O          21.4210   72.9636   -4.2166 O.3     1  UNL1       -0.2703
     25 P          21.5612   73.4470   -5.7452 P.3     1  UNL1        0.2208
     26 O          21.7775   74.9102   -5.7817 O.2     1  UNL1       -0.5170
     27 O          22.8143   72.7025   -6.4305 O.3     1  UNL1       -0.4371
     28 O          20.2162   73.0821   -6.5500 O.3     1  UNL1       -0.2858
     29 C          20.4171   71.7930   -7.1311 C.3     1  UNL1        0.2704
     30 C          20.2655   71.8900   -8.6500 C.3     1  UNL1        0.1967
     31 C          18.8661   72.4192   -8.9786 C.3     1  UNL1        0.1715
     32 C          17.8302   71.5354   -8.2748 C.3     1  UNL1        0.1694
     33 C          18.1656   71.4670   -6.7829 C.3     1  UNL1        0.1761
     34 O          21.2513   72.7818   -9.1734 O.3     1  UNL1       -0.3775
     35 O          18.6564   72.3767  -10.3917 O.3     1  UNL1       -0.3794
     36 O          17.8610   70.2228   -8.8371 O.3     1  UNL1       -0.3794
     37 O          19.4548   70.8816   -6.6058 O.3     1  UNL1       -0.3258
     38 H          22.1138   72.4140   -8.9374 H       1  UNL1        0.2106
     39 H          19.3350   72.9347  -10.7923 H       1  UNL1        0.2105
     40 H          17.6503   70.3153   -9.7754 H       1  UNL1        0.2105
     41 C          17.1171   70.6144   -6.0648 C.3     1  UNL1        0.1693
     42 O          17.2131   70.8298   -4.6557 O.3     1  UNL1       -0.3794
     43 H          16.5369   70.2765   -4.2413 H       1  UNL1        0.2105
@<TRIPOS>BOND
     1    15    16   ar
     2    15    20   ar
     3    15     6    1
     4    16    17   ar
     5    16    21    2
     6    17    18   ar
     7    17    23    1
     8    18    19   ar
     9    18    22    2
    10    19    20   ar
    11     6     7    1
    12     6    11    1
    13     7     8    1
    14     7     9    1
    15     8    13    1
    16     9    10    1
    17     9    12    1
    18    10    11    1
    19    10     5    1
    20    12    14    1
    21     5     4    1
    22     4     1    1
    23     1     2    2
    24     1     3    1
    25     1    24    1
    26    24    25    1
    27    25    26    2
    28    25    27    1
    29    25    28    1
    30    28    29    1
    31    29    30    1
    32    29    37    1
    33    30    31    1
    34    30    34    1
    35    31    32    1
    36    31    35    1
    37    32    33    1
    38    32    36    1
    39    33    41    1
    40    33    37    1
    41    41    42    1
    42    34    38    1
    43    35    39    1
    44    36    40    1
    45    42    43    1
@<TRIPOS>MOLECULE
GDU
 43 45 0 0 0
SMALL
GASTEIGER

@<TRIPOS>ATOM
      1 P          19.8229   70.1051   -2.4809 P.3     1  UNL1        0.2189
      2 O          18.5189   69.4068   -2.5221 O.2     1  UNL1       -0.5170
      3 O          20.9807   69.1104   -2.9936 O.3     1  UNL1       -0.4371
      4 O          19.7685   71.4009   -3.4321 O.3     1  UNL1       -0.3112
      5 C          18.5428   72.0752   -3.1432 C.3     1  UNL1        0.1811
      6 C          18.0809   72.9806   -6.5920 C.3     1  UNL1        0.2383
      7 C          16.6687   72.5649   -6.1063 C.3     1  UNL1        0.1895
      8 O          15.6549   73.2915   -6.8045 O.3     1  UNL1       -0.3779
      9 C          16.7077   72.9694   -4.6096 C.3     1  UNL1        0.1713
     10 C          18.2104   73.0425   -4.2807 C.3     1  UNL1        0.1764
     11 O          18.9299   72.6662   -5.4677 O.3     1  UNL1       -0.3308
     12 O          16.0847   74.2413   -4.4194 O.3     1  UNL1       -0.3794
     13 H          14.8047   72.9873   -6.4575 H       1  UNL1        0.2106
     14 H          15.1637   74.1464   -4.6975 H       1  UNL1        0.2105
     15 N          18.4738   72.2030   -7.7683 N.ar    1  UNL1       -0.2551
     16 C          18.9381   72.8349   -8.8607 C.ar    1  UNL1        0.3323
     17 N          19.3095   72.1433   -9.9542 N.ar    1  UNL1       -0.2743
     18 C          19.2117   70.8001   -9.9748 C.ar    1  UNL1        0.2626
     19 C          18.7189   70.1214   -8.8335 C.ar    1  UNL1        0.0795
     20 C          18.3575   70.8391   -7.7487 C.ar    1  UNL1        0.0869
     21 O          19.0324   74.0462   -8.8568 O.2     1  UNL1       -0.2464
     22 O          19.5431   70.1735  -10.9659 O.2     1  UNL1       -0.2670
     23 H          19.6465   72.6154  -10.7322 H       1  UNL1        0.1734
     24 O          20.1391   70.5604   -0.9692 O.3     1  UNL1       -0.2703
     25 P          21.7370   70.4990   -0.7879 P.3     1  UNL1        0.2208
     26 O          22.1103   69.2262   -0.1323 O.2     1  UNL1       -0.5170
     27 O          22.4444   70.5856   -2.2323 O.3     1  UNL1       -0.4371
     28 O          22.2230   71.7348    0.1212 O.3     1  UNL1       -0.2858
     29 C          21.4677   72.8749   -0.2903 C.3     1  UNL1        0.2704
     30 C          22.4216   73.9801   -0.7463 C.3     1  UNL1        0.1967
     31 C          23.3572   74.3405    0.4118 C.3     1  UNL1        0.1715
     32 C          22.5069   74.6790    1.6415 C.3     1  UNL1        0.1694
     33 C          21.5472   73.5189    1.9178 C.3     1  UNL1        0.1761
     34 O          23.1903   73.5199   -1.8591 O.3     1  UNL1       -0.3775
     35 O          24.1549   75.4700    0.0510 O.3     1  UNL1       -0.3794
     36 O          21.7627   75.8726    1.3940 O.3     1  UNL1       -0.3794
     37 O          20.6768   73.3382    0.8017 O.3     1  UNL1       -0.3258
     38 H          22.5618   73.2983   -2.5598 H       1  UNL1        0.2106
     39 H          24.6616   75.2165   -0.7308 H       1  UNL1        0.2105
     40 H          22.4056   76.5723    1.2199 H       1  UNL1        0.2105
     41 C          20.7170   73.8320    3.1646 C.3     1  UNL1        0.1693
     42 O          20.4273   72.6182    3.8601 O.3     1  UNL1       -0.3794
     43 H          19.9048   72.8589    4.6375 H       1  UNL1        0.2105
@<TRIPOS>BOND
     1    15    16   ar
     2    15    20   ar
     3    15     6    1
     4    16    17   ar
     5    16    21    2
     6    17    18   ar
     7    17    23    1
     8    18    19   ar
     9    18    22    2
    10    19    20   ar
    11     6     7    1
    12     6    11    1
    13     7     8    1
    14     7     9    1
    15     8    13    1
    16     9    10    1
    17     9    12    1
    18    10    11    1
    19    10     5    1
    20    12    14    1
    21     5     4    1
    22     4     1    1
    23     1     2    2
    24     1     3    1
    25     1    24    1
    26    24    25    1
    27    25    26    2
    28    25    27    1
    29    25    28    1
    30    28    29    1
    31    29    30    1
    32    29    37    1
    33    30    31    1
    34    30    34    1
    35    31    32    1
    36    31    35    1
    37    32    33    1
    38    32    36    1
    39    33    41    1
    40    33    37    1
    41    41    42    1
    42    34    38    1
    43    35    39    1
    44    36    40    1
    45    42    43    1
@<TRIPOS>MOLECULE
GDU
 43 45 0 0 0
SMALL
GASTEIGER

@<TRIPOS>ATOM
      1 P          18.2932   70.0124   -3.4064 P.3     1  UNL1        0.2189
      2 O          18.7909   69.1035   -2.3502 O.2     1  UNL1       -0.5170
      3 O          17.0330   70.8449   -2.8479 O.3     1  UNL1       -0.4371
      4 O          19.4625   71.0309   -3.8333 O.3     1  UNL1       -0.3112
      5 C          19.6229   71.9527   -2.7539 C.3     1  UNL1        0.1811
      6 C          22.4853   72.3740   -0.6194 C.3     1  UNL1        0.2383
      7 C          22.4177   70.8480   -0.8829 C.3     1  UNL1        0.1895
      8 O          23.7245   70.2691   -0.8653 O.3     1  UNL1       -0.3779
      9 C          21.8065   70.7909   -2.3071 C.3     1  UNL1        0.1713
     10 C          21.1125   72.1558   -2.4715 C.3     1  UNL1        0.1764
     11 O          21.2821   72.8765   -1.2386 O.3     1  UNL1       -0.3308
     12 O          22.8345   70.6238   -3.2855 O.3     1  UNL1       -0.3794
     13 H          23.6128   69.3232   -1.0345 H       1  UNL1        0.2106
     14 H          23.2692   69.7817   -3.0940 H       1  UNL1        0.2105
     15 N          22.4807   72.6523    0.8178 N.ar    1  UNL1       -0.2551
     16 C          21.9580   71.7524    1.6695 C.ar    1  UNL1        0.3323
     17 N          21.9445   71.9822    2.9957 N.ar    1  UNL1       -0.2743
     18 C          22.4485   73.1283    3.4924 C.ar    1  UNL1        0.2626
     19 C          22.9971   74.0878    2.6066 C.ar    1  UNL1        0.0795
     20 C          23.0017   73.8302    1.2815 C.ar    1  UNL1        0.0869
     21 O          21.5002   70.7138    1.2363 O.2     1  UNL1       -0.2464
     22 O          22.4324   73.3393    4.6923 O.2     1  UNL1       -0.2670
     23 H          21.5672   71.3198    3.5963 H       1  UNL1        0.1734
     24 O          17.8387   69.1480   -4.6865 O.3     1  UNL1       -0.2703
     25 P          17.1954   70.1793   -5.7413 P.3     1  UNL1        0.2208
     26 O          16.2192   69.4667   -6.5948 O.2     1  UNL1       -0.5170
     27 O          16.4480   71.3637   -4.9459 O.3     1  UNL1       -0.4371
     28 O          18.3590   70.8034   -6.6614 O.3     1  UNL1       -0.2858
     29 C          17.9943   70.5517   -8.0191 C.3     1  UNL1        0.2704
     30 C          19.2363   70.6500   -8.9064 C.3     1  UNL1        0.1967
     31 C          19.8443   72.0483   -8.7600 C.3     1  UNL1        0.1715
     32 C          18.7551   73.0886   -9.0448 C.3     1  UNL1        0.1694
     33 C          17.5495   72.8062   -8.1448 C.3     1  UNL1        0.1761
     34 O          20.1912   69.6666   -8.5038 O.3     1  UNL1       -0.3775
     35 O          20.9169   72.2054   -9.6912 O.3     1  UNL1       -0.3794
     36 O          18.3634   73.0071  -10.4159 O.3     1  UNL1       -0.3794
     37 O          17.0252   71.5113   -8.4348 O.3     1  UNL1       -0.3258
     38 H          19.7643   68.8051   -8.6053 H       1  UNL1        0.2106
     39 H          21.5703   71.5257   -9.4828 H       1  UNL1        0.2105
     40 H          19.1527   73.1855  -10.9436 H       1  UNL1        0.2105
     41 C          16.4691   73.8603   -8.3969 C.3     1  UNL1        0.1693
     42 O          15.2597   73.2148   -8.7992 O.3     1  UNL1       -0.3794
     43 H          14.6061   73.9120   -8.9470 H       1  UNL1        0.2105
@<TRIPOS>BOND
     1    15    16   ar
     2    15    20   ar
     3    15     6    1
     4    16    17   ar
     5    16    21    2
     6    17    18   ar
     7    17    23    1
     8    18    19   ar
     9    18    22    2
    10    19    20   ar
    11     6     7    1
    12     6    11    1
    13     7     8    1
    14     7     9    1
    15     8    13    1
    16     9    10    1
    17     9    12    1
    18    10    11    1
    19    10     5    1
    20    12    14    1
    21     5     4    1
    22     4     1    1
    23     1     2    2
    24     1     3    1
    25     1    24    1
    26    24    25    1
    27    25    26    2
    28    25    27    1
    29    25    28    1
    30    28    29    1
    31    29    30    1
    32    29    37    1
    33    30    31    1
    34    30    34    1
    35    31    32    1
    36    31    35    1
    37    32    33    1
    38    32    36    1
    39    33    41    1
    40    33    37    1
    41    41    42    1
    42    34    38    1
    43    35    39    1
    44    36    40    1
    45    42    43    1
@<TRIPOS>MOLECULE
GDU
 43 45 0 0 0
SMALL
GASTEIGER

@<TRIPOS>ATOM
      1 P          19.2631   74.9321   -1.2526 P.3     1  UNL1        0.2189
      2 O          18.0901   75.4452   -1.9946 O.2     1  UNL1       -0.5170
      3 O          19.0923   75.2605    0.3145 O.3     1  UNL1       -0.4371
      4 O          19.3748   73.3409   -1.4584 O.3     1  UNL1       -0.3112
      5 C          19.5863   73.1179   -2.8534 C.3     1  UNL1        0.1811
      6 C          17.6445   71.5466   -5.4395 C.3     1  UNL1        0.2383
      7 C          17.9473   70.4069   -4.4333 C.3     1  UNL1        0.1895
      8 O          16.8917   69.4431   -4.4217 O.3     1  UNL1       -0.3779
      9 C          18.0125   71.1719   -3.0858 C.3     1  UNL1        0.1713
     10 C          18.2866   72.6306   -3.4965 C.3     1  UNL1        0.1764
     11 O          18.4100   72.6588   -4.9291 O.3     1  UNL1       -0.3308
     12 O          16.7686   71.0662   -2.3906 O.3     1  UNL1       -0.3794
     13 H          17.1408   68.7644   -3.7790 H       1  UNL1        0.2106
     14 H          16.6253   70.1265   -2.2141 H       1  UNL1        0.2105
     15 N          18.0954   71.1838   -6.7841 N.ar    1  UNL1       -0.2551
     16 C          17.2210   70.6626   -7.6627 C.ar    1  UNL1        0.3323
     17 N          17.6090   70.3239   -8.9063 N.ar    1  UNL1       -0.2743
     18 C          18.8892   70.4937   -9.2891 C.ar    1  UNL1        0.2626
     19 C          19.8227   71.0363   -8.3723 C.ar    1  UNL1        0.0795
     20 C          19.4059   71.3714   -7.1327 C.ar    1  UNL1        0.0869
     21 O          16.0627   70.5041   -7.3320 O.2     1  UNL1       -0.2464
     22 O          19.2425   70.1830  -10.4130 O.2     1  UNL1       -0.2670
     23 H          16.9635   69.9530   -9.5288 H       1  UNL1        0.1734
     24 O          20.5987   75.6412   -1.8056 O.3     1  UNL1       -0.2703
     25 P          21.7463   75.3984   -0.7038 P.3     1  UNL1        0.2208
     26 O          23.0673   75.3560   -1.3688 O.2     1  UNL1       -0.5170
     27 O          21.7240   76.6006    0.3679 O.3     1  UNL1       -0.4371
     28 O          21.4797   74.0027    0.0518 O.3     1  UNL1       -0.2858
     29 C          22.7493   73.3685    0.2121 C.3     1  UNL1        0.2704
     30 C          22.6256   71.8852   -0.1401 C.3     1  UNL1        0.1967
     31 C          21.5798   71.2410    0.7751 C.3     1  UNL1        0.1715
     32 C          21.9547   71.5364    2.2317 C.3     1  UNL1        0.1694
     33 C          22.1274   73.0475    2.4046 C.3     1  UNL1        0.1761
     34 O          22.2198   71.7492   -1.5032 O.3     1  UNL1       -0.3775
     35 O          21.5581   69.8283    0.5594 O.3     1  UNL1       -0.3794
     36 O          23.1764   70.8709    2.5550 O.3     1  UNL1       -0.3794
     37 O          23.1824   73.5107    1.5630 O.3     1  UNL1       -0.3258
     38 H          22.9019   72.1739   -2.0411 H       1  UNL1        0.2106
     39 H          21.3306   69.6904   -0.3688 H       1  UNL1        0.2105
     40 H          23.0227   69.9258    2.4267 H       1  UNL1        0.2105
     41 C          22.4685   73.3564    3.8641 C.3     1  UNL1        0.1693
     42 O          21.9017   72.3523    4.7076 O.3     1  UNL1       -0.3794
     43 H          22.1396   72.5831    5.6162 H       1  UNL1        0.2105
@<TRIPOS>BOND
     1    15    16   ar
     2    15    20   ar
     3    15     6    1
     4    16    17   ar
     5    16    21    2
     6    17    18   ar
     7    17    23    1
     8    18    19   ar
     9    18    22    2
    10    19    20   ar
    11     6     7    1
    12     6    11    1
    13     7     8    1
    14     7     9    1
    15     8    13    1
    16     9    10    1
    17     9    12    1
    18    10    11    1
    19    10     5    1
    20    12    14    1
    21     5     4    1
    22     4     1    1
    23     1     2    2
    24     1     3    1
    25     1    24    1
    26    24    25    1
    27    25    26    2
    28    25    27    1
    29    25    28    1
    30    28    29    1
    31    29    30    1
    32    29    37    1
    33    30    31    1
    34    30    34    1
    35    31    32    1
    36    31    35    1
    37    32    33    1
    38    32    36    1
    39    33    41    1
    40    33    37    1
    41    41    42    1
    42    34    38    1
    43    35    39    1
    44    36    40    1
    45    42    43    1
@<TRIPOS>MOLECULE
GDU
 43 45 0 0 0
SMALL
GASTEIGER

@<TRIPOS>ATOM
      1 P          18.4152   70.0354   -3.2427 P.3     1  UNL1        0.2189
      2 O          18.9363   69.1640   -2.1662 O.2     1  UNL1       -0.5170
      3 O          17.2503   70.9780   -2.6533 O.3     1  UNL1       -0.4371
      4 O          19.6068   70.9503   -3.8171 O.3     1  UNL1       -0.3112
      5 C          19.7614   72.0445   -2.9119 C.3     1  UNL1        0.1811
      6 C          22.5158   72.3756   -0.6248 C.3     1  UNL1        0.2383
      7 C          22.4187   70.8530   -0.8992 C.3     1  UNL1        0.1895
      8 O          23.7056   70.2365   -0.8144 O.3     1  UNL1       -0.3779
      9 C          21.8837   70.8186   -2.3544 C.3     1  UNL1        0.1713
     10 C          21.2390   72.2035   -2.5490 C.3     1  UNL1        0.1764
     11 O          21.3626   72.9147   -1.3052 O.3     1  UNL1       -0.3308
     12 O          22.9575   70.6251   -3.2771 O.3     1  UNL1       -0.3794
     13 H          23.5760   69.2948   -0.9941 H       1  UNL1        0.2106
     14 H          23.3570   69.7702   -3.0667 H       1  UNL1        0.2105
     15 N          22.4419   72.6488    0.8114 N.ar    1  UNL1       -0.2551
     16 C          21.9042   71.7341    1.6374 C.ar    1  UNL1        0.3323
     17 N          21.8274   71.9591    2.9623 N.ar    1  UNL1       -0.2743
     18 C          22.2818   73.1152    3.4832 C.ar    1  UNL1        0.2626
     19 C          22.8455   74.0903    2.6244 C.ar    1  UNL1        0.0795
     20 C          22.9141   73.8373    1.3001 C.ar    1  UNL1        0.0869
     21 O          21.4905   70.6863    1.1823 O.2     1  UNL1       -0.2464
     22 O          22.2084   73.3217    4.6817 O.2     1  UNL1       -0.2670
     23 H          21.4401   71.2860    3.5443 H       1  UNL1        0.1734
     24 O          17.8178   69.1237   -4.4278 O.3     1  UNL1       -0.2703
     25 P          17.2275   70.1289   -5.5374 P.3     1  UNL1        0.2208
     26 O          16.2472   69.4108   -6.3815 O.2     1  UNL1       -0.5170
     27 O          16.5010   71.3671   -4.8072 O.3     1  UNL1       -0.4371
     28 O          18.4279   70.6793   -6.4573 O.3     1  UNL1       -0.2858
     29 C          18.1596   72.0595   -6.7076 C.3     1  UNL1        0.2704
     30 C          17.8039   72.2497   -8.1829 C.3     1  UNL1        0.1967
     31 C          18.9723   71.7610   -9.0445 C.3     1  UNL1        0.1715
     32 C          20.2507   72.4712   -8.5849 C.3     1  UNL1        0.1694
     33 C          20.4219   72.2623   -7.0782 C.3     1  UNL1        0.1761
     34 O          16.6304   71.4962   -8.4933 O.3     1  UNL1       -0.3775
     35 O          18.7175   72.0667  -10.4171 O.3     1  UNL1       -0.3794
     36 O          20.1508   73.8671   -8.8703 O.3     1  UNL1       -0.3794
     37 O          19.3131   72.8324   -6.3842 O.3     1  UNL1       -0.3258
     38 H          15.9246   71.8320   -7.9242 H       1  UNL1        0.2106
     39 H          17.9014   71.6106  -10.6585 H       1  UNL1        0.2105
     40 H          20.0387   73.9500   -9.8263 H       1  UNL1        0.2105
     41 C          21.7140   72.9387   -6.6148 C.3     1  UNL1        0.1693
     42 O          22.7442   72.7056   -7.5769 O.3     1  UNL1       -0.3794
     43 H          23.5391   73.1478   -7.2484 H       1  UNL1        0.2105
@<TRIPOS>BOND
     1    15    16   ar
     2    15    20   ar
     3    15     6    1
     4    16    17   ar
     5    16    21    2
     6    17    18   ar
     7    17    23    1
     8    18    19   ar
     9    18    22    2
    10    19    20   ar
    11     6     7    1
    12     6    11    1
    13     7     8    1
    14     7     9    1
    15     8    13    1
    16     9    10    1
    17     9    12    1
    18    10    11    1
    19    10     5    1
    20    12    14    1
    21     5     4    1
    22     4     1    1
    23     1     2    2
    24     1     3    1
    25     1    24    1
    26    24    25    1
    27    25    26    2
    28    25    27    1
    29    25    28    1
    30    28    29    1
    31    29    30    1
    32    29    37    1
    33    30    31    1
    34    30    34    1
    35    31    32    1
    36    31    35    1
    37    32    33    1
    38    32    36    1
    39    33    41    1
    40    33    37    1
    41    41    42    1
    42    34    38    1
    43    35    39    1
    44    36    40    1
    45    42    43    1
@<TRIPOS>MOLECULE
GDU
 43 45 0 0 0
SMALL
GASTEIGER

@<TRIPOS>ATOM
      1 P          21.7015   70.4457   -0.6222 P.3     1  UNL1        0.2189
      2 O          23.0490   70.3075   -1.2177 O.2     1  UNL1       -0.5170
      3 O          21.6266   69.5905    0.7401 O.3     1  UNL1       -0.4371
      4 O          21.4130   71.9948   -0.2999 O.3     1  UNL1       -0.3112
      5 C          21.6488   72.1777    1.0970 C.3     1  UNL1        0.1811
      6 C          20.7082   74.6441    3.5382 C.3     1  UNL1        0.2383
      7 C          21.8795   75.2950    2.7587 C.3     1  UNL1        0.1895
      8 O          21.7351   76.7165    2.7147 O.3     1  UNL1       -0.3779
      9 C          21.7120   74.6781    1.3457 C.3     1  UNL1        0.1713
     10 C          20.8801   73.4052    1.5893 C.3     1  UNL1        0.1764
     11 O          20.6530   73.3036    3.0058 O.3     1  UNL1       -0.3308
     12 O          21.0157   75.5818    0.4853 O.3     1  UNL1       -0.3794
     13 H          22.4920   77.0584    2.2187 H       1  UNL1        0.2106
     14 H          21.5576   76.3798    0.4198 H       1  UNL1        0.2105
     15 N          20.9929   74.6176    4.9738 N.ar    1  UNL1       -0.2551
     16 C          22.0110   73.8719    5.4381 C.ar    1  UNL1        0.3323
     17 N          22.2960   73.8329    6.7531 N.ar    1  UNL1       -0.2743
     18 C          21.5552   74.5366    7.6307 C.ar    1  UNL1        0.2626
     19 C          20.4760   75.3220    7.1566 C.ar    1  UNL1        0.0795
     20 C          20.2146   75.3466    5.8324 C.ar    1  UNL1        0.0869
     21 O          22.6885   73.2321    4.6586 O.2     1  UNL1       -0.2464
     22 O          21.8095   74.4981    8.8216 O.2     1  UNL1       -0.2670
     23 H          23.0372   73.2926    7.0702 H       1  UNL1        0.1734
     24 O          20.5987   69.8976   -1.6595 O.3     1  UNL1       -0.2703
     25 P          20.2311   71.1204   -2.6391 P.3     1  UNL1        0.2208
     26 O          19.4718   72.1436   -1.8869 O.2     1  UNL1       -0.5170
     27 O          21.5865   71.7735   -3.2139 O.3     1  UNL1       -0.4371
     28 O          19.3369   70.5790   -3.8627 O.3     1  UNL1       -0.2858
     29 C          18.4817   71.6523   -4.2584 C.3     1  UNL1        0.2704
     30 C          17.1601   71.0849   -4.7787 C.3     1  UNL1        0.1967
     31 C          17.4476   70.1575   -5.9635 C.3     1  UNL1        0.1715
     32 C          18.2794   70.9259   -6.9967 C.3     1  UNL1        0.1694
     33 C          19.5181   71.5041   -6.3079 C.3     1  UNL1        0.1761
     34 O          16.5128   70.3491   -3.7391 O.3     1  UNL1       -0.3775
     35 O          16.2160   69.7356   -6.5530 O.3     1  UNL1       -0.3794
     36 O          17.4959   71.9847   -7.5489 O.3     1  UNL1       -0.3794
     37 O          19.1188   72.4124   -5.2825 O.3     1  UNL1       -0.3258
     38 H          16.3580   70.9689   -3.0134 H       1  UNL1        0.2106
     39 H          15.7225   69.2692   -5.8665 H       1  UNL1        0.2105
     40 H          16.7264   71.5755   -7.9657 H       1  UNL1        0.2105
     41 C          20.3735   72.2446   -7.3383 C.3     1  UNL1        0.1693
     42 O          21.6327   72.5843   -6.7551 O.3     1  UNL1       -0.3794
     43 H          22.1404   73.0475   -7.4355 H       1  UNL1        0.2105
@<TRIPOS>BOND
     1    15    16   ar
     2    15    20   ar
     3    15     6    1
     4    16    17   ar
     5    16    21    2
     6    17    18   ar
     7    17    23    1
     8    18    19   ar
     9    18    22    2
    10    19    20   ar
    11     6     7    1
    12     6    11    1
    13     7     8    1
    14     7     9    1
    15     8    13    1
    16     9    10    1
    17     9    12    1
    18    10    11    1
    19    10     5    1
    20    12    14    1
    21     5     4    1
    22     4     1    1
    23     1     2    2
    24     1     3    1
    25     1    24    1
    26    24    25    1
    27    25    26    2
    28    25    27    1
    29    25    28    1
    30    28    29    1
    31    29    30    1
    32    29    37    1
    33    30    31    1
    34    30    34    1
    35    31    32    1
    36    31    35    1
    37    32    33    1
    38    32    36    1
    39    33    41    1
    40    33    37    1
    41    41    42    1
    42    34    38    1
    43    35    39    1
    44    36    40    1
    45    42    43    1
@<TRIPOS>MOLECULE
GDU
 43 45 0 0 0
SMALL
GASTEIGER

@<TRIPOS>ATOM
      1 P          19.6447   70.9759   -4.0705 P.3     1  UNL1        0.2189
      2 O          19.9748   72.3847   -4.3799 O.2     1  UNL1       -0.5170
      3 O          18.7423   70.9163   -2.7382 O.3     1  UNL1       -0.4371
      4 O          18.8305   70.3326   -5.2994 O.3     1  UNL1       -0.3112
      5 C          19.4197   70.8408   -6.4973 C.3     1  UNL1        0.1811
      6 C          16.9601   72.8070   -8.2326 C.3     1  UNL1        0.2383
      7 C          18.2507   72.9653   -9.0765 C.3     1  UNL1        0.1895
      8 O          17.9367   73.1501  -10.4587 O.3     1  UNL1       -0.3779
      9 C          18.9578   71.6041   -8.8471 C.3     1  UNL1        0.1713
     10 C          18.3300   71.0709   -7.5460 C.3     1  UNL1        0.1764
     11 O          17.4024   72.0646   -7.0765 O.3     1  UNL1       -0.3308
     12 O          18.6980   70.7164   -9.9363 O.3     1  UNL1       -0.3794
     13 H          18.7787   73.2419  -10.9261 H       1  UNL1        0.2106
     14 H          19.0621   71.1322  -10.7295 H       1  UNL1        0.2105
     15 N          16.4368   74.1154   -7.8361 N.ar    1  UNL1       -0.2551
     16 C          15.4118   74.6578   -8.5168 C.ar    1  UNL1        0.3323
     17 N          14.9097   75.8578   -8.1706 N.ar    1  UNL1       -0.2743
     18 C          15.4359   76.5425   -7.1369 C.ar    1  UNL1        0.2626
     19 C          16.5197   75.9861   -6.4144 C.ar    1  UNL1        0.0795
     20 C          17.0012   74.7791   -6.7801 C.ar    1  UNL1        0.0869
     21 O          14.9264   74.0518   -9.4513 O.2     1  UNL1       -0.2464
     22 O          14.9852   77.6309   -6.8258 O.2     1  UNL1       -0.2670
     23 H          14.1668   76.2323   -8.6703 H       1  UNL1        0.1734
     24 O          21.0045   70.1468   -3.8334 O.3     1  UNL1       -0.2703
     25 P          22.0571   71.1599   -3.1585 P.3     1  UNL1        0.2208
     26 O          23.3899   70.5201   -3.1012 O.2     1  UNL1       -0.5170
     27 O          22.1459   72.5059   -4.0386 O.3     1  UNL1       -0.4371
     28 O          21.5718   71.5257   -1.6683 O.3     1  UNL1       -0.2858
     29 C          22.7299   71.4868   -0.8335 C.3     1  UNL1        0.2704
     30 C          22.3282   71.0440    0.5743 C.3     1  UNL1        0.1967
     31 C          21.2935   72.0274    1.1301 C.3     1  UNL1        0.1715
     32 C          21.8637   73.4468    1.0306 C.3     1  UNL1        0.1694
     33 C          22.2991   73.7082   -0.4134 C.3     1  UNL1        0.1761
     34 O          21.7637   69.7326    0.5207 O.3     1  UNL1       -0.3775
     35 O          21.0178   71.7128    2.4966 O.3     1  UNL1       -0.3794
     36 O          22.9869   73.5728    1.9038 O.3     1  UNL1       -0.3794
     37 O          23.3209   72.7833   -0.7829 O.3     1  UNL1       -0.3258
     38 H          22.4455   69.1500    0.1592 H       1  UNL1        0.2106
     39 H          20.6739   70.8107    2.5123 H       1  UNL1        0.2105
     40 H          22.6677   73.3946    2.7980 H       1  UNL1        0.2105
     41 C          22.8386   75.1355   -0.5311 C.3     1  UNL1        0.1693
     42 O          22.2969   75.9368    0.5203 O.3     1  UNL1       -0.3794
     43 H          22.6613   76.8259    0.4108 H       1  UNL1        0.2105
@<TRIPOS>BOND
     1    15    16   ar
     2    15    20   ar
     3    15     6    1
     4    16    17   ar
     5    16    21    2
     6    17    18   ar
     7    17    23    1
     8    18    19   ar
     9    18    22    2
    10    19    20   ar
    11     6     7    1
    12     6    11    1
    13     7     8    1
    14     7     9    1
    15     8    13    1
    16     9    10    1
    17     9    12    1
    18    10    11    1
    19    10     5    1
    20    12    14    1
    21     5     4    1
    22     4     1    1
    23     1     2    2
    24     1     3    1
    25     1    24    1
    26    24    25    1
    27    25    26    2
    28    25    27    1
    29    25    28    1
    30    28    29    1
    31    29    30    1
    32    29    37    1
    33    30    31    1
    34    30    34    1
    35    31    32    1
    36    31    35    1
    37    32    33    1
    38    32    36    1
    39    33    41    1
    40    33    37    1
    41    41    42    1
    42    34    38    1
    43    35    39    1
    44    36    40    1
    45    42    43    1
@<TRIPOS>MOLECULE
GDU
 43 45 0 0 0
SMALL
GASTEIGER

@<TRIPOS>ATOM
      1 P          22.3722   72.2747   -2.1246 P.3     1  UNL1        0.2189
      2 O          23.5905   72.2110   -2.9619 O.2     1  UNL1       -0.5170
      3 O          21.3900   73.4174   -2.6924 O.3     1  UNL1       -0.4371
      4 O          21.6200   70.8535   -2.1619 O.3     1  UNL1       -0.3112
      5 C          20.9675   70.7638   -3.4295 C.3     1  UNL1        0.1811
      6 C          17.5565   71.2358   -4.4637 C.3     1  UNL1        0.2383
      7 C          17.8502   69.7430   -4.7609 C.3     1  UNL1        0.1895
      8 O          16.6653   68.9543   -4.6300 O.3     1  UNL1       -0.3779
      9 C          18.8765   69.3872   -3.6539 C.3     1  UNL1        0.1713
     10 C          19.4516   70.7498   -3.2248 C.3     1  UNL1        0.1764
     11 O          18.8380   71.7554   -4.0498 O.3     1  UNL1       -0.3308
     12 O          18.2251   68.7437   -2.5569 O.3     1  UNL1       -0.3794
     13 H          16.9151   68.0408   -4.8272 H       1  UNL1        0.2106
     14 H          17.8361   67.9284   -2.9013 H       1  UNL1        0.2105
     15 N          17.0870   71.9212   -5.6690 N.ar    1  UNL1       -0.2551
     16 C          17.7745   71.7962   -6.8178 C.ar    1  UNL1        0.3323
     17 N          17.3624   72.4131   -7.9410 N.ar    1  UNL1       -0.2743
     18 C          16.2536   73.1777   -7.9291 C.ar    1  UNL1        0.2626
     19 C          15.5225   73.3231   -6.7247 C.ar    1  UNL1        0.0795
     20 C          15.9556   72.6901   -5.6138 C.ar    1  UNL1        0.0869
     21 O          18.7764   71.1094   -6.8441 O.2     1  UNL1       -0.2464
     22 O          15.8824   73.7403   -8.9441 O.2     1  UNL1       -0.2670
     23 H          17.8685   72.3083   -8.7624 H       1  UNL1        0.1734
     24 O          22.7823   72.6266   -0.6079 O.3     1  UNL1       -0.2703
     25 P          21.4674   72.4076    0.2938 P.3     1  UNL1        0.2208
     26 O          20.2634   72.7290   -0.5038 O.2     1  UNL1       -0.5170
     27 O          21.3970   70.8724    0.7758 O.3     1  UNL1       -0.4371
     28 O          21.5319   73.3706    1.5816 O.3     1  UNL1       -0.2858
     29 C          22.7557   73.0783    2.2574 C.3     1  UNL1        0.2704
     30 C          22.4527   72.6276    3.6872 C.3     1  UNL1        0.1967
     31 C          21.6885   73.7414    4.4097 C.3     1  UNL1        0.1715
     32 C          22.4909   75.0421    4.2921 C.3     1  UNL1        0.1694
     33 C          22.7895   75.3109    2.8151 C.3     1  UNL1        0.1761
     34 O          21.6571   71.4413    3.6566 O.3     1  UNL1       -0.3775
     35 O          21.5268   73.3971    5.7873 O.3     1  UNL1       -0.3794
     36 O          23.7152   74.9155    5.0167 O.3     1  UNL1       -0.3794
     37 O          23.5741   74.2455    2.2810 O.3     1  UNL1       -0.3258
     38 H          22.1730   70.7714    3.1877 H       1  UNL1        0.2106
     39 H          21.0292   72.5700    5.8126 H       1  UNL1        0.2105
     40 H          23.4789   74.7418    5.9372 H       1  UNL1        0.2105
     41 C          23.5612   76.6259    2.6836 C.3     1  UNL1        0.1693
     42 O          24.9630   76.3657    2.7740 O.3     1  UNL1       -0.3794
     43 H          25.4120   77.2177    2.6859 H       1  UNL1        0.2105
@<TRIPOS>BOND
     1    15    16   ar
     2    15    20   ar
     3    15     6    1
     4    16    17   ar
     5    16    21    2
     6    17    18   ar
     7    17    23    1
     8    18    19   ar
     9    18    22    2
    10    19    20   ar
    11     6     7    1
    12     6    11    1
    13     7     8    1
    14     7     9    1
    15     8    13    1
    16     9    10    1
    17     9    12    1
    18    10    11    1
    19    10     5    1
    20    12    14    1
    21     5     4    1
    22     4     1    1
    23     1     2    2
    24     1     3    1
    25     1    24    1
    26    24    25    1
    27    25    26    2
    28    25    27    1
    29    25    28    1
    30    28    29    1
    31    29    30    1
    32    29    37    1
    33    30    31    1
    34    30    34    1
    35    31    32    1
    36    31    35    1
    37    32    33    1
    38    32    36    1
    39    33    41    1
    40    33    37    1
    41    41    42    1
    42    34    38    1
    43    35    39    1
    44    36    40    1
    45    42    43    1
