@<TRIPOS>MOLECULE
*****
 43 45 0 0 0
SMALL
GASTEIGER

@<TRIPOS>ATOM
      1 P          22.9624   71.6433   -2.8633 P.3     1  UNL1        0.2189
      2 O          23.7709   72.9697   -3.3170 O.co2   1  UNL1       -0.4371
      3 O          23.6336   70.3449   -3.2031 O.2     1  UNL1       -0.5170
      4 O          21.4855   71.8555   -3.4890 O.3     1  UNL1       -0.3112
      5 C          20.6034   70.7488   -3.5308 C.3     1  UNL1        0.1811
      6 O          18.7869   71.8695   -4.6362 O.3     1  UNL1       -0.3308
      7 O          17.0202   70.7030   -2.5127 O.3     1  UNL1       -0.3794
      8 O          16.5736   69.0489   -4.6342 O.3     1  UNL1       -0.3779
      9 C          18.1644   70.1339   -3.1494 C.3     1  UNL1        0.1713
     10 C          17.8209   69.7074   -4.5609 C.3     1  UNL1        0.1895
     11 C          19.1718   71.2499   -3.3900 C.3     1  UNL1        0.1764
     12 C          17.8262   71.0340   -5.3012 C.3     1  UNL1        0.2383
     13 H          16.3623   70.0088   -2.3487 H       1  UNL1        0.2105
     14 H          16.6218   68.2102   -4.1482 H       1  UNL1        0.2106
     15 O          16.0328   70.4139   -7.3931 O.2     1  UNL1       -0.2464
     16 O          19.3921   70.5116  -10.5474 O.2     1  UNL1       -0.2670
     17 N          18.2053   70.8914   -6.6785 N.ar    1  UNL1       -0.2551
     18 N          17.7078   70.4622   -8.9620 N.ar    1  UNL1       -0.2743
     19 C          17.2267   70.5783   -7.6512 C.ar    1  UNL1        0.3323
     20 C          19.5322   71.0629   -7.0539 C.ar    1  UNL1        0.0869
     21 C          19.9757   70.9491   -8.3073 C.ar    1  UNL1        0.0795
     22 C          19.0176   70.6230   -9.3840 C.ar    1  UNL1        0.2626
     23 H          17.0453   70.2426   -9.6564 H       1  UNL1        0.1734
     24 O          22.7257   71.8854   -1.2827 O.3     1  UNL1       -0.2703
     25 P          22.4467   70.8427   -0.0792 P.3     1  UNL1        0.2208
     26 O          23.7262   69.8531   -0.1432 O.co2   1  UNL1       -0.4371
     27 O          21.1203   70.1447   -0.1642 O.2     1  UNL1       -0.5170
     28 O          22.6650   71.7038    1.2673 O.3     1  UNL1       -0.2858
     29 O          21.8736   72.4202    3.3815 O.3     1  UNL1       -0.3226
     30 O          21.1415   75.7439    1.0394 O.3     1  UNL1       -0.3794
     31 O          20.5824   73.0631    0.0220 O.3     1  UNL1       -0.3775
     32 O          23.3816   75.7291    2.8922 O.3     1  UNL1       -0.3792
     33 C          21.8382   74.5680    1.4517 C.3     1  UNL1        0.1718
     34 C          20.8992   73.3639    1.3762 C.3     1  UNL1        0.1968
     35 C          22.3158   74.7812    2.8899 C.3     1  UNL1        0.1723
     36 C          21.5347   72.1330    2.0242 C.3     1  UNL1        0.2706
     37 C          22.8189   73.4801    3.5084 C.3     1  UNL1        0.1830
     38 H          20.8285   75.6316    0.1280 H       1  UNL1        0.2105
     39 H          20.1790   73.8399   -0.3954 H       1  UNL1        0.2106
     40 H          23.0746   76.5618    2.5008 H       1  UNL1        0.2106
     41 O          22.0577   72.8536    5.6367 O.co2   1  UNL1       -0.5466
     42 O          23.7990   74.3229    5.5457 O.co2   1  UNL1       -0.5466
     43 C          22.9696   73.6197    4.9883 C.2     1  UNL1        0.0799
@<TRIPOS>UNITY_ATOM_ATTR
2 1
charge -1
26 1
charge -1
41 1
charge -1
@<TRIPOS>BOND
     1     1     4    1
     2     1    24    1
     3     1     2    1
     4     1     3    2
     5    25    28    1
     6    25    24    1
     7    25    26    1
     8    25    27    2
     9     6    11    1
    10     6    12    1
    11    29    36    1
    12    29    37    1
    13     7     9    1
    14     7    13    1
    15     8    10    1
    16     8    14    1
    17     4     5    1
    18    28    36    1
    19    30    33    1
    20    30    38    1
    21    31    34    1
    22    31    39    1
    23    32    35    1
    24    32    40    1
    25    41    43   ar
    26    15    19    2
    27    42    43   ar
    28    16    22    2
    29    17    12    1
    30    17    19   ar
    31    17    20   ar
    32    18    19   ar
    33    18    22   ar
    34    18    23    1
    35     9    10    1
    36     9    11    1
    37    10    12    1
    38    11     5    1
    39    33    34    1
    40    33    35    1
    41    34    36    1
    42    35    37    1
    43    37    43    1
    44    20    21   ar
    45    21    22   ar
@<TRIPOS>MOLECULE
*****
 43 45 0 0 0
SMALL
GASTEIGER

@<TRIPOS>ATOM
      1 P          22.7872   71.6573   -2.2152 P.3     1  UNL1        0.2189
      2 O          23.3029   73.1828   -2.3760 O.co2   1  UNL1       -0.4371
      3 O          23.4263   70.6708   -3.1479 O.2     1  UNL1       -0.5170
      4 O          21.1769   71.7788   -2.3167 O.3     1  UNL1       -0.3112
      5 C          20.5583   71.5392   -3.5675 C.3     1  UNL1        0.1811
      6 O          18.6059   72.2912   -4.7507 O.3     1  UNL1       -0.3308
      7 O          17.0156   71.1188   -2.4950 O.3     1  UNL1       -0.3794
      8 O          16.7909   69.2154   -4.4348 O.3     1  UNL1       -0.3779
      9 C          18.2246   70.6461   -3.0896 C.3     1  UNL1        0.1713
     10 C          17.9386   70.0382   -4.4464 C.3     1  UNL1        0.1895
     11 C          19.0728   71.8566   -3.4551 C.3     1  UNL1        0.1764
     12 C          17.7646   71.2726   -5.3147 C.3     1  UNL1        0.2383
     13 H          16.4570   70.3631   -2.2529 H       1  UNL1        0.2105
     14 H          16.9520   68.4437   -3.8688 H       1  UNL1        0.2106
     15 O          16.0260   70.3554   -7.3426 O.2     1  UNL1       -0.2464
     16 O          19.3785   70.4321  -10.5047 O.2     1  UNL1       -0.2670
     17 N          18.1568   71.0443   -6.6766 N.ar    1  UNL1       -0.2551
     18 N          17.6977   70.3935   -8.9154 N.ar    1  UNL1       -0.2743
     19 C          17.2058   70.5827   -7.6172 C.ar    1  UNL1        0.3323
     20 C          19.4691   71.2785   -7.0690 C.ar    1  UNL1        0.0869
     21 C          19.9231   71.0937   -8.3102 C.ar    1  UNL1        0.0795
     22 C          18.9938   70.6121   -9.3532 C.ar    1  UNL1        0.2626
     23 H          17.0545   70.0706   -9.5873 H       1  UNL1        0.1734
     24 O          23.0305   71.3555   -0.6459 O.3     1  UNL1       -0.2703
     25 P          22.1310   70.5554    0.4331 P.3     1  UNL1        0.2208
     26 O          23.2305   69.9512    1.4560 O.co2   1  UNL1       -0.4371
     27 O          21.2161   69.5283   -0.1687 O.2     1  UNL1       -0.5170
     28 O          21.3809   71.7083    1.2759 O.3     1  UNL1       -0.2858
     29 O          21.8904   74.0212    1.2938 O.3     1  UNL1       -0.3226
     30 O          20.2281   73.4976    5.0395 O.3     1  UNL1       -0.3794
     31 O          22.0932   71.5261    3.9584 O.3     1  UNL1       -0.3775
     32 O          18.6925   74.7746    2.9272 O.3     1  UNL1       -0.3792
     33 C          20.4077   73.2430    3.6464 C.3     1  UNL1        0.1718
     34 C          21.8500   72.8067    3.3877 C.3     1  UNL1        0.1968
     35 C          20.0978   74.5344    2.8859 C.3     1  UNL1        0.1723
     36 C          22.1430   72.7473    1.8879 C.3     1  UNL1        0.2706
     37 C          20.5338   74.4398    1.4266 C.3     1  UNL1        0.1830
     38 H          20.4196   72.6908    5.5432 H       1  UNL1        0.2105
     39 H          21.9090   71.5564    4.9100 H       1  UNL1        0.2106
     40 H          18.4020   74.8367    3.8506 H       1  UNL1        0.2106
     41 O          20.6702   76.7631    1.7183 O.co2   1  UNL1       -0.5466
     42 O          20.4307   75.9950   -0.4152 O.co2   1  UNL1       -0.5466
     43 C          20.5347   75.7890    0.7847 C.2     1  UNL1        0.0799
@<TRIPOS>UNITY_ATOM_ATTR
2 1
charge -1
26 1
charge -1
41 1
charge -1
@<TRIPOS>BOND
     1     1     4    1
     2     1    24    1
     3     1     2    1
     4     1     3    2
     5    25    28    1
     6    25    24    1
     7    25    26    1
     8    25    27    2
     9     6    11    1
    10     6    12    1
    11    29    36    1
    12    29    37    1
    13     7     9    1
    14     7    13    1
    15     8    10    1
    16     8    14    1
    17     4     5    1
    18    28    36    1
    19    30    33    1
    20    30    38    1
    21    31    34    1
    22    31    39    1
    23    32    35    1
    24    32    40    1
    25    41    43   ar
    26    15    19    2
    27    42    43   ar
    28    16    22    2
    29    17    12    1
    30    17    19   ar
    31    17    20   ar
    32    18    19   ar
    33    18    22   ar
    34    18    23    1
    35     9    10    1
    36     9    11    1
    37    10    12    1
    38    11     5    1
    39    33    34    1
    40    33    35    1
    41    34    36    1
    42    35    37    1
    43    37    43    1
    44    20    21   ar
    45    21    22   ar
@<TRIPOS>MOLECULE
*****
 43 45 0 0 0
SMALL
GASTEIGER

@<TRIPOS>ATOM
      1 P          21.3988   74.0198   -5.2689 P.3     1  UNL1        0.2189
      2 O          19.9157   73.9173   -4.6296 O.co2   1  UNL1       -0.4371
      3 O          22.1523   75.2708   -4.9237 O.2     1  UNL1       -0.5170
      4 O          21.1607   73.7560   -6.8474 O.3     1  UNL1       -0.3112
      5 C          19.9867   74.2699   -7.4492 C.3     1  UNL1        0.1811
      6 O          19.6624   71.9791   -8.1009 O.3     1  UNL1       -0.3308
      7 O          17.9663   73.0480  -10.3307 O.3     1  UNL1       -0.3794
      8 O          16.1092   72.2248   -8.5115 O.3     1  UNL1       -0.3779
      9 C          18.1060   73.5261   -8.9927 C.3     1  UNL1        0.1713
     10 C          17.3798   72.6103   -8.0303 C.3     1  UNL1        0.1895
     11 C          19.5585   73.3388   -8.5761 C.3     1  UNL1        0.1764
     12 C          18.3430   71.4406   -7.9205 C.3     1  UNL1        0.2383
     13 H          17.0462   73.1574  -10.6191 H       1  UNL1        0.2105
     14 H          15.5330   73.0041   -8.5632 H       1  UNL1        0.2106
     15 O          16.1028   69.9997   -6.9814 O.2     1  UNL1       -0.2464
     16 O          18.1904   68.9947   -2.9969 O.2     1  UNL1       -0.2670
     17 N          18.2742   70.7923   -6.6415 N.ar    1  UNL1       -0.2551
     18 N          17.1443   69.5014   -4.9974 N.ar    1  UNL1       -0.2743
     19 C          17.1019   70.0946   -6.2660 C.ar    1  UNL1        0.3323
     20 C          19.3594   70.8499   -5.7754 C.ar    1  UNL1        0.0869
     21 C          19.3850   70.2793   -4.5693 C.ar    1  UNL1        0.0795
     22 C          18.1998   69.5317   -4.1004 C.ar    1  UNL1        0.2626
     23 H          16.3389   69.0117   -4.7130 H       1  UNL1        0.1734
     24 O          22.1027   72.6515   -4.7739 O.3     1  UNL1       -0.2703
     25 P          23.0362   72.3421   -3.4907 P.3     1  UNL1        0.2208
     26 O          24.3000   73.3304   -3.7057 O.co2   1  UNL1       -0.4371
     27 O          23.4029   70.8951   -3.3305 O.2     1  UNL1       -0.5170
     28 O          22.2349   72.9720   -2.2402 O.3     1  UNL1       -0.2858
     29 O          21.4993   71.1651   -0.8973 O.3     1  UNL1       -0.3226
     30 O          20.0939   74.4179    1.2269 O.3     1  UNL1       -0.3794
     31 O          19.8819   74.3477   -1.6859 O.3     1  UNL1       -0.3775
     32 O          22.4391   72.9720    2.1546 O.3     1  UNL1       -0.3792
     33 C          20.9919   73.7076    0.3742 C.3     1  UNL1        0.1718
     34 C          20.2469   73.2368   -0.8751 C.3     1  UNL1        0.1968
     35 C          21.5349   72.5079    1.1538 C.3     1  UNL1        0.1723
     36 C          21.1104   72.2809   -1.6994 C.3     1  UNL1        0.2706
     37 C          22.2766   71.5381    0.2384 C.3     1  UNL1        0.1830
     38 H          19.7360   75.1849    0.7527 H       1  UNL1        0.2105
     39 H          19.3341   74.9585   -1.1691 H       1  UNL1        0.2106
     40 H          21.9794   73.5903    2.7439 H       1  UNL1        0.2106
     41 O          21.6249   69.3003    0.5008 O.co2   1  UNL1       -0.5466
     42 O          23.3827   70.0261    1.7588 O.co2   1  UNL1       -0.5466
     43 C          22.5119   70.2333    0.9270 C.2     1  UNL1        0.0799
@<TRIPOS>UNITY_ATOM_ATTR
2 1
charge -1
26 1
charge -1
41 1
charge -1
@<TRIPOS>BOND
     1     1     4    1
     2     1    24    1
     3     1     2    1
     4     1     3    2
     5    25    28    1
     6    25    24    1
     7    25    26    1
     8    25    27    2
     9     6    11    1
    10     6    12    1
    11    29    36    1
    12    29    37    1
    13     7     9    1
    14     7    13    1
    15     8    10    1
    16     8    14    1
    17     4     5    1
    18    28    36    1
    19    30    33    1
    20    30    38    1
    21    31    34    1
    22    31    39    1
    23    32    35    1
    24    32    40    1
    25    41    43   ar
    26    15    19    2
    27    42    43   ar
    28    16    22    2
    29    17    12    1
    30    17    19   ar
    31    17    20   ar
    32    18    19   ar
    33    18    22   ar
    34    18    23    1
    35     9    10    1
    36     9    11    1
    37    10    12    1
    38    11     5    1
    39    33    34    1
    40    33    35    1
    41    34    36    1
    42    35    37    1
    43    37    43    1
    44    20    21   ar
    45    21    22   ar
@<TRIPOS>MOLECULE
*****
 43 45 0 0 0
SMALL
GASTEIGER

@<TRIPOS>ATOM
      1 P          21.7088   70.9323   -0.9929 P.3     1  UNL1        0.2189
      2 O          23.2899   70.5935   -1.0590 O.co2   1  UNL1       -0.4371
      3 O          20.8167   69.7491   -0.7565 O.2     1  UNL1       -0.5170
      4 O          21.4316   71.7602   -2.3551 O.3     1  UNL1       -0.3112
      5 C          20.6715   71.1437   -3.3782 C.3     1  UNL1        0.1811
      6 O          18.8043   72.1354   -4.5217 O.3     1  UNL1       -0.3308
      7 O          17.0963   70.9814   -2.3440 O.3     1  UNL1       -0.3794
      8 O          16.7189   69.2218   -4.3928 O.3     1  UNL1       -0.3779
      9 C          18.2632   70.4375   -2.9612 C.3     1  UNL1        0.1713
     10 C          17.9357   69.9376   -4.3523 C.3     1  UNL1        0.1895
     11 C          19.2193   71.5861   -3.2523 C.3     1  UNL1        0.1764
     12 C          17.8801   71.2309   -5.1473 C.3     1  UNL1        0.2383
     13 H          16.4703   70.2661   -2.1485 H       1  UNL1        0.2105
     14 H          16.8055   68.4071   -3.8725 H       1  UNL1        0.2106
     15 O          16.1170   70.4197   -7.1990 O.2     1  UNL1       -0.2464
     16 O          19.4552   70.5609  -10.3739 O.2     1  UNL1       -0.2670
     17 N          18.2621   71.0479   -6.5189 N.ar    1  UNL1       -0.2551
     18 N          17.7815   70.4898   -8.7781 N.ar    1  UNL1       -0.2743
     19 C          17.2990   70.6379   -7.4711 C.ar    1  UNL1        0.3323
     20 C          19.5762   71.2752   -6.9093 C.ar    1  UNL1        0.0869
     21 C          20.0211   71.1300   -8.1590 C.ar    1  UNL1        0.0795
     22 C          19.0790   70.7035   -9.2144 C.ar    1  UNL1        0.2626
     23 H          17.1300   70.2031   -9.4583 H       1  UNL1        0.1734
     24 O          21.6298   72.0740    0.1487 O.3     1  UNL1       -0.2703
     25 P          22.3006   73.5427    0.2292 P.3     1  UNL1        0.2208
     26 O          21.1774   74.4993   -0.4368 O.co2   1  UNL1       -0.4371
     27 O          23.6539   73.6377   -0.4138 O.2     1  UNL1       -0.5170
     28 O          22.2769   73.9181    1.7979 O.3     1  UNL1       -0.2858
     29 O          23.8976   73.5880    3.4931 O.3     1  UNL1       -0.3226
     30 O          20.3728   73.1557    5.6043 O.3     1  UNL1       -0.3794
     31 O          20.6657   71.9666    2.9520 O.3     1  UNL1       -0.3775
     32 O          21.9303   75.5981    5.8493 O.3     1  UNL1       -0.3792
     33 C          21.2248   73.6738    4.5827 C.3     1  UNL1        0.1718
     34 C          21.7326   72.5263    3.7091 C.3     1  UNL1        0.1968
     35 C          22.3975   74.3857    5.2608 C.3     1  UNL1        0.1723
     36 C          22.8231   73.0089    2.7517 C.3     1  UNL1        0.2706
     37 C          23.4990   74.7222    4.2598 C.3     1  UNL1        0.1830
     38 H          19.6201   72.6987    5.1969 H       1  UNL1        0.2105
     39 H          19.9700   71.6585    3.5532 H       1  UNL1        0.2106
     40 H          21.2286   75.3979    6.4884 H       1  UNL1        0.2106
     41 O          25.6588   74.0963    4.9268 O.co2   1  UNL1       -0.5466
     42 O          24.9565   76.1871    5.5052 O.co2   1  UNL1       -0.5466
     43 C          24.7575   75.1088    4.9661 C.2     1  UNL1        0.0799
@<TRIPOS>UNITY_ATOM_ATTR
2 1
charge -1
26 1
charge -1
41 1
charge -1
@<TRIPOS>BOND
     1     1     4    1
     2     1    24    1
     3     1     2    1
     4     1     3    2
     5    25    28    1
     6    25    24    1
     7    25    26    1
     8    25    27    2
     9     6    11    1
    10     6    12    1
    11    29    36    1
    12    29    37    1
    13     7     9    1
    14     7    13    1
    15     8    10    1
    16     8    14    1
    17     4     5    1
    18    28    36    1
    19    30    33    1
    20    30    38    1
    21    31    34    1
    22    31    39    1
    23    32    35    1
    24    32    40    1
    25    41    43   ar
    26    15    19    2
    27    42    43   ar
    28    16    22    2
    29    17    12    1
    30    17    19   ar
    31    17    20   ar
    32    18    19   ar
    33    18    22   ar
    34    18    23    1
    35     9    10    1
    36     9    11    1
    37    10    12    1
    38    11     5    1
    39    33    34    1
    40    33    35    1
    41    34    36    1
    42    35    37    1
    43    37    43    1
    44    20    21   ar
    45    21    22   ar
@<TRIPOS>MOLECULE
*****
 43 45 0 0 0
SMALL
GASTEIGER

@<TRIPOS>ATOM
      1 P          23.0445   72.1071   -3.2792 P.3     1  UNL1        0.2189
      2 O          23.8024   73.0327   -4.3690 O.co2   1  UNL1       -0.4371
      3 O          23.5742   70.7083   -3.1580 O.2     1  UNL1       -0.5170
      4 O          21.4823   72.2346   -3.6804 O.3     1  UNL1       -0.3112
      5 C          20.6667   71.0802   -3.5983 C.3     1  UNL1        0.1811
      6 O          18.7701   72.0439   -4.7170 O.3     1  UNL1       -0.3308
      7 O          17.1119   70.8918   -2.5001 O.3     1  UNL1       -0.3794
      8 O          16.7162   69.1114   -4.5274 O.3     1  UNL1       -0.3779
      9 C          18.2732   70.3541   -3.1332 C.3     1  UNL1        0.1713
     10 C          17.9264   69.8392   -4.5141 C.3     1  UNL1        0.1895
     11 C          19.2127   71.5095   -3.4506 C.3     1  UNL1        0.1764
     12 C          17.8442   71.1252   -5.3187 C.3     1  UNL1        0.2383
     13 H          16.4966   70.1721   -2.2877 H       1  UNL1        0.2105
     14 H          16.8200   68.3020   -4.0019 H       1  UNL1        0.2106
     15 O          16.0184   70.4509   -7.3653 O.2     1  UNL1       -0.2464
     16 O          19.3360   70.4176  -10.5648 O.2     1  UNL1       -0.2670
     17 N          18.2038   70.9343   -6.6953 N.ar    1  UNL1       -0.2551
     18 N          17.6727   70.4339   -8.9567 N.ar    1  UNL1       -0.2743
     19 C          17.2100   70.5971   -7.6443 C.ar    1  UNL1        0.3323
     20 C          19.5268   71.0827   -7.0935 C.ar    1  UNL1        0.0869
     21 C          19.9527   70.9241   -8.3482 C.ar    1  UNL1        0.0795
     22 C          18.9779   70.5703   -9.4009 C.ar    1  UNL1        0.2626
     23 H          16.9994   70.1969   -9.6348 H       1  UNL1        0.1734
     24 O          23.1448   72.9847   -1.9254 O.3     1  UNL1       -0.2703
     25 P          22.5897   74.4620   -1.5745 P.3     1  UNL1        0.2208
     26 O          21.2349   74.5666   -2.4542 O.co2   1  UNL1       -0.4371
     27 O          23.5761   75.5659   -1.8245 O.2     1  UNL1       -0.5170
     28 O          22.0772   74.3550   -0.0487 O.3     1  UNL1       -0.2858
     29 O          21.0061   72.2432   -0.0970 O.3     1  UNL1       -0.3226
     30 O          21.1355   73.0276    3.9571 O.3     1  UNL1       -0.3794
     31 O          20.4440   75.1401    2.0614 O.3     1  UNL1       -0.3775
     32 O          22.9777   71.1100    2.7825 O.3     1  UNL1       -0.3792
     33 C          21.5930   73.0737    2.6056 C.3     1  UNL1        0.1718
     34 C          20.5416   73.7591    1.7326 C.3     1  UNL1        0.1968
     35 C          21.8210   71.6358    2.1343 C.3     1  UNL1        0.1723
     36 C          20.8893   73.6237    0.2495 C.3     1  UNL1        0.2706
     37 C          22.0363   71.5719    0.6249 C.3     1  UNL1        0.1830
     38 H          20.9837   73.9305    4.2783 H       1  UNL1        0.2105
     39 H          20.2238   75.2334    3.0012 H       1  UNL1        0.2106
     40 H          22.8536   71.1451    3.7438 H       1  UNL1        0.2106
     41 O          23.0289   69.4517    0.4788 O.co2   1  UNL1       -0.5466
     42 O          20.9828   69.7115   -0.4933 O.co2   1  UNL1       -0.5466
     43 C          21.9288   70.1652    0.1329 C.2     1  UNL1        0.0799
@<TRIPOS>UNITY_ATOM_ATTR
2 1
charge -1
26 1
charge -1
41 1
charge -1
@<TRIPOS>BOND
     1     1     4    1
     2     1    24    1
     3     1     2    1
     4     1     3    2
     5    25    28    1
     6    25    24    1
     7    25    26    1
     8    25    27    2
     9     6    11    1
    10     6    12    1
    11    29    36    1
    12    29    37    1
    13     7     9    1
    14     7    13    1
    15     8    10    1
    16     8    14    1
    17     4     5    1
    18    28    36    1
    19    30    33    1
    20    30    38    1
    21    31    34    1
    22    31    39    1
    23    32    35    1
    24    32    40    1
    25    41    43   ar
    26    15    19    2
    27    42    43   ar
    28    16    22    2
    29    17    12    1
    30    17    19   ar
    31    17    20   ar
    32    18    19   ar
    33    18    22   ar
    34    18    23    1
    35     9    10    1
    36     9    11    1
    37    10    12    1
    38    11     5    1
    39    33    34    1
    40    33    35    1
    41    34    36    1
    42    35    37    1
    43    37    43    1
    44    20    21   ar
    45    21    22   ar
@<TRIPOS>MOLECULE
*****
 43 45 0 0 0
SMALL
GASTEIGER

@<TRIPOS>ATOM
      1 P          22.8001   73.5926   -4.1578 P.3     1  UNL1        0.2189
      2 O          22.0156   74.7884   -3.4005 O.co2   1  UNL1       -0.4371
      3 O          24.1984   73.3453   -3.6727 O.2     1  UNL1       -0.5170
      4 O          22.6560   73.9652   -5.7257 O.3     1  UNL1       -0.3112
      5 C          22.3727   72.9259   -6.6444 C.3     1  UNL1        0.1811
      6 O          21.1194   72.6646   -8.6788 O.3     1  UNL1       -0.3308
      7 O          21.5857   75.5932   -9.1231 O.3     1  UNL1       -0.3794
      8 O          19.0277   75.5334   -8.1800 O.3     1  UNL1       -0.3779
      9 C          21.3560   74.8898   -7.9020 C.3     1  UNL1        0.1713
     10 C          19.8993   74.4919   -7.7924 C.3     1  UNL1        0.1895
     11 C          22.0490   73.5377   -8.0013 C.3     1  UNL1        0.1764
     12 C          19.8288   73.2935   -8.7234 C.3     1  UNL1        0.2383
     13 H          21.1523   76.4606   -9.0834 H       1  UNL1        0.2105
     14 H          19.1096   76.2725   -7.5562 H       1  UNL1        0.2106
     15 O          19.0544   71.0469  -10.2496 O.2     1  UNL1       -0.2464
     16 O          15.9938   69.7142   -7.0715 O.2     1  UNL1       -0.2670
     17 N          18.8320   72.3430   -8.3186 N.ar    1  UNL1       -0.2551
     18 N          17.5301   70.3858   -8.6658 N.ar    1  UNL1       -0.2743
     19 C          18.5170   71.2493   -9.1592 C.ar    1  UNL1        0.3323
     20 C          18.1797   72.4979   -7.1014 C.ar    1  UNL1        0.0869
     21 C          17.2413   71.6665   -6.6445 C.ar    1  UNL1        0.0795
     22 C          16.8529   70.4987   -7.4623 C.ar    1  UNL1        0.2626
     23 H          17.2923   69.6180   -9.2344 H       1  UNL1        0.1734
     24 O          21.7968   72.3364   -3.9891 O.3     1  UNL1       -0.2703
     25 P          21.8960   71.0159   -3.0618 P.3     1  UNL1        0.2208
     26 O          23.4682   70.6358   -3.1265 O.co2   1  UNL1       -0.4371
     27 O          20.9738   69.9045   -3.4723 O.2     1  UNL1       -0.5170
     28 O          21.6686   71.5537   -1.5580 O.3     1  UNL1       -0.2858
     29 O          23.3590   72.8473   -0.5197 O.3     1  UNL1       -0.3226
     30 O          21.0590   71.7137    2.7196 O.3     1  UNL1       -0.3794
     31 O          21.6782   69.8000    0.6008 O.3     1  UNL1       -0.3775
     32 O          20.8839   74.4238    1.6827 O.3     1  UNL1       -0.3792
     33 C          21.3087   72.0742    1.3610 C.3     1  UNL1        0.1718
     34 C          22.2879   71.0782    0.7390 C.3     1  UNL1        0.1968
     35 C          21.9033   73.4842    1.3476 C.3     1  UNL1        0.1723
     36 C          22.7566   71.5577   -0.6355 C.3     1  UNL1        0.2706
     37 C          22.4620   73.8401   -0.0271 C.3     1  UNL1        0.1830
     38 H          20.6808   70.8208    2.7531 H       1  UNL1        0.2105
     39 H          21.3781   69.4898    1.4692 H       1  UNL1        0.2106
     40 H          20.5198   74.2084    2.5556 H       1  UNL1        0.2106
     41 O          24.5841   74.7826   -0.3587 O.co2   1  UNL1       -0.5466
     42 O          22.9446   76.1608    0.4235 O.co2   1  UNL1       -0.5466
     43 C          23.3209   75.0602    0.0490 C.2     1  UNL1        0.0799
@<TRIPOS>UNITY_ATOM_ATTR
2 1
charge -1
26 1
charge -1
41 1
charge -1
@<TRIPOS>BOND
     1     1     4    1
     2     1    24    1
     3     1     2    1
     4     1     3    2
     5    25    28    1
     6    25    24    1
     7    25    26    1
     8    25    27    2
     9     6    11    1
    10     6    12    1
    11    29    36    1
    12    29    37    1
    13     7     9    1
    14     7    13    1
    15     8    10    1
    16     8    14    1
    17     4     5    1
    18    28    36    1
    19    30    33    1
    20    30    38    1
    21    31    34    1
    22    31    39    1
    23    32    35    1
    24    32    40    1
    25    41    43   ar
    26    15    19    2
    27    42    43   ar
    28    16    22    2
    29    17    12    1
    30    17    19   ar
    31    17    20   ar
    32    18    19   ar
    33    18    22   ar
    34    18    23    1
    35     9    10    1
    36     9    11    1
    37    10    12    1
    38    11     5    1
    39    33    34    1
    40    33    35    1
    41    34    36    1
    42    35    37    1
    43    37    43    1
    44    20    21   ar
    45    21    22   ar
@<TRIPOS>MOLECULE
*****
 43 45 0 0 0
SMALL
GASTEIGER

@<TRIPOS>ATOM
      1 P          21.6396   70.2412   -0.9020 P.3     1  UNL1        0.2189
      2 O          22.9920   70.7685   -1.6174 O.co2   1  UNL1       -0.4371
      3 O          21.8508   69.2234    0.1802 O.2     1  UNL1       -0.5170
      4 O          20.7052   69.7708   -2.1363 O.3     1  UNL1       -0.3112
      5 C          20.5456   70.6479   -3.2362 C.3     1  UNL1        0.1811
      6 O          18.9037   71.9515   -4.4120 O.3     1  UNL1       -0.3308
      7 O          16.9527   71.0309   -2.3293 O.3     1  UNL1       -0.3794
      8 O          16.3808   69.4043   -4.4419 O.3     1  UNL1       -0.3779
      9 C          18.0418   70.3236   -2.9227 C.3     1  UNL1        0.1713
     10 C          17.6929   69.9162   -4.3385 C.3     1  UNL1        0.1895
     11 C          19.1778   71.3124   -3.1464 C.3     1  UNL1        0.1764
     12 C          17.8729   71.2210   -5.0955 C.3     1  UNL1        0.2383
     13 H          16.2145   70.4196   -2.1768 H       1  UNL1        0.2105
     14 H          16.3176   68.5737   -3.9437 H       1  UNL1        0.2106
     15 O          16.1040   70.5517   -7.1931 O.2     1  UNL1       -0.2464
     16 O          19.5203   70.4471  -10.2854 O.2     1  UNL1       -0.2670
     17 N          18.2733   71.0131   -6.4583 N.ar    1  UNL1       -0.2551
     18 N          17.8073   70.4993   -8.7310 N.ar    1  UNL1       -0.2743
     19 C          17.3056   70.6801   -7.4354 C.ar    1  UNL1        0.3323
     20 C          19.6101   71.1409   -6.8157 C.ar    1  UNL1        0.0869
     21 C          20.0732   70.9656   -8.0548 C.ar    1  UNL1        0.0795
     22 C          19.1277   70.6148   -9.1348 C.ar    1  UNL1        0.2626
     23 H          17.1527   70.2648   -9.4281 H       1  UNL1        0.1734
     24 O          20.9317   71.6090   -0.4111 O.3     1  UNL1       -0.2703
     25 P          21.4590   72.7867    0.5629 P.3     1  UNL1        0.2208
     26 O          22.1802   71.9773    1.7650 O.co2   1  UNL1       -0.4371
     27 O          20.3890   73.7387    1.0131 O.2     1  UNL1       -0.5170
     28 O          22.6710   73.4766   -0.2481 O.3     1  UNL1       -0.2858
     29 O          23.7142   75.3549   -1.2444 O.3     1  UNL1       -0.3226
     30 O          21.4546   73.8885   -4.3767 O.3     1  UNL1       -0.3794
     31 O          20.3441   74.0053   -1.6772 O.3     1  UNL1       -0.3775
     32 O          24.3288   73.4562   -4.3232 O.3     1  UNL1       -0.3792
     33 C          22.2353   73.8094   -3.1842 C.3     1  UNL1        0.1718
     34 C          21.5625   74.6217   -2.0773 C.3     1  UNL1        0.1968
     35 C          23.6242   74.3746   -3.4899 C.3     1  UNL1        0.1723
     36 C          22.4787   74.7509   -0.8596 C.3     1  UNL1        0.2706
     37 C          24.4307   74.5920   -2.2128 C.3     1  UNL1        0.1830
     38 H          20.5673   73.5348   -4.2066 H       1  UNL1        0.2105
     39 H          19.7581   73.9199   -2.4450 H       1  UNL1        0.2106
     40 H          23.8260   73.3090   -5.1396 H       1  UNL1        0.2106
     41 O          26.0651   76.0319   -1.3429 O.co2   1  UNL1       -0.5466
     42 O          26.1627   75.5751   -3.5747 O.co2   1  UNL1       -0.5466
     43 C          25.6334   75.4365   -2.4822 C.2     1  UNL1        0.0799
@<TRIPOS>UNITY_ATOM_ATTR
2 1
charge -1
26 1
charge -1
41 1
charge -1
@<TRIPOS>BOND
     1     1     4    1
     2     1    24    1
     3     1     2    1
     4     1     3    2
     5    25    28    1
     6    25    24    1
     7    25    26    1
     8    25    27    2
     9     6    11    1
    10     6    12    1
    11    29    36    1
    12    29    37    1
    13     7     9    1
    14     7    13    1
    15     8    10    1
    16     8    14    1
    17     4     5    1
    18    28    36    1
    19    30    33    1
    20    30    38    1
    21    31    34    1
    22    31    39    1
    23    32    35    1
    24    32    40    1
    25    41    43   ar
    26    15    19    2
    27    42    43   ar
    28    16    22    2
    29    17    12    1
    30    17    19   ar
    31    17    20   ar
    32    18    19   ar
    33    18    22   ar
    34    18    23    1
    35     9    10    1
    36     9    11    1
    37    10    12    1
    38    11     5    1
    39    33    34    1
    40    33    35    1
    41    34    36    1
    42    35    37    1
    43    37    43    1
    44    20    21   ar
    45    21    22   ar
@<TRIPOS>MOLECULE
*****
 43 45 0 0 0
SMALL
GASTEIGER

@<TRIPOS>ATOM
      1 P          22.8516   71.9847   -3.3383 P.3     1  UNL1        0.2189
      2 O          23.9537   73.1451   -3.5783 O.co2   1  UNL1       -0.4371
      3 O          23.4072   70.5944   -3.2373 O.2     1  UNL1       -0.5170
      4 O          21.7707   72.2254   -4.5179 O.3     1  UNL1       -0.3112
      5 C          21.5708   73.5440   -4.9930 C.3     1  UNL1        0.1811
      6 O          21.3424   72.4436   -7.1178 O.3     1  UNL1       -0.3308
      7 O          22.1416   75.0586   -8.3484 O.3     1  UNL1       -0.3794
      8 O          19.4334   75.0528   -8.6674 O.3     1  UNL1       -0.3779
      9 C          21.3477   74.8112   -7.1878 C.3     1  UNL1        0.1713
     10 C          19.9731   74.3189   -7.5882 C.3     1  UNL1        0.1895
     11 C          21.9254   73.5970   -6.4735 C.3     1  UNL1        0.1764
     12 C          20.2496   72.8689   -7.9473 C.3     1  UNL1        0.2383
     13 H          21.7917   75.8302   -8.8215 H       1  UNL1        0.2105
     14 H          19.2750   75.9688   -8.3884 H       1  UNL1        0.2106
     15 O          19.8391   70.3652   -9.1880 O.2     1  UNL1       -0.2464
     16 O          15.8763   69.6921   -6.9324 O.2     1  UNL1       -0.2670
     17 N          19.1192   72.0186   -7.7025 N.ar    1  UNL1       -0.2551
     18 N          17.8653   70.0328   -8.0641 N.ar    1  UNL1       -0.2743
     19 C          19.0079   70.7803   -8.3782 C.ar    1  UNL1        0.3323
     20 C          18.1373   72.4123   -6.8015 C.ar    1  UNL1        0.0869
     21 C          17.0538   71.6890   -6.5125 C.ar    1  UNL1        0.0795
     22 C          16.8613   70.3827   -7.1758 C.ar    1  UNL1        0.2626
     23 H          17.7649   69.1679   -8.5236 H       1  UNL1        0.1734
     24 O          22.0692   72.4946   -2.0189 O.3     1  UNL1       -0.2703
     25 P          20.7795   71.8939   -1.2511 P.3     1  UNL1        0.2208
     26 O          21.1921   70.3512   -0.9862 O.co2   1  UNL1       -0.4371
     27 O          19.4852   72.0695   -1.9913 O.2     1  UNL1       -0.5170
     28 O          20.8149   72.5812    0.2079 O.3     1  UNL1       -0.2858
     29 O          22.1024   74.4020    1.0056 O.3     1  UNL1       -0.3226
     30 O          21.7412   72.0763    4.4010 O.3     1  UNL1       -0.3794
     31 O          22.2775   70.8397    1.8092 O.3     1  UNL1       -0.3775
     32 O          20.1549   74.4954    4.1138 O.3     1  UNL1       -0.3792
     33 C          21.3319   72.6274    3.1494 C.3     1  UNL1        0.1718
     34 C          22.3374   72.2381    2.0654 C.3     1  UNL1        0.1968
     35 C          21.2734   74.1493    3.2992 C.3     1  UNL1        0.1723
     36 C          22.0610   72.9949    0.7655 C.3     1  UNL1        0.2706
     37 C          21.1221   74.8369    1.9453 C.3     1  UNL1        0.1830
     38 H          21.7856   71.1097    4.3300 H       1  UNL1        0.2105
     39 H          22.4517   70.3533    2.6299 H       1  UNL1        0.2106
     40 H          20.2389   74.0640    4.9785 H       1  UNL1        0.2106
     41 O          20.3100   77.0214    1.6810 O.co2   1  UNL1       -0.5466
     42 O          22.4457   76.7911    2.4459 O.co2   1  UNL1       -0.5466
     43 C          21.3945   76.3014    2.0608 C.2     1  UNL1        0.0799
@<TRIPOS>UNITY_ATOM_ATTR
2 1
charge -1
26 1
charge -1
41 1
charge -1
@<TRIPOS>BOND
     1     1     4    1
     2     1    24    1
     3     1     2    1
     4     1     3    2
     5    25    28    1
     6    25    24    1
     7    25    26    1
     8    25    27    2
     9     6    11    1
    10     6    12    1
    11    29    36    1
    12    29    37    1
    13     7     9    1
    14     7    13    1
    15     8    10    1
    16     8    14    1
    17     4     5    1
    18    28    36    1
    19    30    33    1
    20    30    38    1
    21    31    34    1
    22    31    39    1
    23    32    35    1
    24    32    40    1
    25    41    43   ar
    26    15    19    2
    27    42    43   ar
    28    16    22    2
    29    17    12    1
    30    17    19   ar
    31    17    20   ar
    32    18    19   ar
    33    18    22   ar
    34    18    23    1
    35     9    10    1
    36     9    11    1
    37    10    12    1
    38    11     5    1
    39    33    34    1
    40    33    35    1
    41    34    36    1
    42    35    37    1
    43    37    43    1
    44    20    21   ar
    45    21    22   ar
@<TRIPOS>MOLECULE
*****
 43 45 0 0 0
SMALL
GASTEIGER

@<TRIPOS>ATOM
      1 P          22.6506   72.3046   -2.2496 P.3     1  UNL1        0.2189
      2 O          22.9429   70.7145   -2.3201 O.co2   1  UNL1       -0.4371
      3 O          22.4841   72.8574   -0.8644 O.2     1  UNL1       -0.5170
      4 O          21.3923   72.5129   -3.2451 O.3     1  UNL1       -0.3112
      5 C          20.6181   71.3825   -3.6019 C.3     1  UNL1        0.1811
      6 O          18.6605   72.2141   -4.7218 O.3     1  UNL1       -0.3308
      7 O          17.0871   70.9941   -2.4796 O.3     1  UNL1       -0.3794
      8 O          16.7894   69.1654   -4.4804 O.3     1  UNL1       -0.3779
      9 C          18.2755   70.5192   -3.1126 C.3     1  UNL1        0.1713
     10 C          17.9533   69.9654   -4.4843 C.3     1  UNL1        0.1895
     11 C          19.1415   71.7249   -3.4511 C.3     1  UNL1        0.1764
     12 C          17.7889   71.2329   -5.3055 C.3     1  UNL1        0.2383
     13 H          16.5177   70.2415   -2.2538 H       1  UNL1        0.2105
     14 H          16.9448   68.3711   -3.9448 H       1  UNL1        0.2106
     15 O          16.0150   70.3466   -7.3166 O.2     1  UNL1       -0.2464
     16 O          19.2921   70.5489  -10.5515 O.2     1  UNL1       -0.2670
     17 N          18.1522   71.0452   -6.6816 N.ar    1  UNL1       -0.2551
     18 N          17.6491   70.4472   -8.9256 N.ar    1  UNL1       -0.2743
     19 C          17.1853   70.5962   -7.6120 C.ar    1  UNL1        0.3323
     20 C          19.4520   71.3065   -7.0976 C.ar    1  UNL1        0.0869
     21 C          19.8793   71.1599   -8.3533 C.ar    1  UNL1        0.0795
     22 C          18.9320   70.6938   -9.3872 C.ar    1  UNL1        0.2626
     23 H          16.9946   70.1337   -9.5909 H       1  UNL1        0.1734
     24 O          23.8823   72.9373   -3.0835 O.3     1  UNL1       -0.2703
     25 P          24.0819   74.4042   -3.7332 P.3     1  UNL1        0.2208
     26 O          23.8228   75.4004   -2.4839 O.co2   1  UNL1       -0.4371
     27 O          23.2132   74.6718   -4.9281 O.2     1  UNL1       -0.5170
     28 O          25.6658   74.5132   -4.0191 O.3     1  UNL1       -0.2858
     29 O          27.2039   75.8701   -2.8349 O.3     1  UNL1       -0.3226
     30 O          29.0535   75.5151   -6.5120 O.3     1  UNL1       -0.3794
     31 O          26.1711   75.9587   -6.3410 O.3     1  UNL1       -0.3775
     32 O          30.0293   73.9942   -4.2349 O.3     1  UNL1       -0.3792
     33 C          28.2410   75.0950   -5.4160 C.3     1  UNL1        0.1718
     34 C          27.0717   76.0649   -5.2445 C.3     1  UNL1        0.1968
     35 C          29.1125   75.0841   -4.1581 C.3     1  UNL1        0.1723
     36 C          26.3125   75.7826   -3.9473 C.3     1  UNL1        0.2706
     37 C          28.2684   74.9236   -2.8970 C.3     1  UNL1        0.1830
     38 H          28.5208   75.5298   -7.3227 H       1  UNL1        0.2105
     39 H          26.6462   76.1364   -7.1674 H       1  UNL1        0.2106
     40 H          30.5726   74.0842   -5.0334 H       1  UNL1        0.2106
     41 O          29.6999   74.1316   -1.2161 O.co2   1  UNL1       -0.5466
     42 O          29.1568   76.3455   -1.1620 O.co2   1  UNL1       -0.5466
     43 C          29.0711   75.2410   -1.6775 C.2     1  UNL1        0.0799
@<TRIPOS>UNITY_ATOM_ATTR
2 1
charge -1
26 1
charge -1
41 1
charge -1
@<TRIPOS>BOND
     1     1     4    1
     2     1    24    1
     3     1     2    1
     4     1     3    2
     5    25    28    1
     6    25    24    1
     7    25    26    1
     8    25    27    2
     9     6    11    1
    10     6    12    1
    11    29    36    1
    12    29    37    1
    13     7     9    1
    14     7    13    1
    15     8    10    1
    16     8    14    1
    17     4     5    1
    18    28    36    1
    19    30    33    1
    20    30    38    1
    21    31    34    1
    22    31    39    1
    23    32    35    1
    24    32    40    1
    25    41    43   ar
    26    15    19    2
    27    42    43   ar
    28    16    22    2
    29    17    12    1
    30    17    19   ar
    31    17    20   ar
    32    18    19   ar
    33    18    22   ar
    34    18    23    1
    35     9    10    1
    36     9    11    1
    37    10    12    1
    38    11     5    1
    39    33    34    1
    40    33    35    1
    41    34    36    1
    42    35    37    1
    43    37    43    1
    44    20    21   ar
    45    21    22   ar
@<TRIPOS>MOLECULE
*****
 43 45 0 0 0
SMALL
GASTEIGER

@<TRIPOS>ATOM
      1 P          21.7654   73.0537   -4.6783 P.3     1  UNL1        0.2189
      2 O          22.2180   73.9972   -3.4439 O.co2   1  UNL1       -0.4371
      3 O          22.8463   72.7518   -5.6745 O.2     1  UNL1       -0.5170
      4 O          20.4514   73.7903   -5.2689 O.3     1  UNL1       -0.3112
      5 C          20.3214   75.1885   -5.0880 C.3     1  UNL1        0.1811
      6 O          18.5152   75.3079   -6.6695 O.3     1  UNL1       -0.3308
      7 O          16.6977   75.5329   -4.2951 O.3     1  UNL1       -0.3794
      8 O          16.4267   72.9146   -5.0070 O.3     1  UNL1       -0.3779
      9 C          17.8950   74.7701   -4.4476 C.3     1  UNL1        0.1713
     10 C          17.6396   73.5638   -5.3261 C.3     1  UNL1        0.1895
     11 C          18.8646   75.5822   -5.2954 C.3     1  UNL1        0.1764
     12 C          17.6247   74.1817   -6.7138 C.3     1  UNL1        0.2383
     13 H          16.0627   75.0344   -3.7567 H       1  UNL1        0.2105
     14 H          16.4866   72.5379   -4.1145 H       1  UNL1        0.2106
     15 O          17.3138   74.5956   -9.4902 O.2     1  UNL1       -0.2464
     16 O          19.3975   70.6109  -10.5025 O.2     1  UNL1       -0.2670
     17 N          18.0767   73.2686   -7.7251 N.ar    1  UNL1       -0.2551
     18 N          18.3510   72.6101   -9.9917 N.ar    1  UNL1       -0.2743
     19 C          17.8710   73.5710   -9.0920 C.ar    1  UNL1        0.3323
     20 C          18.7167   72.0905   -7.3599 C.ar    1  UNL1        0.0869
     21 C          19.1688   71.1843   -8.2290 C.ar    1  UNL1        0.0795
     22 C          18.9931   71.4236   -9.6765 C.ar    1  UNL1        0.2626
     23 H          18.2175   72.7976  -10.9490 H       1  UNL1        0.1734
     24 O          21.1516   71.7553   -3.9366 O.3     1  UNL1       -0.2703
     25 P          21.7994   70.7481   -2.8504 P.3     1  UNL1        0.2208
     26 O          23.3828   70.8182   -3.1793 O.co2   1  UNL1       -0.4371
     27 O          21.2233   69.3620   -2.8756 O.2     1  UNL1       -0.5170
     28 O          21.6425   71.5128   -1.4386 O.3     1  UNL1       -0.2858
     29 O          23.3268   72.8321   -0.4228 O.3     1  UNL1       -0.3226
     30 O          21.0506   71.7168    2.8396 O.3     1  UNL1       -0.3794
     31 O          21.6762   69.7842    0.7401 O.3     1  UNL1       -0.3775
     32 O          20.8484   74.4134    1.7726 O.3     1  UNL1       -0.3792
     33 C          21.2913   72.0638    1.4759 C.3     1  UNL1        0.1718
     34 C          22.2759   71.0689    0.8609 C.3     1  UNL1        0.1968
     35 C          21.8741   73.4784    1.4437 C.3     1  UNL1        0.1723
     36 C          22.7345   71.5363   -0.5211 C.3     1  UNL1        0.2706
     37 C          22.4237   73.8231    0.0625 C.3     1  UNL1        0.1830
     38 H          20.6799   70.8213    2.8850 H       1  UNL1        0.2105
     39 H          21.3826   69.4815    1.6133 H       1  UNL1        0.2106
     40 H          20.4900   74.2050    2.6495 H       1  UNL1        0.2106
     41 O          23.6775   75.2933    1.3922 O.co2   1  UNL1       -0.5466
     42 O          23.5687   75.7456   -0.8400 O.co2   1  UNL1       -0.5466
     43 C          23.2728   75.0511    0.1208 C.2     1  UNL1        0.0799
@<TRIPOS>UNITY_ATOM_ATTR
2 1
charge -1
26 1
charge -1
41 1
charge -1
@<TRIPOS>BOND
     1     1     4    1
     2     1    24    1
     3     1     2    1
     4     1     3    2
     5    25    28    1
     6    25    24    1
     7    25    26    1
     8    25    27    2
     9     6    11    1
    10     6    12    1
    11    29    36    1
    12    29    37    1
    13     7     9    1
    14     7    13    1
    15     8    10    1
    16     8    14    1
    17     4     5    1
    18    28    36    1
    19    30    33    1
    20    30    38    1
    21    31    34    1
    22    31    39    1
    23    32    35    1
    24    32    40    1
    25    41    43   ar
    26    15    19    2
    27    42    43   ar
    28    16    22    2
    29    17    12    1
    30    17    19   ar
    31    17    20   ar
    32    18    19   ar
    33    18    22   ar
    34    18    23    1
    35     9    10    1
    36     9    11    1
    37    10    12    1
    38    11     5    1
    39    33    34    1
    40    33    35    1
    41    34    36    1
    42    35    37    1
    43    37    43    1
    44    20    21   ar
    45    21    22   ar
@<TRIPOS>MOLECULE
*****
 43 45 0 0 0
SMALL
GASTEIGER

@<TRIPOS>ATOM
      1 P          23.0200   72.8198   -3.1343 P.3     1  UNL1        0.2189
      2 O          23.0413   71.4078   -2.3440 O.co2   1  UNL1       -0.4371
      3 O          24.2329   73.0941   -3.9742 O.2     1  UNL1       -0.5170
      4 O          22.7054   73.9073   -1.9783 O.3     1  UNL1       -0.3112
      5 C          23.2527   73.7010   -0.6890 C.3     1  UNL1        0.1811
      6 O          22.7011   73.1423    1.5829 O.3     1  UNL1       -0.3308
      7 O          19.9535   74.1774    0.9742 O.3     1  UNL1       -0.3794
      8 O          21.0849   76.2534    2.3330 O.3     1  UNL1       -0.3779
      9 C          21.2195   74.6482    0.5116 C.3     1  UNL1        0.1713
     10 C          21.9411   75.3860    1.6194 C.3     1  UNL1        0.1895
     11 C          22.1196   73.4395    0.2949 C.3     1  UNL1        0.1764
     12 C          22.4595   74.2423    2.4744 C.3     1  UNL1        0.2383
     13 H          19.3610   74.9321    1.1199 H       1  UNL1        0.2105
     14 H          20.7821   76.9642    1.7455 H       1  UNL1        0.2106
     15 O          23.0847   73.4626    5.1159 O.2     1  UNL1       -0.2464
     16 O          27.1812   75.5696    4.9628 O.2     1  UNL1       -0.2670
     17 N          23.6825   74.5735    3.1494 N.ar    1  UNL1       -0.2551
     18 N          25.1239   74.5136    5.0375 N.ar    1  UNL1       -0.2743
     19 C          23.8978   74.1327    4.4766 C.ar    1  UNL1        0.3323
     20 C          24.6530   75.3247    2.4977 C.ar    1  UNL1        0.0869
     21 C          25.8169   75.6799    3.0454 C.ar    1  UNL1        0.0795
     22 C          26.1200   75.2604    4.4294 C.ar    1  UNL1        0.2626
     23 H          25.2957   74.2201    5.9614 H       1  UNL1        0.1734
     24 O          21.6311   72.7535   -3.9586 O.3     1  UNL1       -0.2703
     25 P          21.2358   73.3217   -5.4196 P.3     1  UNL1        0.2208
     26 O          22.3246   72.6254   -6.3942 O.co2   1  UNL1       -0.4371
     27 O          21.1957   74.8199   -5.5075 O.2     1  UNL1       -0.5170
     28 O          19.8424   72.5924   -5.7790 O.3     1  UNL1       -0.2858
     29 O          19.9457   70.3568   -5.0038 O.3     1  UNL1       -0.3226
     30 O          16.1962   70.4741   -6.7346 O.3     1  UNL1       -0.3794
     31 O          18.4740   71.7471   -8.0481 O.3     1  UNL1       -0.3775
     32 O          16.4703   70.5357   -3.8412 O.3     1  UNL1       -0.3792
     33 C          17.3296   70.9995   -6.0438 C.3     1  UNL1        0.1718
     34 C          18.5707   70.8752   -6.9279 C.3     1  UNL1        0.1968
     35 C          17.5120   70.1958   -4.7543 C.3     1  UNL1        0.1723
     36 C          19.8384   71.2129   -6.1419 C.3     1  UNL1        0.2706
     37 C          18.8553   70.4963   -4.0958 C.3     1  UNL1        0.1830
     38 H          16.0607   70.9695   -7.5577 H       1  UNL1        0.2105
     39 H          17.6717   71.5387   -8.5513 H       1  UNL1        0.2106
     40 H          15.6099   70.3493   -4.2482 H       1  UNL1        0.2106
     41 O          20.5009   69.2521   -2.9797 O.co2   1  UNL1       -0.5466
     42 O          18.3391   68.9420   -2.3240 O.co2   1  UNL1       -0.5466
     43 C          19.1664   69.4858   -3.0402 C.2     1  UNL1        0.0799
@<TRIPOS>UNITY_ATOM_ATTR
2 1
charge -1
26 1
charge -1
41 1
charge -1
@<TRIPOS>BOND
     1     1     4    1
     2     1    24    1
     3     1     2    1
     4     1     3    2
     5    25    28    1
     6    25    24    1
     7    25    26    1
     8    25    27    2
     9     6    11    1
    10     6    12    1
    11    29    36    1
    12    29    37    1
    13     7     9    1
    14     7    13    1
    15     8    10    1
    16     8    14    1
    17     4     5    1
    18    28    36    1
    19    30    33    1
    20    30    38    1
    21    31    34    1
    22    31    39    1
    23    32    35    1
    24    32    40    1
    25    41    43   ar
    26    15    19    2
    27    42    43   ar
    28    16    22    2
    29    17    12    1
    30    17    19   ar
    31    17    20   ar
    32    18    19   ar
    33    18    22   ar
    34    18    23    1
    35     9    10    1
    36     9    11    1
    37    10    12    1
    38    11     5    1
    39    33    34    1
    40    33    35    1
    41    34    36    1
    42    35    37    1
    43    37    43    1
    44    20    21   ar
    45    21    22   ar
@<TRIPOS>MOLECULE
*****
 43 45 0 0 0
SMALL
GASTEIGER

@<TRIPOS>ATOM
      1 P          22.1905   73.4043   -5.3491 P.3     1  UNL1        0.2189
      2 O          22.2431   74.9792   -5.7174 O.co2   1  UNL1       -0.4371
      3 O          23.4727   72.8351   -4.8163 O.2     1  UNL1       -0.5170
      4 O          21.6186   72.7096   -6.6938 O.3     1  UNL1       -0.3112
      5 C          20.7725   73.4675   -7.5389 C.3     1  UNL1        0.1811
      6 O          19.9832   71.2370   -7.9628 O.3     1  UNL1       -0.3308
      7 O          18.4729   72.4101  -10.2724 O.3     1  UNL1       -0.3794
      8 O          16.5394   72.1483   -8.3675 O.3     1  UNL1       -0.3779
      9 C          18.7407   72.9735   -8.9882 C.3     1  UNL1        0.1713
     10 C          17.8737   72.3153   -7.9359 C.3     1  UNL1        0.1895
     11 C          20.1379   72.5395   -8.5668 C.3     1  UNL1        0.1764
     12 C          18.5886   70.9923   -7.7207 C.3     1  UNL1        0.2383
     13 H          17.5853   72.6736  -10.5628 H       1  UNL1        0.2105
     14 H          16.1278   73.0187   -8.4899 H       1  UNL1        0.2106
     15 O          16.1964   69.8810   -6.7113 O.2     1  UNL1       -0.2464
     16 O          18.0842   69.1097   -2.5778 O.2     1  UNL1       -0.2670
     17 N          18.4273   70.4933   -6.3843 N.ar    1  UNL1       -0.2551
     18 N          17.1386   69.4988   -4.6532 N.ar    1  UNL1       -0.2743
     19 C          17.1836   69.9551   -5.9772 C.ar    1  UNL1        0.3323
     20 C          19.4931   70.5382   -5.4938 C.ar    1  UNL1        0.0869
     21 C          19.4350   70.0993   -4.2349 C.ar    1  UNL1        0.0795
     22 C          18.1715   69.5230   -3.7301 C.ar    1  UNL1        0.2626
     23 H          16.2826   69.1217   -4.3462 H       1  UNL1        0.1734
     24 O          20.9383   73.3113   -4.3312 O.3     1  UNL1       -0.2703
     25 P          20.7371   73.9004   -2.8392 P.3     1  UNL1        0.2208
     26 O          19.1341   74.0991   -2.7330 O.co2   1  UNL1       -0.4371
     27 O          21.5342   75.1403   -2.5541 O.2     1  UNL1       -0.5170
     28 O          21.0591   72.6580   -1.8618 O.3     1  UNL1       -0.2858
     29 O          22.9349   73.1828   -0.5146 O.3     1  UNL1       -0.3226
     30 O          22.1032   69.3141    0.6726 O.3     1  UNL1       -0.3794
     31 O          21.9901   70.0532   -2.1515 O.3     1  UNL1       -0.3775
     32 O          21.3854   71.5518    2.3839 O.3     1  UNL1       -0.3792
     33 C          21.7986   70.6257    0.1983 C.3     1  UNL1        0.1718
     34 C          22.5282   70.8748   -1.1219 C.3     1  UNL1        0.1968
     35 C          22.2574   71.6301    1.2578 C.3     1  UNL1        0.1723
     36 C          22.4126   72.3405   -1.5428 C.3     1  UNL1        0.2706
     37 C          22.2323   73.0578    0.7198 C.3     1  UNL1        0.1830
     38 H          21.8205   68.6587    0.0155 H       1  UNL1        0.2105
     39 H          22.0600   69.1217   -1.8910 H       1  UNL1        0.2106
     40 H          21.3921   70.6479    2.7358 H       1  UNL1        0.2106
     41 O          23.7423   74.8426    0.9096 O.co2   1  UNL1       -0.5466
     42 O          22.9190   73.9663    2.8469 O.co2   1  UNL1       -0.5466
     43 C          22.9807   73.9796    1.6267 C.2     1  UNL1        0.0799
@<TRIPOS>UNITY_ATOM_ATTR
2 1
charge -1
26 1
charge -1
41 1
charge -1
@<TRIPOS>BOND
     1     1     4    1
     2     1    24    1
     3     1     2    1
     4     1     3    2
     5    25    28    1
     6    25    24    1
     7    25    26    1
     8    25    27    2
     9     6    11    1
    10     6    12    1
    11    29    36    1
    12    29    37    1
    13     7     9    1
    14     7    13    1
    15     8    10    1
    16     8    14    1
    17     4     5    1
    18    28    36    1
    19    30    33    1
    20    30    38    1
    21    31    34    1
    22    31    39    1
    23    32    35    1
    24    32    40    1
    25    41    43   ar
    26    15    19    2
    27    42    43   ar
    28    16    22    2
    29    17    12    1
    30    17    19   ar
    31    17    20   ar
    32    18    19   ar
    33    18    22   ar
    34    18    23    1
    35     9    10    1
    36     9    11    1
    37    10    12    1
    38    11     5    1
    39    33    34    1
    40    33    35    1
    41    34    36    1
    42    35    37    1
    43    37    43    1
    44    20    21   ar
    45    21    22   ar
@<TRIPOS>MOLECULE
*****
 43 45 0 0 0
SMALL
GASTEIGER

@<TRIPOS>ATOM
      1 P          22.5622   75.2006   -7.2430 P.3     1  UNL1        0.2189
      2 O          22.0013   76.4600   -6.3956 O.co2   1  UNL1       -0.4371
      3 O          23.8768   75.4331   -7.9283 O.2     1  UNL1       -0.5170
      4 O          21.3272   74.8014   -8.2091 O.3     1  UNL1       -0.3112
      5 C          20.2498   74.0651   -7.6599 C.3     1  UNL1        0.1811
      6 O          19.6556   71.8080   -8.2343 O.3     1  UNL1       -0.3308
      7 O          17.9570   73.0030  -10.3972 O.3     1  UNL1       -0.3794
      8 O          16.1293   72.4142   -8.4611 O.3     1  UNL1       -0.3779
      9 C          18.2195   73.4906   -9.0812 C.3     1  UNL1        0.1713
     10 C          17.4576   72.6748   -8.0584 C.3     1  UNL1        0.1895
     11 C          19.6659   73.1613   -8.7381 C.3     1  UNL1        0.1764
     12 C          18.2999   71.4136   -7.9700 C.3     1  UNL1        0.2383
     13 H          17.0384   73.2017  -10.6388 H       1  UNL1        0.2105
     14 H          15.6343   73.2481   -8.5019 H       1  UNL1        0.2106
     15 O          16.0807   69.9611   -6.9994 O.2     1  UNL1       -0.2464
     16 O          18.1655   69.1098   -2.9778 O.2     1  UNL1       -0.2670
     17 N          18.2361   70.8017   -6.6729 N.ar    1  UNL1       -0.2551
     18 N          17.1208   69.5394   -4.9970 N.ar    1  UNL1       -0.2743
     19 C          17.0744   70.0945   -6.2825 C.ar    1  UNL1        0.3323
     20 C          19.3157   70.9037   -5.8040 C.ar    1  UNL1        0.0869
     21 C          19.3452   70.3691   -4.5817 C.ar    1  UNL1        0.0795
     22 C          18.1711   69.6146   -4.0965 C.ar    1  UNL1        0.2626
     23 H          16.3227   69.0440   -4.7021 H       1  UNL1        0.1734
     24 O          22.5725   74.0061   -6.1540 O.3     1  UNL1       -0.2703
     25 P          22.9262   74.0110   -4.5765 P.3     1  UNL1        0.2208
     26 O          23.5415   72.5341   -4.3308 O.co2   1  UNL1       -0.4371
     27 O          21.7666   74.3538   -3.6865 O.2     1  UNL1       -0.5170
     28 O          24.1893   75.0057   -4.4433 O.3     1  UNL1       -0.2858
     29 O          26.4420   74.5201   -3.8968 O.3     1  UNL1       -0.3226
     30 O          25.9951   78.3150   -2.3262 O.3     1  UNL1       -0.3794
     31 O          23.8795   76.3247   -2.0142 O.3     1  UNL1       -0.3775
     32 O          27.4600   77.9256   -4.8068 O.3     1  UNL1       -0.3792
     33 C          25.7560   77.2480   -3.2440 C.3     1  UNL1        0.1718
     34 C          25.1900   76.0432   -2.4919 C.3     1  UNL1        0.1968
     35 C          27.0878   76.8853   -3.9048 C.3     1  UNL1        0.1723
     36 C          25.1368   74.8102   -3.3950 C.3     1  UNL1        0.2706
     37 C          26.9850   75.5775   -4.6842 C.3     1  UNL1        0.1830
     38 H          25.1626   78.5626   -1.8939 H       1  UNL1        0.2105
     39 H          23.9058   77.1062   -1.4407 H       1  UNL1        0.2106
     40 H          27.5288   78.7636   -4.3232 H       1  UNL1        0.2106
     41 O          28.4217   74.8120   -6.3728 O.co2   1  UNL1       -0.5466
     42 O          29.2598   74.8982   -4.2541 O.co2   1  UNL1       -0.5466
     43 C          28.3420   75.0657   -5.0431 C.2     1  UNL1        0.0799
@<TRIPOS>UNITY_ATOM_ATTR
2 1
charge -1
26 1
charge -1
41 1
charge -1
@<TRIPOS>BOND
     1     1     4    1
     2     1    24    1
     3     1     2    1
     4     1     3    2
     5    25    28    1
     6    25    24    1
     7    25    26    1
     8    25    27    2
     9     6    11    1
    10     6    12    1
    11    29    36    1
    12    29    37    1
    13     7     9    1
    14     7    13    1
    15     8    10    1
    16     8    14    1
    17     4     5    1
    18    28    36    1
    19    30    33    1
    20    30    38    1
    21    31    34    1
    22    31    39    1
    23    32    35    1
    24    32    40    1
    25    41    43   ar
    26    15    19    2
    27    42    43   ar
    28    16    22    2
    29    17    12    1
    30    17    19   ar
    31    17    20   ar
    32    18    19   ar
    33    18    22   ar
    34    18    23    1
    35     9    10    1
    36     9    11    1
    37    10    12    1
    38    11     5    1
    39    33    34    1
    40    33    35    1
    41    34    36    1
    42    35    37    1
    43    37    43    1
    44    20    21   ar
    45    21    22   ar
@<TRIPOS>MOLECULE
*****
 43 45 0 0 0
SMALL
GASTEIGER

@<TRIPOS>ATOM
      1 P          21.6473   70.3482   -0.8614 P.3     1  UNL1        0.2189
      2 O          23.0999   70.9069   -1.3051 O.co2   1  UNL1       -0.4371
      3 O          21.6377   69.5447    0.4059 O.2     1  UNL1       -0.5170
      4 O          21.1048   69.5853   -2.1811 O.3     1  UNL1       -0.3112
      5 C          20.7825   70.3569   -3.3236 C.3     1  UNL1        0.1811
      6 O          19.1421   71.8448   -4.2579 O.3     1  UNL1       -0.3308
      7 O          17.2008   70.6146   -2.3319 O.3     1  UNL1       -0.3794
      8 O          16.5970   69.3540   -4.6733 O.3     1  UNL1       -0.3779
      9 C          18.2787   70.0044   -3.0420 C.3     1  UNL1        0.1713
     10 C          17.9144   69.8331   -4.5016 C.3     1  UNL1        0.1895
     11 C          19.4214   71.0081   -3.1146 C.3     1  UNL1        0.1764
     12 C          18.0993   71.2415   -5.0402 C.3     1  UNL1        0.2383
     13 H          16.4587   69.9921   -2.2727 H       1  UNL1        0.2105
     14 H          16.5308   68.4545   -4.3149 H       1  UNL1        0.2106
     15 O          20.0746   72.9413   -6.1289 O.2     1  UNL1       -0.2464
     16 O          19.5024   71.1995  -10.3578 O.2     1  UNL1       -0.2670
     17 N          18.4863   71.2532   -6.4225 N.ar    1  UNL1       -0.2551
     18 N          19.7870   72.0729   -8.2343 N.ar    1  UNL1       -0.2743
     19 C          19.4895   72.1465   -6.8671 C.ar    1  UNL1        0.3323
     20 C          17.8764   70.3861   -7.3209 C.ar    1  UNL1        0.0869
     21 C          18.1706   70.3274   -8.6212 C.ar    1  UNL1        0.0795
     22 C          19.2073   71.2280   -9.1668 C.ar    1  UNL1        0.2626
     23 H          20.4809   72.6866   -8.5677 H       1  UNL1        0.1734
     24 O          20.7418   71.6864   -0.8172 O.3     1  UNL1       -0.2703
     25 P          21.1334   73.2231   -0.5028 P.3     1  UNL1        0.2208
     26 O          19.7018   73.9787   -0.5109 O.co2   1  UNL1       -0.4371
     27 O          22.1456   73.8059   -1.4461 O.2     1  UNL1       -0.5170
     28 O          21.5844   73.2219    1.0461 O.3     1  UNL1       -0.2858
     29 O          20.5926   74.5141    2.7653 O.3     1  UNL1       -0.3226
     30 O          24.4002   73.9163    4.2530 O.3     1  UNL1       -0.3794
     31 O          23.9961   74.5530    1.4306 O.3     1  UNL1       -0.3775
     32 O          22.1591   72.4116    5.3320 O.3     1  UNL1       -0.3792
     33 C          23.2220   73.5870    3.5172 C.3     1  UNL1        0.1718
     34 C          22.9872   74.6366    2.4305 C.3     1  UNL1        0.1968
     35 C          22.0454   73.5611    4.4953 C.3     1  UNL1        0.1723
     36 C          21.6188   74.4480    1.7743 C.3     1  UNL1        0.2706
     37 C          20.7102   73.4984    3.7591 C.3     1  UNL1        0.1830
     38 H          25.1614   73.9387    3.6518 H       1  UNL1        0.2105
     39 H          24.8671   74.6715    1.8401 H       1  UNL1        0.2106
     40 H          23.0048   72.4392    5.8062 H       1  UNL1        0.2106
     41 O          20.0279   73.9546    5.9563 O.co2   1  UNL1       -0.5466
     42 O          18.4075   73.9060    4.3529 O.co2   1  UNL1       -0.5466
     43 C          19.5786   73.8031    4.6858 C.2     1  UNL1        0.0799
@<TRIPOS>UNITY_ATOM_ATTR
2 1
charge -1
26 1
charge -1
41 1
charge -1
@<TRIPOS>BOND
     1     1     4    1
     2     1    24    1
     3     1     2    1
     4     1     3    2
     5    25    28    1
     6    25    24    1
     7    25    26    1
     8    25    27    2
     9     6    11    1
    10     6    12    1
    11    29    36    1
    12    29    37    1
    13     7     9    1
    14     7    13    1
    15     8    10    1
    16     8    14    1
    17     4     5    1
    18    28    36    1
    19    30    33    1
    20    30    38    1
    21    31    34    1
    22    31    39    1
    23    32    35    1
    24    32    40    1
    25    41    43   ar
    26    15    19    2
    27    42    43   ar
    28    16    22    2
    29    17    12    1
    30    17    19   ar
    31    17    20   ar
    32    18    19   ar
    33    18    22   ar
    34    18    23    1
    35     9    10    1
    36     9    11    1
    37    10    12    1
    38    11     5    1
    39    33    34    1
    40    33    35    1
    41    34    36    1
    42    35    37    1
    43    37    43    1
    44    20    21   ar
    45    21    22   ar
@<TRIPOS>MOLECULE
*****
 43 45 0 0 0
SMALL
GASTEIGER

@<TRIPOS>ATOM
      1 P          23.1730   74.2237   -4.2599 P.3     1  UNL1        0.2189
      2 O          23.8707   72.7930   -3.9682 O.co2   1  UNL1       -0.4371
      3 O          24.0811   75.2632   -4.8485 O.2     1  UNL1       -0.5170
      4 O          22.4802   74.6127   -2.8505 O.3     1  UNL1       -0.3112
      5 C          21.1430   75.0777   -2.8599 C.3     1  UNL1        0.1811
      6 O          20.3858   74.4680   -0.6616 O.3     1  UNL1       -0.3308
      7 O          21.4446   77.1255    0.2374 O.3     1  UNL1       -0.3794
      8 O          23.4062   75.4042    1.0282 O.3     1  UNL1       -0.3779
      9 C          21.9649   76.2316   -0.7467 C.3     1  UNL1        0.1713
     10 C          22.6112   75.0360   -0.0794 C.3     1  UNL1        0.1895
     11 C          20.7875   75.5940   -1.4716 C.3     1  UNL1        0.1764
     12 C          21.4029   74.2055    0.3182 C.3     1  UNL1        0.2383
     13 H          22.1785   77.5451    0.7139 H       1  UNL1        0.2105
     14 H          24.1620   75.9309    0.7229 H       1  UNL1        0.2106
     15 O          22.5825   72.8370    2.4890 O.2     1  UNL1       -0.2464
     16 O          22.4423   68.8051    0.2601 O.2     1  UNL1       -0.2670
     17 N          21.6858   72.7981    0.3320 N.ar    1  UNL1       -0.2551
     18 N          22.5125   70.8304    1.3764 N.ar    1  UNL1       -0.2743
     19 C          22.2804   72.2087    1.4727 C.ar    1  UNL1        0.3323
     20 C          21.3738   72.0171   -0.7742 C.ar    1  UNL1        0.0869
     21 C          21.6009   70.7044   -0.8512 C.ar    1  UNL1        0.0795
     22 C          22.2202   70.0116    0.2977 C.ar    1  UNL1        0.2626
     23 H          22.9275   70.3981    2.1576 H       1  UNL1        0.1734
     24 O          21.9103   73.8289   -5.1887 O.3     1  UNL1       -0.2703
     25 P          21.5113   74.2851   -6.6875 P.3     1  UNL1        0.2208
     26 O          22.7736   73.7918   -7.5727 O.co2   1  UNL1       -0.4371
     27 O          21.1947   75.7464   -6.8226 O.2     1  UNL1       -0.5170
     28 O          20.3075   73.2975   -7.1092 O.3     1  UNL1       -0.2858
     29 O          19.7220   71.1376   -6.3338 O.3     1  UNL1       -0.3226
     30 O          18.6446   70.9217  -10.3163 O.3     1  UNL1       -0.3794
     31 O          21.1463   72.2072   -9.5266 O.3     1  UNL1       -0.3775
     32 O          16.6047   71.2227   -8.2671 O.3     1  UNL1       -0.3792
     33 C          18.8563   71.5584   -9.0562 C.3     1  UNL1        0.1718
     34 C          20.3273   71.4314   -8.6594 C.3     1  UNL1        0.1968
     35 C          17.9644   70.8682   -8.0219 C.3     1  UNL1        0.1723
     36 C          20.5474   71.8956   -7.2189 C.3     1  UNL1        0.2706
     37 C          18.3297   71.2895   -6.6015 C.3     1  UNL1        0.1830
     38 H          19.2013   71.3438  -10.9896 H       1  UNL1        0.2105
     39 H          21.0114   71.9181  -10.4423 H       1  UNL1        0.2106
     40 H          16.3595   70.9600   -9.1681 H       1  UNL1        0.2106
     41 O          18.4194   70.3518   -4.4534 O.co2   1  UNL1       -0.5466
     42 O          16.6626   69.7523   -5.7775 O.co2   1  UNL1       -0.5466
     43 C          17.6943   70.3821   -5.5989 C.2     1  UNL1        0.0799
@<TRIPOS>UNITY_ATOM_ATTR
2 1
charge -1
26 1
charge -1
41 1
charge -1
@<TRIPOS>BOND
     1     1     4    1
     2     1    24    1
     3     1     2    1
     4     1     3    2
     5    25    28    1
     6    25    24    1
     7    25    26    1
     8    25    27    2
     9     6    11    1
    10     6    12    1
    11    29    36    1
    12    29    37    1
    13     7     9    1
    14     7    13    1
    15     8    10    1
    16     8    14    1
    17     4     5    1
    18    28    36    1
    19    30    33    1
    20    30    38    1
    21    31    34    1
    22    31    39    1
    23    32    35    1
    24    32    40    1
    25    41    43   ar
    26    15    19    2
    27    42    43   ar
    28    16    22    2
    29    17    12    1
    30    17    19   ar
    31    17    20   ar
    32    18    19   ar
    33    18    22   ar
    34    18    23    1
    35     9    10    1
    36     9    11    1
    37    10    12    1
    38    11     5    1
    39    33    34    1
    40    33    35    1
    41    34    36    1
    42    35    37    1
    43    37    43    1
    44    20    21   ar
    45    21    22   ar
@<TRIPOS>MOLECULE
*****
 43 45 0 0 0
SMALL
GASTEIGER

@<TRIPOS>ATOM
      1 P          22.0465   71.5498   -3.0566 P.3     1  UNL1        0.2189
      2 O          20.6805   70.7312   -2.7683 O.co2   1  UNL1       -0.4371
      3 O          23.2308   70.7002   -3.4137 O.2     1  UNL1       -0.5170
      4 O          22.2220   72.4858   -1.7486 O.3     1  UNL1       -0.3112
      5 C          21.6244   73.7693   -1.7506 C.3     1  UNL1        0.1811
      6 O          20.5961   73.1283    0.3253 O.3     1  UNL1       -0.3308
      7 O          18.3218   74.9162   -0.4638 O.3     1  UNL1       -0.3794
      8 O          19.6971   76.4536    1.3197 O.3     1  UNL1       -0.3779
      9 C          19.7220   75.0826   -0.6883 C.3     1  UNL1        0.1713
     10 C          20.4162   75.4749    0.5987 C.3     1  UNL1        0.1895
     11 C          20.3194   73.7102   -0.9671 C.3     1  UNL1        0.1764
     12 C          20.4934   74.1471    1.3328 C.3     1  UNL1        0.2383
     13 H          17.9180   75.7799   -0.2835 H       1  UNL1        0.2105
     14 H          19.6766   77.2798    0.8109 H       1  UNL1        0.2106
     15 O          21.0048   72.0043    3.1001 O.2     1  UNL1       -0.2464
     16 O          24.9085   73.9378    4.6055 O.2     1  UNL1       -0.2670
     17 N          21.6360   74.0649    2.1980 N.ar    1  UNL1       -0.2551
     18 N          22.9480   72.9698    3.8489 N.ar    1  UNL1       -0.2743
     19 C          21.7989   72.9453    3.0477 C.ar    1  UNL1        0.3323
     20 C          22.5805   75.0842    2.1983 C.ar    1  UNL1        0.0869
     21 C          23.6708   75.0934    2.9676 C.ar    1  UNL1        0.0795
     22 C          23.9154   73.9610    3.8848 C.ar    1  UNL1        0.2626
     23 H          23.0820   72.2019    4.4504 H       1  UNL1        0.1734
     24 O          21.6039   72.6028   -4.2003 O.3     1  UNL1       -0.2703
     25 P          20.1413   73.1026   -4.6743 P.3     1  UNL1        0.2208
     26 O          20.3218   74.7062   -4.8018 O.co2   1  UNL1       -0.4371
     27 O          19.0217   72.6764   -3.7694 O.2     1  UNL1       -0.5170
     28 O          20.0055   72.5859   -6.1964 O.3     1  UNL1       -0.2858
     29 O          19.0611   70.4411   -5.8537 O.3     1  UNL1       -0.3226
     30 O          18.6387   70.9029   -9.9374 O.3     1  UNL1       -0.3794
     31 O          21.1040   71.7228   -8.6015 O.3     1  UNL1       -0.3775
     32 O          16.3354   71.2018   -8.1891 O.3     1  UNL1       -0.3792
     33 C          18.7096   71.3324   -8.5778 C.3     1  UNL1        0.1718
     34 C          20.0712   70.9565   -7.9927 C.3     1  UNL1        0.1968
     35 C          17.5874   70.6377   -7.8032 C.3     1  UNL1        0.1723
     36 C          20.1012   71.1915   -6.4819 C.3     1  UNL1        0.2706
     37 C          17.7582   70.8137   -6.2971 C.3     1  UNL1        0.1830
     38 H          19.3427   71.3315  -10.4492 H       1  UNL1        0.2105
     39 H          21.0906   71.5786   -9.5604 H       1  UNL1        0.2106
     40 H          16.2144   71.0965   -9.1457 H       1  UNL1        0.2106
     41 O          16.1164   69.1422   -6.4071 O.co2   1  UNL1       -0.5466
     42 O          16.8198   69.7743   -4.3323 O.co2   1  UNL1       -0.5466
     43 C          16.8681   69.8754   -5.5491 C.2     1  UNL1        0.0799
@<TRIPOS>UNITY_ATOM_ATTR
2 1
charge -1
26 1
charge -1
41 1
charge -1
@<TRIPOS>BOND
     1     1     4    1
     2     1    24    1
     3     1     2    1
     4     1     3    2
     5    25    28    1
     6    25    24    1
     7    25    26    1
     8    25    27    2
     9     6    11    1
    10     6    12    1
    11    29    36    1
    12    29    37    1
    13     7     9    1
    14     7    13    1
    15     8    10    1
    16     8    14    1
    17     4     5    1
    18    28    36    1
    19    30    33    1
    20    30    38    1
    21    31    34    1
    22    31    39    1
    23    32    35    1
    24    32    40    1
    25    41    43   ar
    26    15    19    2
    27    42    43   ar
    28    16    22    2
    29    17    12    1
    30    17    19   ar
    31    17    20   ar
    32    18    19   ar
    33    18    22   ar
    34    18    23    1
    35     9    10    1
    36     9    11    1
    37    10    12    1
    38    11     5    1
    39    33    34    1
    40    33    35    1
    41    34    36    1
    42    35    37    1
    43    37    43    1
    44    20    21   ar
    45    21    22   ar
@<TRIPOS>MOLECULE
*****
 43 45 0 0 0
SMALL
GASTEIGER

@<TRIPOS>ATOM
      1 P          26.1884   75.2505   -3.4975 P.3     1  UNL1        0.2189
      2 O          25.2274   76.5472   -3.6156 O.co2   1  UNL1       -0.4371
      3 O          26.9592   75.1479   -2.2141 O.2     1  UNL1       -0.5170
      4 O          27.0772   75.3013   -4.8486 O.3     1  UNL1       -0.3112
      5 C          28.4704   75.0697   -4.7505 C.3     1  UNL1        0.1811
      6 O          30.5774   75.4186   -5.8536 O.3     1  UNL1       -0.3308
      7 O          28.9813   75.8996   -8.3462 O.3     1  UNL1       -0.3794
      8 O          29.8494   73.3361   -8.6798 O.3     1  UNL1       -0.3779
      9 C          28.7365   74.9829   -7.2792 C.3     1  UNL1        0.1713
     10 C          29.6974   73.8157   -7.3602 C.3     1  UNL1        0.1895
     11 C          29.1579   75.6528   -5.9784 C.3     1  UNL1        0.1764
     12 C          30.9762   74.4209   -6.8070 C.3     1  UNL1        0.2383
     13 H          28.7198   75.4937   -9.1879 H       1  UNL1        0.2105
     14 H          29.0085   72.9607   -8.9863 H       1  UNL1        0.2106
     15 O          32.3750   72.3556   -8.1315 O.2     1  UNL1       -0.2464
     16 O          34.1145   70.7490   -4.1772 O.2     1  UNL1       -0.2670
     17 N          31.8021   73.4491   -6.1479 N.ar    1  UNL1       -0.2551
     18 N          33.2392   71.5568   -6.1607 N.ar    1  UNL1       -0.2743
     19 C          32.4612   72.4525   -6.9059 C.ar    1  UNL1        0.3323
     20 C          31.9539   73.4898   -4.7673 C.ar    1  UNL1        0.0869
     21 C          32.6990   72.6292   -4.0709 C.ar    1  UNL1        0.0795
     22 C          33.4203   71.5567   -4.7871 C.ar    1  UNL1        0.2626
     23 H          33.7061   70.8528   -6.6663 H       1  UNL1        0.1734
     24 O          25.1756   74.0216   -3.7747 O.3     1  UNL1       -0.2703
     25 P          23.5728   73.9066   -3.5975 P.3     1  UNL1        0.2208
     26 O          23.1212   73.0265   -4.8789 O.co2   1  UNL1       -0.4371
     27 O          22.8702   75.2278   -3.4762 O.2     1  UNL1       -0.5170
     28 O          23.3701   72.9222   -2.3356 O.3     1  UNL1       -0.2858
     29 O          22.6881   70.8471   -1.4202 O.3     1  UNL1       -0.3226
     30 O          19.3268   73.1742   -0.8246 O.3     1  UNL1       -0.3794
     31 O          20.8076   73.3273   -3.3382 O.3     1  UNL1       -0.3775
     32 O          21.0848   72.5521    1.4055 O.3     1  UNL1       -0.3792
     33 C          20.7244   72.9113   -0.9495 C.3     1  UNL1        0.1718
     34 C          21.0154   72.3382   -2.3367 C.3     1  UNL1        0.1968
     35 C          21.1150   71.9046    0.1350 C.3     1  UNL1        0.1723
     36 C          22.4554   71.8315   -2.4283 C.3     1  UNL1        0.2706
     37 C          22.5182   71.3518   -0.0975 C.3     1  UNL1        0.1830
     38 H          19.0556   73.8116   -1.5038 H       1  UNL1        0.2105
     39 H          19.8958   73.6534   -3.2857 H       1  UNL1        0.2106
     40 H          20.1971   72.9086    1.5657 H       1  UNL1        0.2106
     41 O          23.0508   70.5149    2.0279 O.co2   1  UNL1       -0.5466
     42 O          22.7090   68.9917    0.3660 O.co2   1  UNL1       -0.5466
     43 C          22.7623   70.1489    0.7545 C.2     1  UNL1        0.0799
@<TRIPOS>UNITY_ATOM_ATTR
2 1
charge -1
26 1
charge -1
41 1
charge -1
@<TRIPOS>BOND
     1     1     4    1
     2     1    24    1
     3     1     2    1
     4     1     3    2
     5    25    28    1
     6    25    24    1
     7    25    26    1
     8    25    27    2
     9     6    11    1
    10     6    12    1
    11    29    36    1
    12    29    37    1
    13     7     9    1
    14     7    13    1
    15     8    10    1
    16     8    14    1
    17     4     5    1
    18    28    36    1
    19    30    33    1
    20    30    38    1
    21    31    34    1
    22    31    39    1
    23    32    35    1
    24    32    40    1
    25    41    43   ar
    26    15    19    2
    27    42    43   ar
    28    16    22    2
    29    17    12    1
    30    17    19   ar
    31    17    20   ar
    32    18    19   ar
    33    18    22   ar
    34    18    23    1
    35     9    10    1
    36     9    11    1
    37    10    12    1
    38    11     5    1
    39    33    34    1
    40    33    35    1
    41    34    36    1
    42    35    37    1
    43    37    43    1
    44    20    21   ar
    45    21    22   ar
@<TRIPOS>MOLECULE
*****
 43 45 0 0 0
SMALL
GASTEIGER

@<TRIPOS>ATOM
      1 P          22.5680   72.7901   -3.3011 P.3     1  UNL1        0.2189
      2 O          21.8542   72.8203   -1.8491 O.co2   1  UNL1       -0.4371
      3 O          23.4862   71.6257   -3.5316 O.2     1  UNL1       -0.5170
      4 O          23.2436   74.2544   -3.4325 O.3     1  UNL1       -0.3112
      5 C          24.6555   74.3534   -3.3951 C.3     1  UNL1        0.1811
      6 O          26.3911   75.0805   -1.8995 O.3     1  UNL1       -0.3308
      7 O          24.9463   77.7060   -1.7971 O.3     1  UNL1       -0.3794
      8 O          26.9833   78.2144   -3.5372 O.3     1  UNL1       -0.3779
      9 C          25.1086   76.8061   -2.8936 C.3     1  UNL1        0.1713
     10 C          26.5220   76.8838   -3.4306 C.3     1  UNL1        0.1895
     11 C          25.0527   75.3858   -2.3478 C.3     1  UNL1        0.1764
     12 C          27.2953   76.0775   -2.4012 C.3     1  UNL1        0.2383
     13 H          24.9785   78.6201   -2.1211 H       1  UNL1        0.2105
     14 H          26.4597   78.6856   -4.2048 H       1  UNL1        0.2106
     15 O          27.3547   74.8868   -4.9615 O.2     1  UNL1       -0.2464
     16 O          31.7535   73.6036   -4.4633 O.2     1  UNL1       -0.2670
     17 N          28.4430   75.4253   -2.9655 N.ar    1  UNL1       -0.2551
     18 N          29.5452   74.2479   -4.7105 N.ar    1  UNL1       -0.2743
     19 C          28.3677   74.8592   -4.2601 C.ar    1  UNL1        0.3323
     20 C          29.6260   75.3528   -2.2401 C.ar    1  UNL1        0.0869
     21 C          30.7402   74.7669   -2.6828 C.ar    1  UNL1        0.0795
     22 C          30.7455   74.1501   -4.0255 C.ar    1  UNL1        0.2626
     23 H          29.5165   73.8448   -5.6083 H       1  UNL1        0.1734
     24 O          21.3175   72.8739   -4.3220 O.3     1  UNL1       -0.2703
     25 P          21.2177   73.4370   -5.8342 P.3     1  UNL1        0.2208
     26 O          22.5271   72.8094   -6.5497 O.co2   1  UNL1       -0.4371
     27 O          21.1177   74.9319   -5.9292 O.2     1  UNL1       -0.5170
     28 O          19.9760   72.6401   -6.4865 O.3     1  UNL1       -0.2858
     29 O          19.0522   70.5216   -5.9690 O.3     1  UNL1       -0.3226
     30 O          18.4714   70.7167  -10.0547 O.3     1  UNL1       -0.3794
     31 O          20.9838   71.6232   -8.8711 O.3     1  UNL1       -0.3775
     32 O          16.2362   71.1272   -8.2419 O.3     1  UNL1       -0.3792
     33 C          18.5933   71.2337   -8.7296 C.3     1  UNL1        0.1718
     34 C          19.9776   70.8974   -8.1744 C.3     1  UNL1        0.1968
     35 C          17.5039   70.5901   -7.8689 C.3     1  UNL1        0.1723
     36 C          20.0650   71.2302   -6.6843 C.3     1  UNL1        0.2706
     37 C          17.7320   70.8638   -6.3851 C.3     1  UNL1        0.1830
     38 H          19.1539   71.1116  -10.6201 H       1  UNL1        0.2105
     39 H          20.9339   71.4170   -9.8173 H       1  UNL1        0.2106
     40 H          16.0788   70.9599   -9.1843 H       1  UNL1        0.2106
     41 O          16.2198   69.0722   -6.3149 O.co2   1  UNL1       -0.5466
     42 O          16.7728   70.0449   -4.3282 O.co2   1  UNL1       -0.5466
     43 C          16.8743   69.9755   -5.5439 C.2     1  UNL1        0.0799
@<TRIPOS>UNITY_ATOM_ATTR
2 1
charge -1
26 1
charge -1
41 1
charge -1
@<TRIPOS>BOND
     1     1     4    1
     2     1    24    1
     3     1     2    1
     4     1     3    2
     5    25    28    1
     6    25    24    1
     7    25    26    1
     8    25    27    2
     9     6    11    1
    10     6    12    1
    11    29    36    1
    12    29    37    1
    13     7     9    1
    14     7    13    1
    15     8    10    1
    16     8    14    1
    17     4     5    1
    18    28    36    1
    19    30    33    1
    20    30    38    1
    21    31    34    1
    22    31    39    1
    23    32    35    1
    24    32    40    1
    25    41    43   ar
    26    15    19    2
    27    42    43   ar
    28    16    22    2
    29    17    12    1
    30    17    19   ar
    31    17    20   ar
    32    18    19   ar
    33    18    22   ar
    34    18    23    1
    35     9    10    1
    36     9    11    1
    37    10    12    1
    38    11     5    1
    39    33    34    1
    40    33    35    1
    41    34    36    1
    42    35    37    1
    43    37    43    1
    44    20    21   ar
    45    21    22   ar
@<TRIPOS>MOLECULE
*****
 43 45 0 0 0
SMALL
GASTEIGER

@<TRIPOS>ATOM
      1 P          21.3786   70.3196   -0.9177 P.3     1  UNL1        0.2189
      2 O          22.6575   70.4014   -1.9060 O.co2   1  UNL1       -0.4371
      3 O          21.6410   69.6607    0.4047 O.2     1  UNL1       -0.5170
      4 O          20.2279   69.6363   -1.8270 O.3     1  UNL1       -0.3112
      5 C          20.0646   70.0844   -3.1601 C.3     1  UNL1        0.1811
      6 O          18.8857   71.9557   -4.1015 O.3     1  UNL1       -0.3308
      7 O          16.3785   70.3871   -3.6064 O.3     1  UNL1       -0.3794
      8 O          16.8017   70.0081   -6.2735 O.3     1  UNL1       -0.3779
      9 C          17.6698   69.9252   -4.0038 C.3     1  UNL1        0.1713
     10 C          17.9243   70.2667   -5.4567 C.3     1  UNL1        0.1895
     11 C          18.7126   70.7741   -3.2895 C.3     1  UNL1        0.1764
     12 C          18.2624   71.7457   -5.3785 C.3     1  UNL1        0.2383
     13 H          15.6954   69.8596   -4.0501 H       1  UNL1        0.2105
     14 H          16.6275   69.0535   -6.2910 H       1  UNL1        0.2106
     15 O          17.4816   72.4146   -8.0090 O.2     1  UNL1       -0.2464
     16 O          21.8252   73.3067   -9.2666 O.2     1  UNL1       -0.2670
     17 N          19.1686   72.1562   -6.4135 N.ar    1  UNL1       -0.2551
     18 N          19.6458   72.8573   -8.6331 N.ar    1  UNL1       -0.2743
     19 C          18.6738   72.4698   -7.7014 C.ar    1  UNL1        0.3323
     20 C          20.5297   72.2462   -6.1481 C.ar    1  UNL1        0.0869
     21 C          21.4440   72.6172   -7.0464 C.ar    1  UNL1        0.0795
     22 C          21.0103   72.9612   -8.4164 C.ar    1  UNL1        0.2626
     23 H          19.3256   73.0787   -9.5374 H       1  UNL1        0.1734
     24 O          20.8972   71.8595   -0.8190 O.3     1  UNL1       -0.2703
     25 P          21.6439   73.1697   -0.2365 P.3     1  UNL1        0.2208
     26 O          21.0343   74.3720   -1.1328 O.co2   1  UNL1       -0.4371
     27 O          23.1427   73.0835   -0.2546 O.2     1  UNL1       -0.5170
     28 O          21.0036   73.3886    1.2280 O.3     1  UNL1       -0.2858
     29 O          21.8450   75.2571    2.4154 O.3     1  UNL1       -0.3226
     30 O          19.6706   73.3118    5.3404 O.3     1  UNL1       -0.3794
     31 O          21.3418   71.7971    3.4838 O.3     1  UNL1       -0.3775
     32 O          18.6166   75.7186    4.0966 O.3     1  UNL1       -0.3792
     33 C          19.9823   73.7355    4.0133 C.3     1  UNL1        0.1718
     34 C          21.3645   73.2132    3.6207 C.3     1  UNL1        0.1968
     35 C          19.9648   75.2655    3.9889 C.3     1  UNL1        0.1723
     36 C          21.8296   73.8336    2.3025 C.3     1  UNL1        0.2706
     37 C          20.5599   75.8089    2.6931 C.3     1  UNL1        0.1830
     38 H          19.6759   72.3424    5.3802 H       1  UNL1        0.2105
     39 H          21.0473   71.3968    4.3165 H       1  UNL1        0.2106
     40 H          18.2261   75.3796    4.9172 H       1  UNL1        0.2106
     41 O          21.0047   77.6244    4.1100 O.co2   1  UNL1       -0.5466
     42 O          20.9174   78.0491    1.8715 O.co2   1  UNL1       -0.5466
     43 C          20.8411   77.2715    2.8109 C.2     1  UNL1        0.0799
@<TRIPOS>UNITY_ATOM_ATTR
2 1
charge -1
26 1
charge -1
41 1
charge -1
@<TRIPOS>BOND
     1     1     4    1
     2     1    24    1
     3     1     2    1
     4     1     3    2
     5    25    28    1
     6    25    24    1
     7    25    26    1
     8    25    27    2
     9     6    11    1
    10     6    12    1
    11    29    36    1
    12    29    37    1
    13     7     9    1
    14     7    13    1
    15     8    10    1
    16     8    14    1
    17     4     5    1
    18    28    36    1
    19    30    33    1
    20    30    38    1
    21    31    34    1
    22    31    39    1
    23    32    35    1
    24    32    40    1
    25    41    43   ar
    26    15    19    2
    27    42    43   ar
    28    16    22    2
    29    17    12    1
    30    17    19   ar
    31    17    20   ar
    32    18    19   ar
    33    18    22   ar
    34    18    23    1
    35     9    10    1
    36     9    11    1
    37    10    12    1
    38    11     5    1
    39    33    34    1
    40    33    35    1
    41    34    36    1
    42    35    37    1
    43    37    43    1
    44    20    21   ar
    45    21    22   ar
@<TRIPOS>MOLECULE
*****
 43 45 0 0 0
SMALL
GASTEIGER

@<TRIPOS>ATOM
      1 P          17.6373   74.4567   -1.2381 P.3     1  UNL1        0.2189
      2 O          16.2603   74.3813   -0.3914 O.co2   1  UNL1       -0.4371
      3 O          17.6691   75.5132   -2.3032 O.2     1  UNL1       -0.5170
      4 O          17.8636   72.9379   -1.7480 O.3     1  UNL1       -0.3112
      5 C          17.3785   72.5749   -3.0275 C.3     1  UNL1        0.1811
      6 O          16.8020   70.7012   -4.4183 O.3     1  UNL1       -0.3308
      7 O          18.0715   68.9852   -2.3123 O.3     1  UNL1       -0.3794
      8 O          20.0106   69.1132   -4.2253 O.3     1  UNL1       -0.3779
      9 C          18.4518   70.2826   -2.7710 C.3     1  UNL1        0.1713
     10 C          19.0977   70.1871   -4.1371 C.3     1  UNL1        0.1895
     11 C          17.1812   71.0652   -3.0733 C.3     1  UNL1        0.1764
     12 C          17.8923   70.0060   -5.0438 C.3     1  UNL1        0.2383
     13 H          18.8669   68.4664   -2.1127 H       1  UNL1        0.2105
     14 H          20.7597   69.2760   -3.6300 H       1  UNL1        0.2106
     15 O          16.0534   69.7970   -7.1772 O.2     1  UNL1       -0.2464
     16 O          18.8130   72.1441  -10.0266 O.2     1  UNL1       -0.2670
     17 N          18.1049   70.5533   -6.3538 N.ar    1  UNL1       -0.2551
     18 N          17.4300   70.9653   -8.5946 N.ar    1  UNL1       -0.2743
     19 C          17.1177   70.3924   -7.3547 C.ar    1  UNL1        0.3323
     20 C          19.2787   71.2413   -6.6359 C.ar    1  UNL1        0.0869
     21 C          19.5622   71.7820   -7.8226 C.ar    1  UNL1        0.0795
     22 C          18.5840   71.6581   -8.9232 C.ar    1  UNL1        0.2626
     23 H          16.7589   70.8645   -9.3079 H       1  UNL1        0.1734
     24 O          18.7613   74.6254   -0.0887 O.3     1  UNL1       -0.2703
     25 P          20.2920   75.1395   -0.1682 P.3     1  UNL1        0.2208
     26 O          20.8259   74.9474    1.3478 O.co2   1  UNL1       -0.4371
     27 O          20.4466   76.5325   -0.7064 O.2     1  UNL1       -0.5170
     28 O          21.0613   74.0043   -1.0178 O.3     1  UNL1       -0.2858
     29 O          22.5661   72.4366   -0.0757 O.3     1  UNL1       -0.3226
     30 O          23.7875   72.5078   -4.0218 O.3     1  UNL1       -0.3794
     31 O          23.0947   74.9873   -2.6411 O.3     1  UNL1       -0.3775
     32 O          22.2373   70.2644   -3.0143 O.3     1  UNL1       -0.3792
     33 C          22.8543   72.5923   -2.9447 C.3     1  UNL1        0.1718
     34 C          23.2608   73.7263   -2.0033 C.3     1  UNL1        0.1968
     35 C          22.8663   71.2541   -2.2024 C.3     1  UNL1        0.1723
     36 C          22.4238   73.7014   -0.7235 C.3     1  UNL1        0.2706
     37 C          22.1167   71.3458   -0.8765 C.3     1  UNL1        0.1830
     38 H          23.7972   73.3472   -4.5081 H       1  UNL1        0.2105
     39 H          23.6228   75.0100   -3.4541 H       1  UNL1        0.2106
     40 H          22.7048   70.1962   -3.8615 H       1  UNL1        0.2106
     41 O          23.7187   69.8182   -0.1010 O.co2   1  UNL1       -0.5466
     42 O          21.5862   69.5686    0.6667 O.co2   1  UNL1       -0.5466
     43 C          22.4083   70.1576   -0.0189 C.2     1  UNL1        0.0799
@<TRIPOS>UNITY_ATOM_ATTR
2 1
charge -1
26 1
charge -1
41 1
charge -1
@<TRIPOS>BOND
     1     1     4    1
     2     1    24    1
     3     1     2    1
     4     1     3    2
     5    25    28    1
     6    25    24    1
     7    25    26    1
     8    25    27    2
     9     6    11    1
    10     6    12    1
    11    29    36    1
    12    29    37    1
    13     7     9    1
    14     7    13    1
    15     8    10    1
    16     8    14    1
    17     4     5    1
    18    28    36    1
    19    30    33    1
    20    30    38    1
    21    31    34    1
    22    31    39    1
    23    32    35    1
    24    32    40    1
    25    41    43   ar
    26    15    19    2
    27    42    43   ar
    28    16    22    2
    29    17    12    1
    30    17    19   ar
    31    17    20   ar
    32    18    19   ar
    33    18    22   ar
    34    18    23    1
    35     9    10    1
    36     9    11    1
    37    10    12    1
    38    11     5    1
    39    33    34    1
    40    33    35    1
    41    34    36    1
    42    35    37    1
    43    37    43    1
    44    20    21   ar
    45    21    22   ar
