@<TRIPOS>MOLECULE
UDP-glaA
 43 45 0 0 0
SMALL
GASTEIGER

@<TRIPOS>ATOM
      1 P          21.0025   71.8463   -2.3351 P.3     1  UNL1        0.2189
      2 O          20.1353   73.1352   -2.7870 O.3     1  UNL1       -0.4371
      3 O          22.2178   71.5758   -3.1729 O.2     1  UNL1       -0.5170
      4 O          19.9160   70.6504   -2.2658 O.3     1  UNL1       -0.3112
      5 C          19.3567   70.1722   -3.4774 C.3     1  UNL1        0.1811
      6 O          17.6953   71.3217   -4.7785 O.3     1  UNL1       -0.3308
      7 O          15.6619   69.8582   -3.1309 O.3     1  UNL1       -0.3794
      8 O          15.6981   68.4201   -5.4474 O.3     1  UNL1       -0.3779
      9 C          16.9330   69.4115   -3.6027 C.3     1  UNL1        0.1713
     10 C          16.8699   69.1222   -5.0876 C.3     1  UNL1        0.1895
     11 C          17.8951   70.5909   -3.5484 C.3     1  UNL1        0.1764
     12 C          16.9202   70.5187   -5.6838 C.3     1  UNL1        0.2383
     13 H          15.7607   70.0680   -2.1865 H       1  UNL1        0.2105
     14 H          15.6881   67.5889   -4.9422 H       1  UNL1        0.2106
     15 O          15.5111   70.5417   -8.1311 O.2     1  UNL1       -0.2464
     16 O          19.4109   70.6005  -10.5860 O.2     1  UNL1       -0.2670
     17 N          17.5417   70.5406   -6.9770 N.ar    1  UNL1       -0.2551
     18 N          17.4540   70.5704   -9.3519 N.ar    1  UNL1       -0.2743
     19 C          16.7434   70.5498   -8.1446 C.ar    1  UNL1        0.3323
     20 C          18.9284   70.5526   -7.0795 C.ar    1  UNL1        0.0869
     21 C          19.5910   70.5728   -8.2381 C.ar    1  UNL1        0.0795
     22 C          18.8318   70.5826   -9.5042 C.ar    1  UNL1        0.2626
     23 H          16.9005   70.5767  -10.2044 H       1  UNL1        0.1734
     24 O          21.3120   72.1463   -0.7764 O.3     1  UNL1       -0.2703
     25 P          22.1812   71.3230    0.3095 P.3     1  UNL1        0.2208
     26 O          23.5253   70.9398   -0.5046 O.3     1  UNL1       -0.4371
     27 O          21.4637   70.1479    0.9097 O.2     1  UNL1       -0.5170
     28 O          22.6549   72.4330    1.3807 O.3     1  UNL1       -0.2858
     29 O          24.2833   72.4695    3.0971 O.3     1  UNL1       -0.3226
     30 O          21.1454   74.5755    4.8286 O.3     1  UNL1       -0.3794
     31 O          20.6271   72.1864    3.2382 O.3     1  UNL1       -0.3775
     32 O          23.7814   74.0332    5.4512 O.3     1  UNL1       -0.3792
     33 C          22.0149   74.0993    3.8050 C.3     1  UNL1        0.1718
     34 C          21.9203   72.5742    3.6901 C.3     1  UNL1        0.1968
     35 C          23.4503   74.5112    4.1432 C.3     1  UNL1        0.1723
     36 C          22.9739   72.0366    2.7138 C.3     1  UNL1        0.2706
     37 C          24.4137   73.8898    3.1344 C.3     1  UNL1        0.1830
     38 H          21.2398   75.5425    4.8673 H       1  UNL1        0.2105
     39 H          20.6181   71.2166    3.1720 H       1  UNL1        0.2106
     40 H          23.9166   73.0716    5.4035 H       1  UNL1        0.2106
     41 O          25.9750   75.4093    4.0045 O.co2   1  UNL1       -0.5466
     42 O          26.7585   73.3645    3.3707 O.co2   1  UNL1       -0.5466
     43 C          25.8385   74.1589    3.5010 C.2     1  UNL1        0.0799
@<TRIPOS>UNITY_ATOM_ATTR
41 1
charge -1
@<TRIPOS>BOND
     1     1     4    1
     2     1    24    1
     3     1     2    1
     4     1     3    2
     5    25    28    1
     6    25    24    1
     7    25    26    1
     8    25    27    2
     9     6    11    1
    10     6    12    1
    11    29    36    1
    12    29    37    1
    13     7     9    1
    14     7    13    1
    15     8    10    1
    16     8    14    1
    17     4     5    1
    18    28    36    1
    19    30    33    1
    20    30    38    1
    21    31    34    1
    22    31    39    1
    23    32    35    1
    24    32    40    1
    25    41    43   ar
    26    15    19    2
    27    42    43   ar
    28    16    22    2
    29    17    12    1
    30    17    19   ar
    31    17    20   ar
    32    18    19   ar
    33    18    22   ar
    34    18    23    1
    35     9    10    1
    36     9    11    1
    37    10    12    1
    38    11     5    1
    39    33    34    1
    40    33    35    1
    41    34    36    1
    42    35    37    1
    43    37    43    1
    44    20    21   ar
    45    21    22   ar
@<TRIPOS>MOLECULE
UDP-glaA
 43 45 0 0 0
SMALL
GASTEIGER

@<TRIPOS>ATOM
      1 P          23.2683   72.0098   -3.4812 P.3     1  UNL1        0.2189
      2 O          23.9379   72.9269   -4.6336 O.3     1  UNL1       -0.4371
      3 O          24.0707   70.8052   -3.0849 O.2     1  UNL1       -0.5170
      4 O          21.7794   71.7107   -4.0373 O.3     1  UNL1       -0.3112
      5 C          21.0978   70.5613   -3.5645 C.3     1  UNL1        0.1811
      6 O          19.0855   71.5509   -4.4279 O.3     1  UNL1       -0.3308
      7 O          17.6651   70.1790   -2.1714 O.3     1  UNL1       -0.3794
      8 O          17.1273   68.5505   -4.2914 O.3     1  UNL1       -0.3779
      9 C          18.7755   69.7280   -2.9469 C.3     1  UNL1        0.1713
     10 C          18.3167   69.3118   -4.3285 C.3     1  UNL1        0.1895
     11 C          19.6552   70.9331   -3.2528 C.3     1  UNL1        0.1764
     12 C          18.1301   70.6533   -5.0167 C.3     1  UNL1        0.2383
     13 H          18.0119   70.4710   -1.3112 H       1  UNL1        0.2105
     14 H          17.2993   67.7654   -3.7435 H       1  UNL1        0.2106
     15 O          16.1991   69.8588   -6.9182 O.2     1  UNL1       -0.2464
     16 O          19.1485   70.4140  -10.4156 O.2     1  UNL1       -0.2670
     17 N          18.3659   70.5817   -6.4304 N.ar    1  UNL1       -0.2551
     18 N          17.6692   70.1353   -8.6585 N.ar    1  UNL1       -0.2743
     19 C          17.3290   70.1696   -7.2997 C.ar    1  UNL1        0.3323
     20 C          19.6142   70.9175   -6.9428 C.ar    1  UNL1        0.0869
     21 C          19.9228   70.8801   -8.2409 C.ar    1  UNL1        0.0795
     22 C          18.8966   70.4596   -9.2154 C.ar    1  UNL1        0.2626
     23 H          16.9394   69.8414   -9.3019 H       1  UNL1        0.1734
     24 O          23.0039   73.0661   -2.2856 O.3     1  UNL1       -0.2703
     25 P          22.8583   72.8475   -0.6907 P.3     1  UNL1        0.2208
     26 O          21.3120   72.4064   -0.5163 O.3     1  UNL1       -0.4371
     27 O          23.2604   74.0371    0.1333 O.2     1  UNL1       -0.5170
     28 O          23.7025   71.5072   -0.3828 O.3     1  UNL1       -0.2858
     29 O          24.7207   71.8941    1.7179 O.3     1  UNL1       -0.3226
     30 O          20.6827   72.2943    2.6202 O.3     1  UNL1       -0.3794
     31 O          21.5974   70.1882    0.8219 O.3     1  UNL1       -0.3775
     32 O          23.0806   72.7291    3.9206 O.3     1  UNL1       -0.3792
     33 C          21.8819   72.3699    1.8544 C.3     1  UNL1        0.1718
     34 C          22.4655   70.9699    1.6357 C.3     1  UNL1        0.1968
     35 C          22.8911   73.2475    2.5999 C.3     1  UNL1        0.1723
     36 C          23.8414   71.0539    0.9631 C.3     1  UNL1        0.2706
     37 C          24.2305   73.2257    1.8666 C.3     1  UNL1        0.1830
     38 H          20.3508   73.2010    2.7357 H       1  UNL1        0.2105
     39 H          22.0117   69.3169    0.7036 H       1  UNL1        0.2106
     40 H          23.6139   71.9184    3.8606 H       1  UNL1        0.2106
     41 O          25.8360   74.9363    1.8620 O.co2   1  UNL1       -0.5466
     42 O          25.6055   73.7339    3.7851 O.co2   1  UNL1       -0.5466
     43 C          25.2837   73.9653    2.6286 C.2     1  UNL1        0.0799
@<TRIPOS>UNITY_ATOM_ATTR
41 1
charge -1
@<TRIPOS>BOND
     1     1     4    1
     2     1    24    1
     3     1     2    1
     4     1     3    2
     5    25    28    1
     6    25    24    1
     7    25    26    1
     8    25    27    2
     9     6    11    1
    10     6    12    1
    11    29    36    1
    12    29    37    1
    13     7     9    1
    14     7    13    1
    15     8    10    1
    16     8    14    1
    17     4     5    1
    18    28    36    1
    19    30    33    1
    20    30    38    1
    21    31    34    1
    22    31    39    1
    23    32    35    1
    24    32    40    1
    25    41    43   ar
    26    15    19    2
    27    42    43   ar
    28    16    22    2
    29    17    12    1
    30    17    19   ar
    31    17    20   ar
    32    18    19   ar
    33    18    22   ar
    34    18    23    1
    35     9    10    1
    36     9    11    1
    37    10    12    1
    38    11     5    1
    39    33    34    1
    40    33    35    1
    41    34    36    1
    42    35    37    1
    43    37    43    1
    44    20    21   ar
    45    21    22   ar
@<TRIPOS>MOLECULE
UDP-glaA
 43 45 0 0 0
SMALL
GASTEIGER

@<TRIPOS>ATOM
      1 P          21.2262   71.1573   -2.9773 P.3     1  UNL1        0.2189
      2 O          21.8783   72.4348   -3.7259 O.3     1  UNL1       -0.4371
      3 O          21.4810   69.8362   -3.6420 O.2     1  UNL1       -0.5170
      4 O          19.6717   71.5642   -2.7948 O.3     1  UNL1       -0.3112
      5 C          19.0441   72.3182   -3.8180 C.3     1  UNL1        0.1811
      6 O          17.1362   72.0588   -5.2556 O.3     1  UNL1       -0.3308
      7 O          15.9473   70.3910   -3.0655 O.3     1  UNL1       -0.3794
      8 O          16.8463   68.5111   -4.8244 O.3     1  UNL1       -0.3779
      9 C          17.3070   70.4897   -3.4888 C.3     1  UNL1        0.1713
     10 C          17.5023   69.7620   -4.8022 C.3     1  UNL1        0.1895
     11 C          17.5721   71.9366   -3.8837 C.3     1  UNL1        0.1764
     12 C          16.9155   70.7468   -5.7991 C.3     1  UNL1        0.2383
     13 H          15.8618   70.9032   -2.2434 H       1  UNL1        0.2105
     14 H          17.2018   67.9812   -4.0902 H       1  UNL1        0.2106
     15 O          15.5193   70.6646   -8.2526 O.2     1  UNL1       -0.2464
     16 O          19.4296   70.4229  -10.6794 O.2     1  UNL1       -0.2670
     17 N          17.5433   70.6630   -7.0868 N.ar    1  UNL1       -0.2551
     18 N          17.4674   70.5438   -9.4594 N.ar    1  UNL1       -0.2743
     19 C          16.7511   70.6266   -8.2581 C.ar    1  UNL1        0.3323
     20 C          18.9299   70.6175   -7.1803 C.ar    1  UNL1        0.0869
     21 C          19.5980   70.5391   -8.3333 C.ar    1  UNL1        0.0795
     22 C          18.8454   70.4956   -9.6026 C.ar    1  UNL1        0.2626
     23 H          16.9184   70.5157  -10.3143 H       1  UNL1        0.1734
     24 O          21.8123   71.2796   -1.4751 O.3     1  UNL1       -0.2703
     25 P          21.0745   71.5916   -0.0713 P.3     1  UNL1        0.2208
     26 O          21.3550   70.2579    0.7999 O.3     1  UNL1       -0.4371
     27 O          19.6223   71.9506   -0.2051 O.2     1  UNL1       -0.5170
     28 O          21.9817   72.7313    0.6231 O.3     1  UNL1       -0.2858
     29 O          23.6738   74.1227   -0.2714 O.3     1  UNL1       -0.3226
     30 O          25.0248   73.4929    3.6090 O.3     1  UNL1       -0.3794
     31 O          23.8480   71.3080    2.0769 O.3     1  UNL1       -0.3775
     32 O          25.7365   75.0929    1.4729 O.3     1  UNL1       -0.3792
     33 C          24.0964   73.6800    2.5445 C.3     1  UNL1        0.1718
     34 C          24.2340   72.5563    1.5116 C.3     1  UNL1        0.1968
     35 C          24.3667   75.0346    1.8839 C.3     1  UNL1        0.1723
     36 C          23.3629   72.8395    0.2815 C.3     1  UNL1        0.2706
     37 C          23.4770   75.1918    0.6527 C.3     1  UNL1        0.1830
     38 H          24.9040   74.2263    4.2359 H       1  UNL1        0.2105
     39 H          23.9424   70.6311    1.3857 H       1  UNL1        0.2106
     40 H          25.8483   74.5278    0.6897 H       1  UNL1        0.2106
     41 O          24.0903   77.4539    0.7569 O.co2   1  UNL1       -0.5466
     42 O          23.8036   76.5504   -1.3164 O.co2   1  UNL1       -0.5466
     43 C          23.7988   76.4445   -0.0986 C.2     1  UNL1        0.0799
@<TRIPOS>UNITY_ATOM_ATTR
41 1
charge -1
@<TRIPOS>BOND
     1     1     4    1
     2     1    24    1
     3     1     2    1
     4     1     3    2
     5    25    28    1
     6    25    24    1
     7    25    26    1
     8    25    27    2
     9     6    11    1
    10     6    12    1
    11    29    36    1
    12    29    37    1
    13     7     9    1
    14     7    13    1
    15     8    10    1
    16     8    14    1
    17     4     5    1
    18    28    36    1
    19    30    33    1
    20    30    38    1
    21    31    34    1
    22    31    39    1
    23    32    35    1
    24    32    40    1
    25    41    43   ar
    26    15    19    2
    27    42    43   ar
    28    16    22    2
    29    17    12    1
    30    17    19   ar
    31    17    20   ar
    32    18    19   ar
    33    18    22   ar
    34    18    23    1
    35     9    10    1
    36     9    11    1
    37    10    12    1
    38    11     5    1
    39    33    34    1
    40    33    35    1
    41    34    36    1
    42    35    37    1
    43    37    43    1
    44    20    21   ar
    45    21    22   ar
@<TRIPOS>MOLECULE
UDP-glaA
 43 45 0 0 0
SMALL
GASTEIGER

@<TRIPOS>ATOM
      1 P          21.3852   72.3927   -4.6153 P.3     1  UNL1        0.2189
      2 O          20.8302   73.8645   -4.2371 O.3     1  UNL1       -0.4371
      3 O          22.3773   72.3602   -5.7408 O.2     1  UNL1       -0.5170
      4 O          20.0445   71.5151   -4.8346 O.3     1  UNL1       -0.3112
      5 C          19.3911   70.9805   -3.6960 C.3     1  UNL1        0.1811
      6 O          17.6304   71.7241   -5.1525 O.3     1  UNL1       -0.3308
      7 O          15.7470   70.3355   -3.2775 O.3     1  UNL1       -0.3794
      8 O          15.9585   68.5575   -5.3341 O.3     1  UNL1       -0.3779
      9 C          17.0629   69.9566   -3.6807 C.3     1  UNL1        0.1713
     10 C          17.0457   69.4285   -5.0997 C.3     1  UNL1        0.1895
     11 C          17.8941   71.2248   -3.8227 C.3     1  UNL1        0.1764
     12 C          16.9538   70.7090   -5.9120 C.3     1  UNL1        0.2383
     13 H          15.8135   70.7029   -2.3796 H       1  UNL1        0.2105
     14 H          16.0316   67.8215   -4.7023 H       1  UNL1        0.2106
     15 O          15.5635   70.6478   -8.3694 O.2     1  UNL1       -0.2464
     16 O          19.4711   70.2459  -10.7794 O.2     1  UNL1       -0.2670
     17 N          17.5825   70.5897   -7.1965 N.ar    1  UNL1       -0.2551
     18 N          17.5102   70.4472   -9.5678 N.ar    1  UNL1       -0.2743
     19 C          16.7932   70.5676   -8.3701 C.ar    1  UNL1        0.3323
     20 C          18.9670   70.4957   -7.2845 C.ar    1  UNL1        0.0869
     21 C          19.6358   70.3819   -8.4341 C.ar    1  UNL1        0.0795
     22 C          18.8862   70.3503   -9.7056 C.ar    1  UNL1        0.2626
     23 H          16.9633   70.4286  -10.4244 H       1  UNL1        0.1734
     24 O          21.9508   71.8448   -3.2028 O.3     1  UNL1       -0.2703
     25 P          23.4276   71.9218   -2.5504 P.3     1  UNL1        0.2208
     26 O          23.9766   73.3610   -3.0438 O.3     1  UNL1       -0.4371
     27 O          24.3178   70.7646   -2.9029 O.2     1  UNL1       -0.5170
     28 O          23.1668   72.1046   -0.9685 O.3     1  UNL1       -0.2858
     29 O          24.4732   71.0289    0.6854 O.3     1  UNL1       -0.3226
     30 O          20.9623   71.8569    2.7511 O.3     1  UNL1       -0.3794
     31 O          20.8711   70.9104   -0.0060 O.3     1  UNL1       -0.3775
     32 O          23.4817   70.9130    3.3766 O.3     1  UNL1       -0.3792
     33 C          22.0212   72.0367    1.8148 C.3     1  UNL1        0.1718
     34 C          22.0418   70.8853    0.8037 C.3     1  UNL1        0.1968
     35 C          23.3497   72.0909    2.5741 C.3     1  UNL1        0.1723
     36 C          23.2776   70.9779   -0.0999 C.3     1  UNL1        0.2706
     37 C          24.5076   72.1402    1.5796 C.3     1  UNL1        0.1830
     38 H          20.9889   72.6053    3.3713 H       1  UNL1        0.2105
     39 H          20.9333   70.1716   -0.6347 H       1  UNL1        0.2106
     40 H          23.6821   70.1621    2.7924 H       1  UNL1        0.2106
     41 O          26.1854   73.2769    2.7613 O.co2   1  UNL1       -0.5466
     42 O          26.5014   71.0492    2.3945 O.co2   1  UNL1       -0.5466
     43 C          25.8297   72.0635    2.2747 C.2     1  UNL1        0.0799
@<TRIPOS>UNITY_ATOM_ATTR
41 1
charge -1
@<TRIPOS>BOND
     1     1     4    1
     2     1    24    1
     3     1     2    1
     4     1     3    2
     5    25    28    1
     6    25    24    1
     7    25    26    1
     8    25    27    2
     9     6    11    1
    10     6    12    1
    11    29    36    1
    12    29    37    1
    13     7     9    1
    14     7    13    1
    15     8    10    1
    16     8    14    1
    17     4     5    1
    18    28    36    1
    19    30    33    1
    20    30    38    1
    21    31    34    1
    22    31    39    1
    23    32    35    1
    24    32    40    1
    25    41    43   ar
    26    15    19    2
    27    42    43   ar
    28    16    22    2
    29    17    12    1
    30    17    19   ar
    31    17    20   ar
    32    18    19   ar
    33    18    22   ar
    34    18    23    1
    35     9    10    1
    36     9    11    1
    37    10    12    1
    38    11     5    1
    39    33    34    1
    40    33    35    1
    41    34    36    1
    42    35    37    1
    43    37    43    1
    44    20    21   ar
    45    21    22   ar
@<TRIPOS>MOLECULE
UDP-glaA
 43 45 0 0 0
SMALL
GASTEIGER

@<TRIPOS>ATOM
      1 P          23.3474   71.9192   -3.4040 P.3     1  UNL1        0.2189
      2 O          24.0466   72.9818   -4.4037 O.3     1  UNL1       -0.4371
      3 O          24.2090   70.7533   -3.0164 O.2     1  UNL1       -0.5170
      4 O          21.9549   71.5504   -4.1393 O.3     1  UNL1       -0.3112
      5 C          21.1904   70.4671   -3.6381 C.3     1  UNL1        0.1811
      6 O          19.2503   71.5962   -4.4957 O.3     1  UNL1       -0.3308
      7 O          17.7587   70.3855   -2.1934 O.3     1  UNL1       -0.3794
      8 O          17.0633   68.7637   -4.2723 O.3     1  UNL1       -0.3779
      9 C          18.8186   69.8328   -2.9736 C.3     1  UNL1        0.1713
     10 C          18.3085   69.4275   -4.3404 C.3     1  UNL1        0.1895
     11 C          19.7863   70.9582   -3.3155 C.3     1  UNL1        0.1764
     12 C          18.2185   70.7658   -5.0536 C.3     1  UNL1        0.2383
     13 H          18.1399   70.6658   -1.3439 H       1  UNL1        0.2105
     14 H          17.1807   67.9782   -3.7106 H       1  UNL1        0.2106
     15 O          16.2199   70.0228   -6.9053 O.2     1  UNL1       -0.2464
     16 O          19.1359   70.3449  -10.4595 O.2     1  UNL1       -0.2670
     17 N          18.4275   70.6482   -6.4684 N.ar    1  UNL1       -0.2551
     18 N          17.6735   70.1832   -8.6739 N.ar    1  UNL1       -0.2743
     19 C          17.3574   70.2675   -7.3115 C.ar    1  UNL1        0.3323
     20 C          19.6824   70.9088   -7.0077 C.ar    1  UNL1        0.0869
     21 C          19.9676   70.8245   -8.3090 C.ar    1  UNL1        0.0795
     22 C          18.9061   70.4322   -9.2572 C.ar    1  UNL1        0.2626
     23 H          16.9196   69.9105   -9.2987 H       1  UNL1        0.1734
     24 O          22.8707   72.8452   -2.1669 O.3     1  UNL1       -0.2703
     25 P          22.3305   74.3681   -2.1289 P.3     1  UNL1        0.2208
     26 O          20.9894   74.3087   -3.0312 O.3     1  UNL1       -0.4371
     27 O          23.3356   75.3895   -2.5786 O.2     1  UNL1       -0.5170
     28 O          21.7985   74.5758   -0.6197 O.3     1  UNL1       -0.2858
     29 O          21.2094   72.4377    0.2054 O.3     1  UNL1       -0.3226
     30 O          20.3802   74.8862    3.4606 O.3     1  UNL1       -0.3794
     31 O          19.7059   75.7400    0.7546 O.3     1  UNL1       -0.3775
     32 O          20.4842   72.1700    2.9697 O.3     1  UNL1       -0.3792
     33 C          21.0474   74.4189    2.2915 C.3     1  UNL1        0.1718
     34 C          20.0888   74.4119    1.0959 C.3     1  UNL1        0.1968
     35 C          21.5703   73.0036    2.5520 C.3     1  UNL1        0.1723
     36 C          20.7452   73.7513   -0.1227 C.3     1  UNL1        0.2706
     37 C          22.1632   72.4309    1.2665 C.3     1  UNL1        0.1830
     38 H          21.0225   74.8715    4.1906 H       1  UNL1        0.2105
     39 H          19.1089   75.6858   -0.0106 H       1  UNL1        0.2106
     40 H          19.9283   71.9762    2.1960 H       1  UNL1        0.2106
     41 O          21.5643   70.1708    1.0737 O.co2   1  UNL1       -0.5466
     42 O          23.6575   70.6273    1.8529 O.co2   1  UNL1       -0.5466
     43 C          22.5694   71.0020    1.4405 C.2     1  UNL1        0.0799
@<TRIPOS>UNITY_ATOM_ATTR
41 1
charge -1
@<TRIPOS>BOND
     1     1     4    1
     2     1    24    1
     3     1     2    1
     4     1     3    2
     5    25    28    1
     6    25    24    1
     7    25    26    1
     8    25    27    2
     9     6    11    1
    10     6    12    1
    11    29    36    1
    12    29    37    1
    13     7     9    1
    14     7    13    1
    15     8    10    1
    16     8    14    1
    17     4     5    1
    18    28    36    1
    19    30    33    1
    20    30    38    1
    21    31    34    1
    22    31    39    1
    23    32    35    1
    24    32    40    1
    25    41    43   ar
    26    15    19    2
    27    42    43   ar
    28    16    22    2
    29    17    12    1
    30    17    19   ar
    31    17    20   ar
    32    18    19   ar
    33    18    22   ar
    34    18    23    1
    35     9    10    1
    36     9    11    1
    37    10    12    1
    38    11     5    1
    39    33    34    1
    40    33    35    1
    41    34    36    1
    42    35    37    1
    43    37    43    1
    44    20    21   ar
    45    21    22   ar
@<TRIPOS>MOLECULE
UDP-glaA
 43 45 0 0 0
SMALL
GASTEIGER

@<TRIPOS>ATOM
      1 P          23.2401   72.5158   -2.9892 P.3     1  UNL1        0.2189
      2 O          23.6782   73.9851   -3.5054 O.3     1  UNL1       -0.4371
      3 O          24.0838   71.3864   -3.5038 O.2     1  UNL1       -0.5170
      4 O          21.6639   72.4329   -3.3416 O.3     1  UNL1       -0.3112
      5 C          21.1746   73.1849   -4.4390 C.3     1  UNL1        0.1811
      6 O          20.6316   71.0644   -5.4304 O.3     1  UNL1       -0.3308
      7 O          21.0710   72.4009   -8.0784 O.3     1  UNL1       -0.3794
      8 O          18.3526   72.3834   -7.8640 O.3     1  UNL1       -0.3779
      9 C          20.5067   72.9338   -6.8803 C.3     1  UNL1        0.1713
     10 C          19.1091   72.3902   -6.6710 C.3     1  UNL1        0.1895
     11 C          21.2611   72.3365   -5.6997 C.3     1  UNL1        0.1764
     12 C          19.3894   70.9911   -6.1493 C.3     1  UNL1        0.2383
     13 H          21.9775   72.7453   -8.1499 H       1  UNL1        0.2105
     14 H          18.3120   73.2990   -8.1900 H       1  UNL1        0.2106
     15 O          17.0289   69.6878   -6.9890 O.2     1  UNL1       -0.2464
     16 O          15.5217   69.2325   -2.6578 O.2     1  UNL1       -0.2670
     17 N          18.3635   70.5210   -5.2627 N.ar    1  UNL1       -0.2551
     18 N          16.2797   69.4624   -4.8317 N.ar    1  UNL1       -0.2743
     19 C          17.2166   69.8798   -5.7863 C.ar    1  UNL1        0.3323
     20 C          18.4994   70.6971   -3.8902 C.ar    1  UNL1        0.0869
     21 C          17.5975   70.2930   -2.9929 C.ar    1  UNL1        0.0795
     22 C          16.3706   69.6155   -3.4569 C.ar    1  UNL1        0.2626
     23 H          15.4468   68.9995   -5.1853 H       1  UNL1        0.1734
     24 O          23.2443   72.6807   -1.3804 O.3     1  UNL1       -0.2703
     25 P          22.8253   71.6502   -0.2079 P.3     1  UNL1        0.2208
     26 O          24.2026   70.8610    0.1023 O.3     1  UNL1       -0.4371
     27 O          21.6657   70.7609   -0.5548 O.2     1  UNL1       -0.5170
     28 O          22.5870   72.5809    1.0887 O.3     1  UNL1       -0.2858
     29 O          24.2545   72.5663    2.7676 O.3     1  UNL1       -0.3226
     30 O          21.0659   74.3800    4.7227 O.3     1  UNL1       -0.3794
     31 O          20.6203   72.0960    2.9646 O.3     1  UNL1       -0.3775
     32 O          23.7391   73.9208    5.2451 O.3     1  UNL1       -0.3792
     33 C          21.9307   74.0257    3.6471 C.3     1  UNL1        0.1718
     34 C          21.9047   72.5108    3.4173 C.3     1  UNL1        0.1968
     35 C          23.3533   74.4799    3.9853 C.3     1  UNL1        0.1723
     36 C          22.9576   72.1006    2.3802 C.3     1  UNL1        0.2706
     37 C          24.3192   73.9843    2.9112 C.3     1  UNL1        0.1830
     38 H          21.1159   75.3448    4.8336 H       1  UNL1        0.2105
     39 H          20.6549   71.1348    2.8243 H       1  UNL1        0.2106
     40 H          23.9179   72.9733    5.1208 H       1  UNL1        0.2106
     41 O          25.8202   75.4749    3.9255 O.co2   1  UNL1       -0.5466
     42 O          26.6982   73.5827    3.0059 O.co2   1  UNL1       -0.5466
     43 C          25.7386   74.2937    3.2669 C.2     1  UNL1        0.0799
@<TRIPOS>UNITY_ATOM_ATTR
41 1
charge -1
@<TRIPOS>BOND
     1     1     4    1
     2     1    24    1
     3     1     2    1
     4     1     3    2
     5    25    28    1
     6    25    24    1
     7    25    26    1
     8    25    27    2
     9     6    11    1
    10     6    12    1
    11    29    36    1
    12    29    37    1
    13     7     9    1
    14     7    13    1
    15     8    10    1
    16     8    14    1
    17     4     5    1
    18    28    36    1
    19    30    33    1
    20    30    38    1
    21    31    34    1
    22    31    39    1
    23    32    35    1
    24    32    40    1
    25    41    43   ar
    26    15    19    2
    27    42    43   ar
    28    16    22    2
    29    17    12    1
    30    17    19   ar
    31    17    20   ar
    32    18    19   ar
    33    18    22   ar
    34    18    23    1
    35     9    10    1
    36     9    11    1
    37    10    12    1
    38    11     5    1
    39    33    34    1
    40    33    35    1
    41    34    36    1
    42    35    37    1
    43    37    43    1
    44    20    21   ar
    45    21    22   ar
@<TRIPOS>MOLECULE
UDP-glaA
 43 45 0 0 0
SMALL
GASTEIGER

@<TRIPOS>ATOM
      1 P          22.2571   72.0084   -2.4507 P.3     1  UNL1        0.2189
      2 O          22.8230   73.5213   -2.3593 O.3     1  UNL1       -0.4371
      3 O          23.2753   70.9737   -2.8312 O.2     1  UNL1       -0.5170
      4 O          20.9775   72.1297   -3.4322 O.3     1  UNL1       -0.3112
      5 C          20.2261   70.9610   -3.7131 C.3     1  UNL1        0.1811
      6 O          18.3268   71.8384   -4.8952 O.3     1  UNL1       -0.3308
      7 O          16.6440   70.5096   -2.7991 O.3     1  UNL1       -0.3794
      8 O          16.4629   68.7755   -4.8957 O.3     1  UNL1       -0.3779
      9 C          17.8666   70.0683   -3.3894 C.3     1  UNL1        0.1713
     10 C          17.6214   69.5783   -4.8009 C.3     1  UNL1        0.1895
     11 C          18.7430   71.2916   -3.6244 C.3     1  UNL1        0.1764
     12 C          17.4928   70.8822   -5.5699 C.3     1  UNL1        0.2383
     13 H          16.8561   70.8498   -1.9132 H       1  UNL1        0.2105
     14 H          16.5798   68.0207   -4.2933 H       1  UNL1        0.2106
     15 O          15.8021   70.2228   -7.7338 O.2     1  UNL1       -0.2464
     16 O          19.2769   70.4419  -10.7531 O.2     1  UNL1       -0.2670
     17 N          17.9288   70.7607   -6.9317 N.ar    1  UNL1       -0.2551
     18 N          17.5336   70.3318   -9.2358 N.ar    1  UNL1       -0.2743
     19 C          16.9996   70.4243   -7.9438 C.ar    1  UNL1        0.3323
     20 C          19.2646   70.9739   -7.2535 C.ar    1  UNL1        0.0869
     21 C          19.7582   70.8824   -8.4903 C.ar    1  UNL1        0.0795
     22 C          18.8545   70.5345   -9.6047 C.ar    1  UNL1        0.2626
     23 H          16.8840   70.0905   -9.9793 H       1  UNL1        0.1734
     24 O          21.5811   71.7861   -0.9985 O.3     1  UNL1       -0.2703
     25 P          22.2288   71.3511    0.4171 P.3     1  UNL1        0.2208
     26 O          23.8176   71.3514    0.1140 O.3     1  UNL1       -0.4371
     27 O          21.7021   70.0548    0.9631 O.2     1  UNL1       -0.5170
     28 O          21.9967   72.6240    1.3813 O.3     1  UNL1       -0.2858
     29 O          22.9439   74.6520    2.1489 O.3     1  UNL1       -0.3226
     30 O          22.5186   72.4985    5.6788 O.3     1  UNL1       -0.3794
     31 O          23.4399   71.1846    3.2435 O.3     1  UNL1       -0.3775
     32 O          23.1941   75.0829    4.9756 O.3     1  UNL1       -0.3792
     33 C          22.2166   72.9600    4.3650 C.3     1  UNL1        0.1718
     34 C          23.3483   72.5969    3.3977 C.3     1  UNL1        0.1968
     35 C          22.0286   74.4791    4.4048 C.3     1  UNL1        0.1723
     36 C          23.1142   73.2363    2.0234 C.3     1  UNL1        0.2706
     37 C          21.8449   75.0108    2.9850 C.3     1  UNL1        0.1830
     38 H          21.7783   72.7518    6.2562 H       1  UNL1        0.2105
     39 H          24.1611   71.0040    2.6173 H       1  UNL1        0.2106
     40 H          23.9129   75.0455    4.3221 H       1  UNL1        0.2106
     41 O          20.5026   76.9347    2.9970 O.co2   1  UNL1       -0.5466
     42 O          22.7600   77.2443    2.9246 O.co2   1  UNL1       -0.5466
     43 C          21.7871   76.5051    2.9635 C.2     1  UNL1        0.0799
@<TRIPOS>UNITY_ATOM_ATTR
41 1
charge -1
@<TRIPOS>BOND
     1     1     4    1
     2     1    24    1
     3     1     2    1
     4     1     3    2
     5    25    28    1
     6    25    24    1
     7    25    26    1
     8    25    27    2
     9     6    11    1
    10     6    12    1
    11    29    36    1
    12    29    37    1
    13     7     9    1
    14     7    13    1
    15     8    10    1
    16     8    14    1
    17     4     5    1
    18    28    36    1
    19    30    33    1
    20    30    38    1
    21    31    34    1
    22    31    39    1
    23    32    35    1
    24    32    40    1
    25    41    43   ar
    26    15    19    2
    27    42    43   ar
    28    16    22    2
    29    17    12    1
    30    17    19   ar
    31    17    20   ar
    32    18    19   ar
    33    18    22   ar
    34    18    23    1
    35     9    10    1
    36     9    11    1
    37    10    12    1
    38    11     5    1
    39    33    34    1
    40    33    35    1
    41    34    36    1
    42    35    37    1
    43    37    43    1
    44    20    21   ar
    45    21    22   ar
@<TRIPOS>MOLECULE
UDP-glaA
 43 45 0 0 0
SMALL
GASTEIGER

@<TRIPOS>ATOM
      1 P          22.8621   71.4839   -2.7278 P.3     1  UNL1        0.2189
      2 O          22.8817   73.0723   -2.4213 O.3     1  UNL1       -0.4371
      3 O          24.1991   70.8858   -3.0547 O.2     1  UNL1       -0.5170
      4 O          21.7221   71.3201   -3.8632 O.3     1  UNL1       -0.3112
      5 C          21.6251   72.3097   -4.8735 C.3     1  UNL1        0.1811
      6 O          20.5674   70.4638   -5.9907 O.3     1  UNL1       -0.3308
      7 O          20.9296   72.0305   -8.5216 O.3     1  UNL1       -0.3794
      8 O          18.3055   72.4664   -7.9218 O.3     1  UNL1       -0.3779
      9 C          20.6288   72.4963   -7.2062 C.3     1  UNL1        0.1713
     10 C          19.1889   72.1860   -6.8557 C.3     1  UNL1        0.1895
     11 C          21.3924   71.6284   -6.2145 C.3     1  UNL1        0.1764
     12 C          19.2561   70.7042   -6.5273 C.3     1  UNL1        0.2383
     13 H          21.8699   72.2155   -8.6866 H       1  UNL1        0.2105
     14 H          18.4024   73.4089   -8.1420 H       1  UNL1        0.2106
     15 O          16.6298   69.8780   -7.1560 O.2     1  UNL1       -0.2464
     16 O          15.5760   69.2274   -2.7170 O.2     1  UNL1       -0.2670
     17 N          18.2749   70.3129   -5.5560 N.ar    1  UNL1       -0.2551
     18 N          16.1066   69.5551   -4.9451 N.ar    1  UNL1       -0.2743
     19 C          16.9841   69.9154   -5.9763 C.ar    1  UNL1        0.3323
     20 C          18.5954   70.3255   -4.2030 C.ar    1  UNL1        0.0869
     21 C          17.7478   69.9786   -3.2320 C.ar    1  UNL1        0.0795
     22 C          16.3795   69.5519   -3.5859 C.ar    1  UNL1        0.2626
     23 H          15.1728   69.2664   -5.2238 H       1  UNL1        0.1734
     24 O          22.1534   70.8694   -1.4105 O.3     1  UNL1       -0.2703
     25 P          22.4723   71.0786    0.1603 P.3     1  UNL1        0.2208
     26 O          24.0746   70.8744    0.2440 O.3     1  UNL1       -0.4371
     27 O          21.6846   70.1831    1.0733 O.2     1  UNL1       -0.5170
     28 O          22.2475   72.6558    0.4167 O.3     1  UNL1       -0.2858
     29 O          21.2192   73.1894    2.4800 O.3     1  UNL1       -0.3226
     30 O          21.1157   76.8356    0.4866 O.3     1  UNL1       -0.3794
     31 O          20.5397   74.3540   -0.9331 O.3     1  UNL1       -0.3775
     32 O          20.5718   75.9293    3.0386 O.3     1  UNL1       -0.3792
     33 C          21.6067   75.5595    0.8875 C.3     1  UNL1        0.1718
     34 C          20.6215   74.4571    0.4844 C.3     1  UNL1        0.1968
     35 C          21.8012   75.5585    2.4063 C.3     1  UNL1        0.1723
     36 C          21.0555   73.1035    1.0606 C.3     1  UNL1        0.2706
     37 C          22.1908   74.1576    2.8729 C.3     1  UNL1        0.1830
     38 H          21.7683   77.5012    0.7635 H       1  UNL1        0.2105
     39 H          19.9138   73.6396   -1.1397 H       1  UNL1        0.2106
     40 H          19.9534   75.1820    2.9738 H       1  UNL1        0.2106
     41 O          23.5543   74.0909    4.7808 O.co2   1  UNL1       -0.5466
     42 O          21.3001   74.0147    5.1126 O.co2   1  UNL1       -0.5466
     43 C          22.2650   74.0786    4.3646 C.2     1  UNL1        0.0799
@<TRIPOS>UNITY_ATOM_ATTR
41 1
charge -1
@<TRIPOS>BOND
     1     1     4    1
     2     1    24    1
     3     1     2    1
     4     1     3    2
     5    25    28    1
     6    25    24    1
     7    25    26    1
     8    25    27    2
     9     6    11    1
    10     6    12    1
    11    29    36    1
    12    29    37    1
    13     7     9    1
    14     7    13    1
    15     8    10    1
    16     8    14    1
    17     4     5    1
    18    28    36    1
    19    30    33    1
    20    30    38    1
    21    31    34    1
    22    31    39    1
    23    32    35    1
    24    32    40    1
    25    41    43   ar
    26    15    19    2
    27    42    43   ar
    28    16    22    2
    29    17    12    1
    30    17    19   ar
    31    17    20   ar
    32    18    19   ar
    33    18    22   ar
    34    18    23    1
    35     9    10    1
    36     9    11    1
    37    10    12    1
    38    11     5    1
    39    33    34    1
    40    33    35    1
    41    34    36    1
    42    35    37    1
    43    37    43    1
    44    20    21   ar
    45    21    22   ar
@<TRIPOS>MOLECULE
UDP-glaA
 43 45 0 0 0
SMALL
GASTEIGER

@<TRIPOS>ATOM
      1 P          21.0391   72.0404   -5.0606 P.3     1  UNL1        0.2189
      2 O          21.2544   70.8289   -4.0102 O.3     1  UNL1       -0.4371
      3 O          19.8874   72.9509   -4.7493 O.2     1  UNL1       -0.5170
      4 O          20.9838   71.3036   -6.4992 O.3     1  UNL1       -0.3112
      5 C          20.1040   71.8122   -7.4874 C.3     1  UNL1        0.1811
      6 O          18.7526   69.8572   -7.1319 O.3     1  UNL1       -0.3308
      7 O          18.0484   70.0440  -10.0406 O.3     1  UNL1       -0.3794
      8 O          15.8545   71.1159   -8.8267 O.3     1  UNL1       -0.3779
      9 C          18.2706   71.0910   -9.0960 C.3     1  UNL1        0.1713
     10 C          17.0923   71.2054   -8.1520 C.3     1  UNL1        0.1895
     11 C          19.3876   70.6496   -8.1596 C.3     1  UNL1        0.1764
     12 C          17.3290   70.0382   -7.2088 C.3     1  UNL1        0.2383
     13 H          18.8433   69.9824  -10.5972 H       1  UNL1        0.2105
     14 H          15.8280   71.8308   -9.4857 H       1  UNL1        0.2106
     15 O          16.4320   68.0266   -5.4412 O.2     1  UNL1       -0.2464
     16 O          15.3852   71.1063   -2.1765 O.2     1  UNL1       -0.2670
     17 N          16.8178   70.2859   -5.8910 N.ar    1  UNL1       -0.2551
     18 N          15.9108   69.5616   -3.8169 N.ar    1  UNL1       -0.2743
     19 C          16.3924   69.2052   -5.0835 C.ar    1  UNL1        0.3323
     20 C          16.7414   71.5885   -5.4106 C.ar    1  UNL1        0.0869
     21 C          16.2803   71.9119   -4.2004 C.ar    1  UNL1        0.0795
     22 C          15.8153   70.8423   -3.2952 C.ar    1  UNL1        0.2626
     23 H          15.5989   68.8008   -3.2193 H       1  UNL1        0.1734
     24 O          22.4847   72.7651   -5.0790 O.3     1  UNL1       -0.2703
     25 P          23.1614   73.8075   -4.0456 P.3     1  UNL1        0.2208
     26 O          22.1486   75.0683   -4.0737 O.3     1  UNL1       -0.4371
     27 O          24.5884   74.1514   -4.3636 O.2     1  UNL1       -0.5170
     28 O          22.9442   73.1414   -2.5920 O.3     1  UNL1       -0.2858
     29 O          21.5517   73.0033   -0.6838 O.3     1  UNL1       -0.3226
     30 O          24.9999   74.7218    0.8770 O.3     1  UNL1       -0.3794
     31 O          23.9794   75.5502   -1.7265 O.3     1  UNL1       -0.3775
     32 O          22.6419   73.6911    1.8808 O.3     1  UNL1       -0.3792
     33 C          24.1938   73.8960    0.0411 C.3     1  UNL1        0.1718
     34 C          23.2450   74.7541   -0.8025 C.3     1  UNL1        0.1968
     35 C          23.3890   72.9360    0.9214 C.3     1  UNL1        0.1723
     36 C          22.2576   73.8717   -1.5763 C.3     1  UNL1        0.2706
     37 C          22.4145   72.1405    0.0555 C.3     1  UNL1        0.1830
     38 H          25.5815   74.1378    1.3930 H       1  UNL1        0.2105
     39 H          23.3382   76.0671   -2.2428 H       1  UNL1        0.2106
     40 H          21.8995   74.1220    1.4243 H       1  UNL1        0.2106
     41 O          20.4952   72.0125    1.3984 O.co2   1  UNL1       -0.5466
     42 O          21.6739   70.0863    1.0859 O.co2   1  UNL1       -0.5466
     43 C          21.5167   71.2826    0.8891 C.2     1  UNL1        0.0799
@<TRIPOS>UNITY_ATOM_ATTR
41 1
charge -1
@<TRIPOS>BOND
     1     1     4    1
     2     1    24    1
     3     1     2    1
     4     1     3    2
     5    25    28    1
     6    25    24    1
     7    25    26    1
     8    25    27    2
     9     6    11    1
    10     6    12    1
    11    29    36    1
    12    29    37    1
    13     7     9    1
    14     7    13    1
    15     8    10    1
    16     8    14    1
    17     4     5    1
    18    28    36    1
    19    30    33    1
    20    30    38    1
    21    31    34    1
    22    31    39    1
    23    32    35    1
    24    32    40    1
    25    41    43   ar
    26    15    19    2
    27    42    43   ar
    28    16    22    2
    29    17    12    1
    30    17    19   ar
    31    17    20   ar
    32    18    19   ar
    33    18    22   ar
    34    18    23    1
    35     9    10    1
    36     9    11    1
    37    10    12    1
    38    11     5    1
    39    33    34    1
    40    33    35    1
    41    34    36    1
    42    35    37    1
    43    37    43    1
    44    20    21   ar
    45    21    22   ar
@<TRIPOS>MOLECULE
UDP-glaA
 43 45 0 0 0
SMALL
GASTEIGER

@<TRIPOS>ATOM
      1 P          20.9133   72.6778   -4.4167 P.3     1  UNL1        0.2189
      2 O          19.9310   73.7692   -5.0957 O.3     1  UNL1       -0.4371
      3 O          21.5868   71.7458   -5.3810 O.2     1  UNL1       -0.5170
      4 O          19.9939   71.9757   -3.2865 O.3     1  UNL1       -0.3112
      5 C          19.3438   70.7566   -3.6033 C.3     1  UNL1        0.1811
      6 O          17.5823   71.5815   -5.0143 O.3     1  UNL1       -0.3308
      7 O          15.7001   70.0873   -3.2210 O.3     1  UNL1       -0.3794
      8 O          15.9116   68.4297   -5.3759 O.3     1  UNL1       -0.3779
      9 C          17.0160   69.7325   -3.6457 C.3     1  UNL1        0.1713
     10 C          16.9985   69.2864   -5.0925 C.3     1  UNL1        0.1895
     11 C          17.8467   71.0072   -3.7153 C.3     1  UNL1        0.1764
     12 C          16.9058   70.6111   -5.8303 C.3     1  UNL1        0.2383
     13 H          15.7669   70.4028   -2.3036 H       1  UNL1        0.2105
     14 H          15.9852   67.6589   -4.7871 H       1  UNL1        0.2106
     15 O          15.5108   70.6105   -8.2858 O.2     1  UNL1       -0.2464
     16 O          19.4217   70.4318  -10.7171 O.2     1  UNL1       -0.2670
     17 N          17.5341   70.5656   -7.1197 N.ar    1  UNL1       -0.2551
     18 N          17.4592   70.5210   -9.4949 N.ar    1  UNL1       -0.2743
     19 C          16.7424   70.5685   -8.2919 C.ar    1  UNL1        0.3323
     20 C          18.9205   70.5184   -7.2139 C.ar    1  UNL1        0.0869
     21 C          19.5891   70.4738   -8.3684 C.ar    1  UNL1        0.0795
     22 C          18.8371   70.4727   -9.6389 C.ar    1  UNL1        0.2626
     23 H          16.9106   70.5216  -10.3505 H       1  UNL1        0.1734
     24 O          21.9241   73.5919   -3.5461 O.3     1  UNL1       -0.2703
     25 P          23.5330   73.5473   -3.3977 P.3     1  UNL1        0.2208
     26 O          23.9832   75.0518   -3.7848 O.3     1  UNL1       -0.4371
     27 O          24.1970   72.4729   -4.2105 O.2     1  UNL1       -0.5170
     28 O          23.7942   73.4387   -1.8090 O.3     1  UNL1       -0.2858
     29 O          22.3450   72.6969   -0.0918 O.3     1  UNL1       -0.3226
     30 O          24.6358   75.5537    1.8754 O.3     1  UNL1       -0.3794
     31 O          23.6971   76.0242   -0.8455 O.3     1  UNL1       -0.3775
     32 O          22.7621   73.6515    2.5828 O.3     1  UNL1       -0.3792
     33 C          24.3225   74.5139    0.9530 C.3     1  UNL1        0.1718
     34 C          23.2243   74.9700   -0.0136 C.3     1  UNL1        0.1968
     35 C          23.8545   73.2831    1.7344 C.3     1  UNL1        0.1723
     36 C          22.7599   73.8053   -0.8969 C.3     1  UNL1        0.2706
     37 C          23.3792   72.2071    0.7605 C.3     1  UNL1        0.1830
     38 H          25.3316   75.2207    2.4675 H       1  UNL1        0.2105
     39 H          22.9731   76.2724   -1.4446 H       1  UNL1        0.2106
     40 H          21.9718   73.7788    2.0311 H       1  UNL1        0.2106
     41 O          23.5196   70.7413    2.5868 O.co2   1  UNL1       -0.5466
     42 O          21.7921   70.4260    1.1331 O.co2   1  UNL1       -0.5466
     43 C          22.7921   71.0363    1.4826 C.2     1  UNL1        0.0799
@<TRIPOS>UNITY_ATOM_ATTR
41 1
charge -1
@<TRIPOS>BOND
     1     1     4    1
     2     1    24    1
     3     1     2    1
     4     1     3    2
     5    25    28    1
     6    25    24    1
     7    25    26    1
     8    25    27    2
     9     6    11    1
    10     6    12    1
    11    29    36    1
    12    29    37    1
    13     7     9    1
    14     7    13    1
    15     8    10    1
    16     8    14    1
    17     4     5    1
    18    28    36    1
    19    30    33    1
    20    30    38    1
    21    31    34    1
    22    31    39    1
    23    32    35    1
    24    32    40    1
    25    41    43   ar
    26    15    19    2
    27    42    43   ar
    28    16    22    2
    29    17    12    1
    30    17    19   ar
    31    17    20   ar
    32    18    19   ar
    33    18    22   ar
    34    18    23    1
    35     9    10    1
    36     9    11    1
    37    10    12    1
    38    11     5    1
    39    33    34    1
    40    33    35    1
    41    34    36    1
    42    35    37    1
    43    37    43    1
    44    20    21   ar
    45    21    22   ar
@<TRIPOS>MOLECULE
UDP-glaA
 43 45 0 0 0
SMALL
GASTEIGER

@<TRIPOS>ATOM
      1 P          23.4395   71.8591   -3.2064 P.3     1  UNL1        0.2189
      2 O          24.0730   73.1069   -4.0182 O.3     1  UNL1       -0.4371
      3 O          24.3072   70.6362   -3.1475 O.2     1  UNL1       -0.5170
      4 O          21.9829   71.6558   -3.8791 O.3     1  UNL1       -0.3112
      5 C          21.5781   72.5501   -4.9016 C.3     1  UNL1        0.1811
      6 O          20.6576   70.5799   -5.9241 O.3     1  UNL1       -0.3308
      7 O          20.9876   72.0100   -8.5389 O.3     1  UNL1       -0.3794
      8 O          18.3288   72.3228   -8.0205 O.3     1  UNL1       -0.3779
      9 C          20.6286   72.5354   -7.2611 C.3     1  UNL1        0.1713
     10 C          19.2014   72.1609   -6.9214 C.3     1  UNL1        0.1895
     11 C          21.4179   71.7764   -6.2026 C.3     1  UNL1        0.1764
     12 C          19.3477   70.7083   -6.5010 C.3     1  UNL1        0.2383
     13 H          21.9191   72.2408   -8.6959 H       1  UNL1        0.2105
     14 H          18.3754   73.2544   -8.2964 H       1  UNL1        0.2106
     15 O          16.7266   69.8624   -7.1254 O.2     1  UNL1       -0.2464
     16 O          15.6740   69.2368   -2.6825 O.2     1  UNL1       -0.2670
     17 N          18.3682   70.3181   -5.5275 N.ar    1  UNL1       -0.2551
     18 N          16.2040   69.5519   -4.9125 N.ar    1  UNL1       -0.2743
     19 C          17.0800   69.9101   -5.9457 C.ar    1  UNL1        0.3323
     20 C          18.6878   70.3421   -4.1745 C.ar    1  UNL1        0.0869
     21 C          17.8417   69.9971   -3.2015 C.ar    1  UNL1        0.0795
     22 C          16.4761   69.5599   -3.5532 C.ar    1  UNL1        0.2626
     23 H          15.2720   69.2559   -5.1897 H       1  UNL1        0.1734
     24 O          23.0873   72.5051   -1.7662 O.3     1  UNL1       -0.2703
     25 P          22.8820   71.8180   -0.3177 P.3     1  UNL1        0.2208
     26 O          24.2872   71.0581   -0.0649 O.3     1  UNL1       -0.4371
     27 O          21.6724   70.9329   -0.2217 O.2     1  UNL1       -0.5170
     28 O          22.8908   73.0502    0.7243 O.3     1  UNL1       -0.2858
     29 O          24.2868   74.5129    1.9534 O.3     1  UNL1       -0.3226
     30 O          22.1341   72.6258    4.9674 O.3     1  UNL1       -0.3794
     31 O          23.1157   71.1110    2.6767 O.3     1  UNL1       -0.3775
     32 O          23.9009   74.7416    4.7885 O.3     1  UNL1       -0.3792
     33 C          22.3995   73.2003    3.6908 C.3     1  UNL1        0.1718
     34 C          23.5269   72.4385    2.9858 C.3     1  UNL1        0.1968
     35 C          22.7969   74.6667    3.8805 C.3     1  UNL1        0.1723
     36 C          23.9362   73.1503    1.6904 C.3     1  UNL1        0.2706
     37 C          23.2224   75.2607    2.5395 C.3     1  UNL1        0.1830
     38 H          21.4177   73.1399    5.3773 H       1  UNL1        0.2105
     39 H          23.8561   70.6723    2.2246 H       1  UNL1        0.2106
     40 H          24.7007   74.4357    4.3282 H       1  UNL1        0.2106
     41 O          22.7516   77.5588    2.5103 O.co2   1  UNL1       -0.5466
     42 O          24.8995   76.9449    2.9647 O.co2   1  UNL1       -0.5466
     43 C          23.7424   76.6541    2.6985 C.2     1  UNL1        0.0799
@<TRIPOS>UNITY_ATOM_ATTR
41 1
charge -1
@<TRIPOS>BOND
     1     1     4    1
     2     1    24    1
     3     1     2    1
     4     1     3    2
     5    25    28    1
     6    25    24    1
     7    25    26    1
     8    25    27    2
     9     6    11    1
    10     6    12    1
    11    29    36    1
    12    29    37    1
    13     7     9    1
    14     7    13    1
    15     8    10    1
    16     8    14    1
    17     4     5    1
    18    28    36    1
    19    30    33    1
    20    30    38    1
    21    31    34    1
    22    31    39    1
    23    32    35    1
    24    32    40    1
    25    41    43   ar
    26    15    19    2
    27    42    43   ar
    28    16    22    2
    29    17    12    1
    30    17    19   ar
    31    17    20   ar
    32    18    19   ar
    33    18    22   ar
    34    18    23    1
    35     9    10    1
    36     9    11    1
    37    10    12    1
    38    11     5    1
    39    33    34    1
    40    33    35    1
    41    34    36    1
    42    35    37    1
    43    37    43    1
    44    20    21   ar
    45    21    22   ar
@<TRIPOS>MOLECULE
UDP-glaA
 43 45 0 0 0
SMALL
GASTEIGER

@<TRIPOS>ATOM
      1 P          22.2868   73.0340   -6.3479 P.3     1  UNL1        0.2189
      2 O          21.2743   73.9970   -5.5325 O.3     1  UNL1       -0.4371
      3 O          23.1089   73.7234   -7.3971 O.2     1  UNL1       -0.5170
      4 O          21.3422   71.8309   -6.8732 O.3     1  UNL1       -0.3112
      5 C          20.0864   72.1558   -7.4447 C.3     1  UNL1        0.1811
      6 O          18.9589   70.0694   -7.0574 O.3     1  UNL1       -0.3308
      7 O          18.2359   70.1345   -9.9667 O.3     1  UNL1       -0.3794
      8 O          15.9383   70.9762   -8.7632 O.3     1  UNL1       -0.3779
      9 C          18.3422   71.2135   -9.0381 C.3     1  UNL1        0.1713
     10 C          17.1593   71.2113   -8.0929 C.3     1  UNL1        0.1895
     11 C          19.5019   70.9116   -8.0981 C.3     1  UNL1        0.1764
     12 C          17.5239   70.0914   -7.1334 C.3     1  UNL1        0.2383
     13 H          19.0322   70.1526  -10.5244 H       1  UNL1        0.2105
     14 H          15.8326   71.6740   -9.4325 H       1  UNL1        0.2106
     15 O          16.3244   68.0768   -5.5592 O.2     1  UNL1       -0.2464
     16 O          15.5064   71.0109   -2.1008 O.2     1  UNL1       -0.2670
     17 N          16.9896   70.3007   -5.8180 N.ar    1  UNL1       -0.2551
     18 N          15.9174   69.5393   -3.8383 N.ar    1  UNL1       -0.2743
     19 C          16.4074   69.2222   -5.1120 C.ar    1  UNL1        0.3323
     20 C          17.0454   71.5643   -5.2403 C.ar    1  UNL1        0.0869
     21 C          16.5742   71.8505   -4.0246 C.ar    1  UNL1        0.0795
     22 C          15.9498   70.7805   -3.2216 C.ar    1  UNL1        0.2626
     23 H          15.4939   68.7794   -3.3126 H       1  UNL1        0.1734
     24 O          23.1467   72.3332   -5.1712 O.3     1  UNL1       -0.2703
     25 P          22.6948   71.7396   -3.7373 P.3     1  UNL1        0.2208
     26 O          24.0091   70.9417   -3.2351 O.3     1  UNL1       -0.4371
     27 O          21.4443   70.9089   -3.7810 O.2     1  UNL1       -0.5170
     28 O          22.6055   73.0287   -2.7708 O.3     1  UNL1       -0.2858
     29 O          21.2837   72.2768   -0.9579 O.3     1  UNL1       -0.3226
     30 O          22.4306   76.0649    0.3126 O.3     1  UNL1       -0.3794
     31 O          21.6579   75.6034   -2.4615 O.3     1  UNL1       -0.3775
     32 O          21.1439   73.8839    1.4162 O.3     1  UNL1       -0.3792
     33 C          22.5275   74.8012   -0.3386 C.3     1  UNL1        0.1718
     34 C          21.4407   74.6678   -1.4107 C.3     1  UNL1        0.1968
     35 C          22.3719   73.6926    0.7060 C.3     1  UNL1        0.1723
     36 C          21.4273   73.2506   -1.9971 C.3     1  UNL1        0.2706
     37 C          22.3304   72.3339    0.0100 C.3     1  UNL1        0.1830
     38 H          23.1341   76.1043    0.9828 H       1  UNL1        0.2105
     39 H          20.9532   75.4753   -3.1187 H       1  UNL1        0.2106
     40 H          20.4075   73.6342    0.8327 H       1  UNL1        0.2106
     41 O          21.1538   70.3555    0.4629 O.co2   1  UNL1       -0.5466
     42 O          22.5565   71.1240    2.0872 O.co2   1  UNL1       -0.5466
     43 C          22.0495   71.2306    0.9800 C.2     1  UNL1        0.0799
@<TRIPOS>UNITY_ATOM_ATTR
41 1
charge -1
@<TRIPOS>BOND
     1     1     4    1
     2     1    24    1
     3     1     2    1
     4     1     3    2
     5    25    28    1
     6    25    24    1
     7    25    26    1
     8    25    27    2
     9     6    11    1
    10     6    12    1
    11    29    36    1
    12    29    37    1
    13     7     9    1
    14     7    13    1
    15     8    10    1
    16     8    14    1
    17     4     5    1
    18    28    36    1
    19    30    33    1
    20    30    38    1
    21    31    34    1
    22    31    39    1
    23    32    35    1
    24    32    40    1
    25    41    43   ar
    26    15    19    2
    27    42    43   ar
    28    16    22    2
    29    17    12    1
    30    17    19   ar
    31    17    20   ar
    32    18    19   ar
    33    18    22   ar
    34    18    23    1
    35     9    10    1
    36     9    11    1
    37    10    12    1
    38    11     5    1
    39    33    34    1
    40    33    35    1
    41    34    36    1
    42    35    37    1
    43    37    43    1
    44    20    21   ar
    45    21    22   ar
@<TRIPOS>MOLECULE
UDP-glaA
 43 45 0 0 0
SMALL
GASTEIGER

@<TRIPOS>ATOM
      1 P          23.0701   71.4847   -2.4312 P.3     1  UNL1        0.2189
      2 O          23.0242   73.0969   -2.3042 O.3     1  UNL1       -0.4371
      3 O          24.3027   70.9364   -3.0886 O.2     1  UNL1       -0.5170
      4 O          21.6675   71.1099   -3.1437 O.3     1  UNL1       -0.3112
      5 C          21.3127   71.7855   -4.3383 C.3     1  UNL1        0.1811
      6 O          19.6623   70.1441   -4.9355 O.3     1  UNL1       -0.3308
      7 O          20.7308   70.3589   -7.7290 O.3     1  UNL1       -0.3794
      8 O          18.4699   71.8793   -7.8378 O.3     1  UNL1       -0.3779
      9 C          20.5795   71.3763   -6.7391 C.3     1  UNL1        0.1713
     10 C          19.1201   71.7512   -6.5902 C.3     1  UNL1        0.1895
     11 C          20.8905   70.7605   -5.3813 C.3     1  UNL1        0.1764
     12 C          18.5796   70.5951   -5.7660 C.3     1  UNL1        0.2383
     13 H          21.6739   70.1241   -7.7614 H       1  UNL1        0.2105
     14 H          18.9422   72.5616   -8.3453 H       1  UNL1        0.2106
     15 O          16.7131   68.7973   -4.6436 O.2     1  UNL1       -0.2464
     16 O          14.4005   72.2044   -2.5742 O.2     1  UNL1       -0.2670
     17 N          17.4804   70.9848   -4.9298 N.ar    1  UNL1       -0.2551
     18 N          15.5625   70.4951   -3.6143 N.ar    1  UNL1       -0.2743
     19 C          16.5998   70.0035   -4.4175 C.ar    1  UNL1        0.3323
     20 C          17.2832   72.3270   -4.6251 C.ar    1  UNL1        0.0869
     21 C          16.2895   72.7799   -3.8573 C.ar    1  UNL1        0.0795
     22 C          15.3253   71.8203   -3.2835 C.ar    1  UNL1        0.2626
     23 H          14.9167   69.8076   -3.2355 H       1  UNL1        0.1734
     24 O          22.8452   70.9947   -0.9066 O.3     1  UNL1       -0.2703
     25 P          21.7398   71.4223    0.1924 P.3     1  UNL1        0.2208
     26 O          21.5048   70.0599    1.0320 O.3     1  UNL1       -0.4371
     27 O          20.4889   72.0149   -0.3904 O.2     1  UNL1       -0.5170
     28 O          22.5287   72.3970    1.2081 O.3     1  UNL1       -0.2858
     29 O          24.1436   72.2971    2.9348 O.3     1  UNL1       -0.3226
     30 O          21.1282   74.5550    4.6921 O.3     1  UNL1       -0.3794
     31 O          20.4760   72.2364    3.0475 O.3     1  UNL1       -0.3775
     32 O          23.7212   73.8386    5.3188 O.3     1  UNL1       -0.3792
     33 C          21.9743   74.0480    3.6638 C.3     1  UNL1        0.1718
     34 C          21.7872   72.5343    3.5156 C.3     1  UNL1        0.1968
     35 C          23.4297   74.3636    4.0195 C.3     1  UNL1        0.1723
     36 C          22.8130   71.9537    2.5343 C.3     1  UNL1        0.2706
     37 C          24.3606   73.7056    3.0034 C.3     1  UNL1        0.1830
     38 H          21.2814   75.5134    4.7522 H       1  UNL1        0.2105
     39 H          20.4080   71.2706    2.9605 H       1  UNL1        0.2106
     40 H          23.7976   72.8718    5.2513 H       1  UNL1        0.2106
     41 O          26.5620   72.9166    2.8152 O.co2   1  UNL1       -0.5466
     42 O          26.2287   74.7655    4.1065 O.co2   1  UNL1       -0.5466
     43 C          25.7965   73.8788    3.3844 C.2     1  UNL1        0.0799
@<TRIPOS>UNITY_ATOM_ATTR
41 1
charge -1
@<TRIPOS>BOND
     1     1     4    1
     2     1    24    1
     3     1     2    1
     4     1     3    2
     5    25    28    1
     6    25    24    1
     7    25    26    1
     8    25    27    2
     9     6    11    1
    10     6    12    1
    11    29    36    1
    12    29    37    1
    13     7     9    1
    14     7    13    1
    15     8    10    1
    16     8    14    1
    17     4     5    1
    18    28    36    1
    19    30    33    1
    20    30    38    1
    21    31    34    1
    22    31    39    1
    23    32    35    1
    24    32    40    1
    25    41    43   ar
    26    15    19    2
    27    42    43   ar
    28    16    22    2
    29    17    12    1
    30    17    19   ar
    31    17    20   ar
    32    18    19   ar
    33    18    22   ar
    34    18    23    1
    35     9    10    1
    36     9    11    1
    37    10    12    1
    38    11     5    1
    39    33    34    1
    40    33    35    1
    41    34    36    1
    42    35    37    1
    43    37    43    1
    44    20    21   ar
    45    21    22   ar
@<TRIPOS>MOLECULE
UDP-glaA
 43 45 0 0 0
SMALL
GASTEIGER

@<TRIPOS>ATOM
      1 P          23.0183   73.2330   -4.5949 P.3     1  UNL1        0.2189
      2 O          24.2197   72.2540   -4.1303 O.3     1  UNL1       -0.4371
      3 O          23.4587   74.5542   -5.1540 O.2     1  UNL1       -0.5170
      4 O          22.0513   73.3046   -3.3006 O.3     1  UNL1       -0.3112
      5 C          22.6297   73.1637   -2.0142 C.3     1  UNL1        0.1811
      6 O          23.3905   71.3023   -0.6986 O.3     1  UNL1       -0.3308
      7 O          20.5005   70.5475   -0.4355 O.3     1  UNL1       -0.3794
      8 O          21.0216   71.7512    1.9551 O.3     1  UNL1       -0.3779
      9 C          21.0954   71.8445   -0.4732 C.3     1  UNL1        0.1713
     10 C          21.7931   72.1406    0.8376 C.3     1  UNL1        0.1895
     11 C          22.2617   71.7981   -1.4516 C.3     1  UNL1        0.1764
     12 C          23.0737   71.3345    0.7028 C.3     1  UNL1        0.2383
     13 H          20.1006   70.3866   -1.3071 H       1  UNL1        0.2105
     14 H          20.1763   72.2303    1.9084 H       1  UNL1        0.2106
     15 O          24.9484   69.8793    2.2336 O.2     1  UNL1       -0.2464
     16 O          27.2397   73.7041    3.3995 O.2     1  UNL1       -0.2670
     17 N          24.1704   71.9243    1.4162 N.ar    1  UNL1       -0.2551
     18 N          26.0878   71.7849    2.8136 N.ar    1  UNL1       -0.2743
     19 C          25.0544   71.1046    2.1561 C.ar    1  UNL1        0.3323
     20 C          24.3614   73.3011    1.3787 C.ar    1  UNL1        0.0869
     21 C          25.3519   73.9346    2.0106 C.ar    1  UNL1        0.0795
     22 C          26.3183   73.1519    2.8061 C.ar    1  UNL1        0.2626
     23 H          26.7352   71.2159    3.3522 H       1  UNL1        0.1734
     24 O          22.1784   72.3120   -5.6252 O.3     1  UNL1       -0.2703
     25 P          20.9708   72.6806   -6.6345 P.3     1  UNL1        0.2208
     26 O          21.1591   71.6203   -7.8413 O.3     1  UNL1       -0.4371
     27 O          20.9489   74.1180   -7.0697 O.2     1  UNL1       -0.5170
     28 O          19.6356   72.1954   -5.8691 O.3     1  UNL1       -0.2858
     29 O          18.8591   70.0311   -5.3108 O.3     1  UNL1       -0.3226
     30 O          15.3127   72.0546   -6.0902 O.3     1  UNL1       -0.3794
     31 O          17.6569   72.4705   -7.7747 O.3     1  UNL1       -0.3775
     32 O          16.0331   69.5926   -5.0659 O.3     1  UNL1       -0.3792
     33 C          16.6526   71.8532   -5.6494 C.3     1  UNL1        0.1718
     34 C          17.5411   71.4203   -6.8206 C.3     1  UNL1        0.1968
     35 C          16.6593   70.7765   -4.5609 C.3     1  UNL1        0.1723
     36 C          18.9414   71.0359   -6.3269 C.3     1  UNL1        0.2706
     37 C          18.0994   70.4446   -4.1761 C.3     1  UNL1        0.1830
     38 H          14.7872   72.3244   -5.3178 H       1  UNL1        0.2105
     39 H          18.2340   72.1546   -8.4902 H       1  UNL1        0.2106
     40 H          16.6408   69.1650   -5.6928 H       1  UNL1        0.2106
     41 O          18.3834   69.7573   -1.9511 O.co2   1  UNL1       -0.5466
     42 O          18.0212   68.1272   -3.5030 O.co2   1  UNL1       -0.5466
     43 C          18.1587   69.3056   -3.2085 C.2     1  UNL1        0.0799
@<TRIPOS>UNITY_ATOM_ATTR
41 1
charge -1
@<TRIPOS>BOND
     1     1     4    1
     2     1    24    1
     3     1     2    1
     4     1     3    2
     5    25    28    1
     6    25    24    1
     7    25    26    1
     8    25    27    2
     9     6    11    1
    10     6    12    1
    11    29    36    1
    12    29    37    1
    13     7     9    1
    14     7    13    1
    15     8    10    1
    16     8    14    1
    17     4     5    1
    18    28    36    1
    19    30    33    1
    20    30    38    1
    21    31    34    1
    22    31    39    1
    23    32    35    1
    24    32    40    1
    25    41    43   ar
    26    15    19    2
    27    42    43   ar
    28    16    22    2
    29    17    12    1
    30    17    19   ar
    31    17    20   ar
    32    18    19   ar
    33    18    22   ar
    34    18    23    1
    35     9    10    1
    36     9    11    1
    37    10    12    1
    38    11     5    1
    39    33    34    1
    40    33    35    1
    41    34    36    1
    42    35    37    1
    43    37    43    1
    44    20    21   ar
    45    21    22   ar
@<TRIPOS>MOLECULE
UDP-glaA
 43 45 0 0 0
SMALL
GASTEIGER

@<TRIPOS>ATOM
      1 P          20.6848   70.8153   -3.1200 P.3     1  UNL1        0.2189
      2 O          21.5482   72.1056   -3.5750 O.3     1  UNL1       -0.4371
      3 O          20.7762   69.6352   -4.0426 O.2     1  UNL1       -0.5170
      4 O          19.1986   71.4060   -2.8793 O.3     1  UNL1       -0.3112
      5 C          18.7362   72.4430   -3.7278 C.3     1  UNL1        0.1811
      6 O          16.9860   72.4140   -5.3741 O.3     1  UNL1       -0.3308
      7 O          15.3372   70.9752   -3.3241 O.3     1  UNL1       -0.3794
      8 O          16.1607   68.9501   -4.9541 O.3     1  UNL1       -0.3779
      9 C          16.7366   70.8773   -3.5884 C.3     1  UNL1        0.1713
     10 C          16.9768   70.0998   -4.8652 C.3     1  UNL1        0.1895
     11 C          17.2425   72.2649   -3.9602 C.3     1  UNL1        0.1764
     12 C          16.6488   71.1324   -5.9302 C.3     1  UNL1        0.2383
     13 H          15.2309   71.5130   -2.5210 H       1  UNL1        0.2105
     14 H          16.3539   68.3936   -4.1800 H       1  UNL1        0.2106
     15 O          15.5015   70.6320   -8.4617 O.2     1  UNL1       -0.2464
     16 O          19.6331   70.3846  -10.4884 O.2     1  UNL1       -0.2670
     17 N          17.4008   70.9340   -7.1362 N.ar    1  UNL1       -0.2551
     18 N          17.5597   70.5086   -9.4691 N.ar    1  UNL1       -0.2743
     19 C          16.7281   70.6883   -8.3560 C.ar    1  UNL1        0.3323
     20 C          18.7900   70.9836   -7.1029 C.ar    1  UNL1        0.0869
     21 C          19.5688   70.8107   -8.1731 C.ar    1  UNL1        0.0795
     22 C          18.9453   70.5485   -9.4854 C.ar    1  UNL1        0.2626
     23 H          17.0978   70.3300  -10.3568 H       1  UNL1        0.1734
     24 O          21.2130   70.5376   -1.6170 O.3     1  UNL1       -0.2703
     25 P          21.0615   71.4065   -0.2625 P.3     1  UNL1        0.2208
     26 O          21.4116   70.3410    0.9030 O.3     1  UNL1       -0.4371
     27 O          19.7272   72.0785   -0.1077 O.2     1  UNL1       -0.5170
     28 O          22.3189   72.4177   -0.2825 O.3     1  UNL1       -0.2858
     29 O          22.6835   73.9908    1.4472 O.3     1  UNL1       -0.3226
     30 O          24.9009   75.6025   -1.6777 O.3     1  UNL1       -0.3794
     31 O          22.2776   74.4287   -2.1737 O.3     1  UNL1       -0.3775
     32 O          24.5675   76.1130    1.0164 O.3     1  UNL1       -0.3792
     33 C          24.3093   74.6035   -0.8516 C.3     1  UNL1        0.1718
     34 C          22.7820   74.7256   -0.8759 C.3     1  UNL1        0.1968
     35 C          24.8259   74.7747    0.5795 C.3     1  UNL1        0.1723
     36 C          22.1444   73.7695    0.1398 C.3     1  UNL1        0.2706
     37 C          24.0969   73.8054    1.5076 C.3     1  UNL1        0.1830
     38 H          25.8655   75.4891   -1.6301 H       1  UNL1        0.2105
     39 H          21.3096   74.5096   -2.1378 H       1  UNL1        0.2106
     40 H          23.6162   76.2008    1.1970 H       1  UNL1        0.2106
     41 O          23.5485   74.7874    3.5664 O.co2   1  UNL1       -0.5466
     42 O          25.4818   73.5830    3.4729 O.co2   1  UNL1       -0.5466
     43 C          24.4764   74.0267    2.9373 C.2     1  UNL1        0.0799
@<TRIPOS>UNITY_ATOM_ATTR
41 1
charge -1
@<TRIPOS>BOND
     1     1     4    1
     2     1    24    1
     3     1     2    1
     4     1     3    2
     5    25    28    1
     6    25    24    1
     7    25    26    1
     8    25    27    2
     9     6    11    1
    10     6    12    1
    11    29    36    1
    12    29    37    1
    13     7     9    1
    14     7    13    1
    15     8    10    1
    16     8    14    1
    17     4     5    1
    18    28    36    1
    19    30    33    1
    20    30    38    1
    21    31    34    1
    22    31    39    1
    23    32    35    1
    24    32    40    1
    25    41    43   ar
    26    15    19    2
    27    42    43   ar
    28    16    22    2
    29    17    12    1
    30    17    19   ar
    31    17    20   ar
    32    18    19   ar
    33    18    22   ar
    34    18    23    1
    35     9    10    1
    36     9    11    1
    37    10    12    1
    38    11     5    1
    39    33    34    1
    40    33    35    1
    41    34    36    1
    42    35    37    1
    43    37    43    1
    44    20    21   ar
    45    21    22   ar
@<TRIPOS>MOLECULE
UDP-glaA
 43 45 0 0 0
SMALL
GASTEIGER

@<TRIPOS>ATOM
      1 P          23.2771   73.2792   -4.4955 P.3     1  UNL1        0.2189
      2 O          22.7978   74.8113   -4.6962 O.3     1  UNL1       -0.4371
      3 O          24.7219   73.1112   -4.1259 O.2     1  UNL1       -0.5170
      4 O          22.8099   72.5430   -5.8577 O.3     1  UNL1       -0.3112
      5 C          21.4817   72.0554   -5.9428 C.3     1  UNL1        0.1811
      6 O          19.6925   72.0842   -7.5466 O.3     1  UNL1       -0.3308
      7 O          19.7218   75.0676   -7.2466 O.3     1  UNL1       -0.3794
      8 O          17.5979   74.3345   -5.7014 O.3     1  UNL1       -0.3779
      9 C          19.9474   74.0586   -6.2623 C.3     1  UNL1        0.1713
     10 C          18.6402   73.3976   -5.8786 C.3     1  UNL1        0.1895
     11 C          20.7002   72.9137   -6.9273 C.3     1  UNL1        0.1764
     12 C          18.3976   72.4700   -7.0570 C.3     1  UNL1        0.2383
     13 H          20.5889   75.4347   -7.4892 H       1  UNL1        0.2105
     14 H          17.8774   74.9554   -5.0068 H       1  UNL1        0.2106
     15 O          16.0262   71.5974   -8.3180 O.2     1  UNL1       -0.2464
     16 O          15.6837   67.9321   -5.5456 O.2     1  UNL1       -0.2670
     17 N          17.6684   71.2912   -6.6856 N.ar    1  UNL1       -0.2551
     18 N          15.8569   69.7731   -6.9363 N.ar    1  UNL1       -0.2743
     19 C          16.4881   70.9417   -7.3825 C.ar    1  UNL1        0.3323
     20 C          18.1238   70.4948   -5.6407 C.ar    1  UNL1        0.0869
     21 C          17.5110   69.3833   -5.2275 C.ar    1  UNL1        0.0795
     22 C          16.2715   68.9487   -5.9017 C.ar    1  UNL1        0.2626
     23 H          15.0062   69.5027   -7.4223 H       1  UNL1        0.1734
     24 O          22.2314   72.7129   -3.3997 O.3     1  UNL1       -0.2703
     25 P          22.2717   71.3810   -2.4848 P.3     1  UNL1        0.2208
     26 O          23.8305   70.9512   -2.5237 O.3     1  UNL1       -0.4371
     27 O          21.3206   70.3041   -2.9223 O.2     1  UNL1       -0.5170
     28 O          22.0318   71.9113   -0.9798 O.3     1  UNL1       -0.2858
     29 O          23.8552   72.7897    0.2462 O.3     1  UNL1       -0.3226
     30 O          21.0732   72.0373    3.2419 O.3     1  UNL1       -0.3794
     31 O          21.4474   70.1416    1.0573 O.3     1  UNL1       -0.3775
     32 O          23.5225   73.3001    3.0511 O.3     1  UNL1       -0.3792
     33 C          21.5685   72.3968    1.9551 C.3     1  UNL1        0.1718
     34 C          22.3311   71.2241    1.3292 C.3     1  UNL1        0.1968
     35 C          22.4959   73.6063    2.1017 C.3     1  UNL1        0.1723
     36 C          23.0126   71.6540    0.0242 C.3     1  UNL1        0.2706
     37 C          23.1481   73.9189    0.7566 C.3     1  UNL1        0.1830
     38 H          20.6010   72.8081    3.6003 H       1  UNL1        0.2105
     39 H          21.9716   69.4290    0.6546 H       1  UNL1        0.2106
     40 H          24.1529   72.6866    2.6373 H       1  UNL1        0.2106
     41 O          25.3199   74.5349    1.3948 O.co2   1  UNL1       -0.5466
     42 O          23.9775   76.1780    0.5611 O.co2   1  UNL1       -0.5466
     43 C          24.1610   75.0123    0.8805 C.2     1  UNL1        0.0799
@<TRIPOS>UNITY_ATOM_ATTR
41 1
charge -1
@<TRIPOS>BOND
     1     1     4    1
     2     1    24    1
     3     1     2    1
     4     1     3    2
     5    25    28    1
     6    25    24    1
     7    25    26    1
     8    25    27    2
     9     6    11    1
    10     6    12    1
    11    29    36    1
    12    29    37    1
    13     7     9    1
    14     7    13    1
    15     8    10    1
    16     8    14    1
    17     4     5    1
    18    28    36    1
    19    30    33    1
    20    30    38    1
    21    31    34    1
    22    31    39    1
    23    32    35    1
    24    32    40    1
    25    41    43   ar
    26    15    19    2
    27    42    43   ar
    28    16    22    2
    29    17    12    1
    30    17    19   ar
    31    17    20   ar
    32    18    19   ar
    33    18    22   ar
    34    18    23    1
    35     9    10    1
    36     9    11    1
    37    10    12    1
    38    11     5    1
    39    33    34    1
    40    33    35    1
    41    34    36    1
    42    35    37    1
    43    37    43    1
    44    20    21   ar
    45    21    22   ar
@<TRIPOS>MOLECULE
UDP-glaA
 43 45 0 0 0
SMALL
GASTEIGER

@<TRIPOS>ATOM
      1 P          15.7224   70.9311   -2.7551 P.3     1  UNL1        0.2189
      2 O          17.0959   71.2614   -1.9665 O.3     1  UNL1       -0.4371
      3 O          14.6913   72.0207   -2.7142 O.2     1  UNL1       -0.5170
      4 O          15.2605   69.5033   -2.1519 O.3     1  UNL1       -0.3112
      5 C          14.6538   69.4732   -0.8712 C.3     1  UNL1        0.1811
      6 O          12.5780   68.3373   -0.4530 O.3     1  UNL1       -0.3308
      7 O          11.2501   70.9839   -0.9260 O.3     1  UNL1       -0.3794
      8 O          11.2694   70.8052    1.7949 O.3     1  UNL1       -0.3779
      9 C          12.5007   70.7001   -0.2988 C.3     1  UNL1        0.1713
     10 C          12.2761   70.1181    1.0808 C.3     1  UNL1        0.1895
     11 C          13.1420   69.5324   -1.0369 C.3     1  UNL1        0.1764
     12 C          11.8892   68.6845    0.7596 C.3     1  UNL1        0.2383
     13 H          11.4428   71.3169   -1.8190 H       1  UNL1        0.2105
     14 H          11.5427   71.7363    1.8632 H       1  UNL1        0.2106
     15 O          11.3217   65.9182    0.7326 O.2     1  UNL1       -0.2464
     16 O          13.4136   65.2636    4.7865 O.2     1  UNL1       -0.2670
     17 N          12.2741   67.7678    1.7944 N.ar    1  UNL1       -0.2551
     18 N          12.3633   65.5941    2.7516 N.ar    1  UNL1       -0.2743
     19 C          11.9393   66.3978    1.6851 C.ar    1  UNL1        0.3323
     20 C          12.9755   68.2286    2.9030 C.ar    1  UNL1        0.0869
     21 C          13.3731   67.4496    3.9114 C.ar    1  UNL1        0.0795
     22 C          13.0628   66.0067    3.8751 C.ar    1  UNL1        0.2626
     23 H          12.1332   64.6058    2.6946 H       1  UNL1        0.1734
     24 O          16.2394   70.5483   -4.2388 O.3     1  UNL1       -0.2703
     25 P          16.9823   69.2246   -4.7940 P.3     1  UNL1        0.2208
     26 O          15.7556   68.2758   -5.2535 O.3     1  UNL1       -0.4371
     27 O          17.9237   68.5887   -3.8116 O.2     1  UNL1       -0.5170
     28 O          17.6753   69.6930   -6.1740 O.3     1  UNL1       -0.2858
     29 O          18.9906   71.6281   -5.8203 O.3     1  UNL1       -0.3226
     30 O          19.2837   71.1158   -9.9350 O.3     1  UNL1       -0.3794
     31 O          16.7409   70.7023   -8.5679 O.3     1  UNL1       -0.3775
     32 O          20.4663   72.7233   -8.0251 O.3     1  UNL1       -0.3792
     33 C          19.1707   70.7563   -8.5609 C.3     1  UNL1        0.1718
     34 C          17.8748   71.3181   -7.9663 C.3     1  UNL1        0.1968
     35 C          20.3791   71.3120   -7.8025 C.3     1  UNL1        0.1723
     36 C          17.8264   71.0846   -6.4512 C.3     1  UNL1        0.2706
     37 C          20.2060   71.0604   -6.3062 C.3     1  UNL1        0.1830
     38 H          20.1173   70.7422  -10.2684 H       1  UNL1        0.2105
     39 H          15.9472   71.0816   -8.1544 H       1  UNL1        0.2106
     40 H          19.7642   73.1606   -7.5143 H       1  UNL1        0.2106
     41 O          22.3998   71.8914   -6.2824 O.co2   1  UNL1       -0.5466
     42 O          21.2216   72.0149   -4.3346 O.co2   1  UNL1       -0.5466
     43 C          21.3007   71.7008   -5.5134 C.2     1  UNL1        0.0799
@<TRIPOS>UNITY_ATOM_ATTR
41 1
charge -1
@<TRIPOS>BOND
     1     1     4    1
     2     1    24    1
     3     1     2    1
     4     1     3    2
     5    25    28    1
     6    25    24    1
     7    25    26    1
     8    25    27    2
     9     6    11    1
    10     6    12    1
    11    29    36    1
    12    29    37    1
    13     7     9    1
    14     7    13    1
    15     8    10    1
    16     8    14    1
    17     4     5    1
    18    28    36    1
    19    30    33    1
    20    30    38    1
    21    31    34    1
    22    31    39    1
    23    32    35    1
    24    32    40    1
    25    41    43   ar
    26    15    19    2
    27    42    43   ar
    28    16    22    2
    29    17    12    1
    30    17    19   ar
    31    17    20   ar
    32    18    19   ar
    33    18    22   ar
    34    18    23    1
    35     9    10    1
    36     9    11    1
    37    10    12    1
    38    11     5    1
    39    33    34    1
    40    33    35    1
    41    34    36    1
    42    35    37    1
    43    37    43    1
    44    20    21   ar
    45    21    22   ar
@<TRIPOS>MOLECULE
UDP-glaA
 43 45 0 0 0
SMALL
GASTEIGER

@<TRIPOS>ATOM
      1 P          21.7932   72.4193   -5.5426 P.3     1  UNL1        0.2189
      2 O          21.0859   73.8368   -5.2146 O.3     1  UNL1       -0.4371
      3 O          23.0717   72.5153   -6.3226 O.2     1  UNL1       -0.5170
      4 O          20.6165   71.5456   -6.2264 O.3     1  UNL1       -0.3112
      5 C          20.1409   71.9324   -7.5044 C.3     1  UNL1        0.1811
      6 O          18.8866   69.9179   -7.1266 O.3     1  UNL1       -0.3308
      7 O          18.1213   70.0737  -10.0217 O.3     1  UNL1       -0.3794
      8 O          15.9036   71.0442   -8.7665 O.3     1  UNL1       -0.3779
      9 C          18.3130   71.1293   -9.0801 C.3     1  UNL1        0.1713
     10 C          17.1483   71.1896   -8.1145 C.3     1  UNL1        0.1895
     11 C          19.4659   70.7387   -8.1648 C.3     1  UNL1        0.1764
     12 C          17.4551   70.0340   -7.1772 C.3     1  UNL1        0.2383
     13 H          18.9078   70.0485  -10.5929 H       1  UNL1        0.2105
     14 H          15.8325   71.7575   -9.4240 H       1  UNL1        0.2106
     15 O          16.2870   68.0399   -5.5540 O.2     1  UNL1       -0.2464
     16 O          15.5782   71.0083   -2.1007 O.2     1  UNL1       -0.2670
     17 N          16.9574   70.2577   -5.8499 N.ar    1  UNL1       -0.2551
     18 N          15.9343   69.5195   -3.8357 N.ar    1  UNL1       -0.2743
     19 C          16.3882   69.1886   -5.1193 C.ar    1  UNL1        0.3323
     20 C          17.0356   71.5258   -5.2849 C.ar    1  UNL1        0.0869
     21 C          16.5987   71.8251   -4.0596 C.ar    1  UNL1        0.0795
     22 C          15.9901   70.7657   -3.2309 C.ar    1  UNL1        0.2626
     23 H          15.5209   68.7666   -3.2923 H       1  UNL1        0.1734
     24 O          21.9449   71.7434   -4.0813 O.3     1  UNL1       -0.2703
     25 P          23.1083   71.8767   -2.9671 P.3     1  UNL1        0.2208
     26 O          23.6555   73.3837   -3.1804 O.3     1  UNL1       -0.4371
     27 O          24.1670   70.8148   -3.0519 O.2     1  UNL1       -0.5170
     28 O          22.3221   71.9232   -1.5586 O.3     1  UNL1       -0.2858
     29 O          23.8226   72.8720    0.0059 O.3     1  UNL1       -0.3226
     30 O          20.4142   72.2868    2.3123 O.3     1  UNL1       -0.3794
     31 O          21.2612   70.2710    0.3824 O.3     1  UNL1       -0.3775
     32 O          22.8559   73.5401    2.6246 O.3     1  UNL1       -0.3792
     33 C          21.1981   72.5735    1.1575 C.3     1  UNL1        0.1718
     34 C          22.0708   71.3683    0.7913 C.3     1  UNL1        0.1968
     35 C          22.0807   73.7906    1.4477 C.3     1  UNL1        0.1723
     36 C          23.0409   71.7245   -0.3421 C.3     1  UNL1        0.2706
     37 C          23.0300   74.0274    0.2752 C.3     1  UNL1        0.1830
     38 H          19.8810   73.0761    2.5083 H       1  UNL1        0.2105
     39 H          21.8559   69.5374    0.1522 H       1  UNL1        0.2106
     40 H          23.5577   72.9049    2.4028 H       1  UNL1        0.2106
     41 O          24.9734   75.1715   -0.3714 O.co2   1  UNL1       -0.5466
     42 O          23.9286   75.8883    1.5239 O.co2   1  UNL1       -0.5466
     43 C          23.9996   75.1274    0.5697 C.2     1  UNL1        0.0799
@<TRIPOS>UNITY_ATOM_ATTR
41 1
charge -1
@<TRIPOS>BOND
     1     1     4    1
     2     1    24    1
     3     1     2    1
     4     1     3    2
     5    25    28    1
     6    25    24    1
     7    25    26    1
     8    25    27    2
     9     6    11    1
    10     6    12    1
    11    29    36    1
    12    29    37    1
    13     7     9    1
    14     7    13    1
    15     8    10    1
    16     8    14    1
    17     4     5    1
    18    28    36    1
    19    30    33    1
    20    30    38    1
    21    31    34    1
    22    31    39    1
    23    32    35    1
    24    32    40    1
    25    41    43   ar
    26    15    19    2
    27    42    43   ar
    28    16    22    2
    29    17    12    1
    30    17    19   ar
    31    17    20   ar
    32    18    19   ar
    33    18    22   ar
    34    18    23    1
    35     9    10    1
    36     9    11    1
    37    10    12    1
    38    11     5    1
    39    33    34    1
    40    33    35    1
    41    34    36    1
    42    35    37    1
    43    37    43    1
    44    20    21   ar
    45    21    22   ar
@<TRIPOS>MOLECULE
UDP-glaA
 43 45 0 0 0
SMALL
GASTEIGER

@<TRIPOS>ATOM
      1 P          21.8886   72.4734   -5.7392 P.3     1  UNL1        0.2189
      2 O          21.2141   73.8987   -5.3772 O.3     1  UNL1       -0.4371
      3 O          23.1072   72.5531   -6.6115 O.2     1  UNL1       -0.5170
      4 O          20.6609   71.5988   -6.3249 O.3     1  UNL1       -0.3112
      5 C          20.1025   71.9669   -7.5747 C.3     1  UNL1        0.1811
      6 O          18.8778   69.9440   -7.1477 O.3     1  UNL1       -0.3308
      7 O          18.1235   70.0095  -10.0491 O.3     1  UNL1       -0.3794
      8 O          15.8853   70.9789   -8.8299 O.3     1  UNL1       -0.3779
      9 C          18.2945   71.0931   -9.1356 C.3     1  UNL1        0.1713
     10 C          17.1246   71.1613   -8.1769 C.3     1  UNL1        0.1895
     11 C          19.4491   70.7454   -8.2053 C.3     1  UNL1        0.1764
     12 C          17.4449   70.0364   -7.2073 C.3     1  UNL1        0.2383
     13 H          18.9129   69.9811  -10.6161 H       1  UNL1        0.2105
     14 H          15.8062   71.6730   -9.5068 H       1  UNL1        0.2106
     15 O          16.3372   68.0613   -5.5199 O.2     1  UNL1       -0.2464
     16 O          15.5279   71.1185   -2.1678 O.2     1  UNL1       -0.2670
     17 N          16.9377   70.2881   -5.8887 N.ar    1  UNL1       -0.2551
     18 N          15.9344   69.5851   -3.8520 N.ar    1  UNL1       -0.2743
     19 C          16.4012   69.2263   -5.1235 C.ar    1  UNL1        0.3323
     20 C          16.9746   71.5761   -5.3660 C.ar    1  UNL1        0.0869
     21 C          16.5261   71.9019   -4.1518 C.ar    1  UNL1        0.0795
     22 C          15.9496   70.8517   -3.2890 C.ar    1  UNL1        0.2626
     23 H          15.5439   68.8379   -3.2843 H       1  UNL1        0.1734
     24 O          22.1433   71.8134   -4.2850 O.3     1  UNL1       -0.2703
     25 P          23.3907   71.9437   -3.2652 P.3     1  UNL1        0.2208
     26 O          24.1027   73.3215   -3.7241 O.3     1  UNL1       -0.4371
     27 O          24.3018   70.7498   -3.2509 O.2     1  UNL1       -0.5170
     28 O          22.7186   72.2866   -1.8388 O.3     1  UNL1       -0.2858
     29 O          23.3123   70.8564   -0.0495 O.3     1  UNL1       -0.3226
     30 O          20.1193   72.9799    1.5553 O.3     1  UNL1       -0.3794
     31 O          20.0411   72.0502   -1.2080 O.3     1  UNL1       -0.3775
     32 O          22.0106   71.1948    2.4862 O.3     1  UNL1       -0.3792
     33 C          21.2809   72.7291    0.7690 C.3     1  UNL1        0.1718
     34 C          21.0056   71.6208   -0.2528 C.3     1  UNL1        0.1968
     35 C          22.4264   72.3139    1.6964 C.3     1  UNL1        0.1723
     36 C          22.2937   71.2250   -0.9852 C.3     1  UNL1        0.2706
     37 C          23.6385   71.9037    0.8628 C.3     1  UNL1        0.1830
     38 H          20.3399   73.6845    2.1881 H       1  UNL1        0.2105
     39 H          19.9069   71.3217   -1.8373 H       1  UNL1        0.2106
     40 H          21.9935   70.4056    1.9188 H       1  UNL1        0.2106
     41 O          24.7112   70.0128    1.7446 O.co2   1  UNL1       -0.5466
     42 O          25.5545   72.0498    2.3248 O.co2   1  UNL1       -0.5466
     43 C          24.7380   71.3672    1.7232 C.2     1  UNL1        0.0799
@<TRIPOS>UNITY_ATOM_ATTR
41 1
charge -1
@<TRIPOS>BOND
     1     1     4    1
     2     1    24    1
     3     1     2    1
     4     1     3    2
     5    25    28    1
     6    25    24    1
     7    25    26    1
     8    25    27    2
     9     6    11    1
    10     6    12    1
    11    29    36    1
    12    29    37    1
    13     7     9    1
    14     7    13    1
    15     8    10    1
    16     8    14    1
    17     4     5    1
    18    28    36    1
    19    30    33    1
    20    30    38    1
    21    31    34    1
    22    31    39    1
    23    32    35    1
    24    32    40    1
    25    41    43   ar
    26    15    19    2
    27    42    43   ar
    28    16    22    2
    29    17    12    1
    30    17    19   ar
    31    17    20   ar
    32    18    19   ar
    33    18    22   ar
    34    18    23    1
    35     9    10    1
    36     9    11    1
    37    10    12    1
    38    11     5    1
    39    33    34    1
    40    33    35    1
    41    34    36    1
    42    35    37    1
    43    37    43    1
    44    20    21   ar
    45    21    22   ar
@<TRIPOS>MOLECULE
UDP-glaA
 43 45 0 0 0
SMALL
GASTEIGER

@<TRIPOS>ATOM
      1 P          20.9457   75.3006   -1.2088 P.3     1  UNL1        0.2189
      2 O          21.4549   76.7634   -1.6759 O.3     1  UNL1       -0.4371
      3 O          19.6389   75.2911   -0.4709 O.2     1  UNL1       -0.5170
      4 O          22.2092   74.6852   -0.4086 O.3     1  UNL1       -0.3112
      5 C          22.1719   74.6708    1.0083 C.3     1  UNL1        0.1811
      6 O          22.6952   72.3562    1.3870 O.3     1  UNL1       -0.3308
      7 O          20.2436   72.2776    3.1118 O.3     1  UNL1       -0.3794
      8 O          22.2545   72.4699    4.9435 O.3     1  UNL1       -0.3779
      9 C          21.1899   73.3316    2.9348 C.3     1  UNL1        0.1713
     10 C          22.4807   73.0050    3.6559 C.3     1  UNL1        0.1895
     11 C          21.6298   73.3279    1.4766 C.3     1  UNL1        0.1764
     12 C          23.1249   72.0037    2.7123 C.3     1  UNL1        0.2383
     13 H          19.4497   72.5123    2.6017 H       1  UNL1        0.2105
     14 H          21.7443   73.1267    5.4480 H       1  UNL1        0.2106
     15 O          24.8089   69.8407    2.0333 O.2     1  UNL1       -0.2464
     16 O          28.6122   72.2748    2.9544 O.2     1  UNL1       -0.2670
     17 N          24.5584   72.0446    2.7649 N.ar    1  UNL1       -0.2551
     18 N          26.7017   71.0541    2.4929 N.ar    1  UNL1       -0.2743
     19 C          25.3116   70.9031    2.4038 C.ar    1  UNL1        0.3323
     20 C          25.2041   73.2071    3.1712 C.ar    1  UNL1        0.0869
     21 C          26.5304   73.3354    3.2504 C.ar    1  UNL1        0.0795
     22 C          27.3896   72.1896    2.8918 C.ar    1  UNL1        0.2626
     23 H          27.2633   70.2459    2.2387 H       1  UNL1        0.1734
     24 O          20.9455   74.4590   -2.5897 O.3     1  UNL1       -0.2703
     25 P          21.4773   72.9696   -2.9236 P.3     1  UNL1        0.2208
     26 O          20.6939   72.0466   -1.8510 O.3     1  UNL1       -0.4371
     27 O          22.9720   72.8272   -2.8894 O.2     1  UNL1       -0.5170
     28 O          20.8052   72.6044   -4.3445 O.3     1  UNL1       -0.2858
     29 O          20.0011   70.6101   -5.3322 O.3     1  UNL1       -0.3226
     30 O          21.8580   72.4854   -8.5438 O.3     1  UNL1       -0.3794
     31 O          23.0856   72.5161   -5.8984 O.3     1  UNL1       -0.3775
     32 O          20.2476   70.2722   -8.1718 O.3     1  UNL1       -0.3792
     33 C          21.1264   72.3579   -7.3278 C.3     1  UNL1        0.1718
     34 C          21.9871   71.6832   -6.2544 C.3     1  UNL1        0.1968
     35 C          19.8692   71.5246   -7.5913 C.3     1  UNL1        0.1723
     36 C          21.1567   71.3864   -4.9995 C.3     1  UNL1        0.2706
     37 C          19.1456   71.2566   -6.2734 C.3     1  UNL1        0.1830
     38 H          21.2750   72.9140   -9.1934 H       1  UNL1        0.2105
     39 H          23.5945   72.0529   -5.2119 H       1  UNL1        0.2106
     40 H          20.6435   69.7174   -7.4785 H       1  UNL1        0.2106
     41 O          17.5836   69.8154   -5.2799 O.co2   1  UNL1       -0.5466
     42 O          17.4545   70.0875   -7.5397 O.co2   1  UNL1       -0.5466
     43 C          17.9818   70.3370   -6.4653 C.2     1  UNL1        0.0799
@<TRIPOS>UNITY_ATOM_ATTR
41 1
charge -1
@<TRIPOS>BOND
     1     1     4    1
     2     1    24    1
     3     1     2    1
     4     1     3    2
     5    25    28    1
     6    25    24    1
     7    25    26    1
     8    25    27    2
     9     6    11    1
    10     6    12    1
    11    29    36    1
    12    29    37    1
    13     7     9    1
    14     7    13    1
    15     8    10    1
    16     8    14    1
    17     4     5    1
    18    28    36    1
    19    30    33    1
    20    30    38    1
    21    31    34    1
    22    31    39    1
    23    32    35    1
    24    32    40    1
    25    41    43   ar
    26    15    19    2
    27    42    43   ar
    28    16    22    2
    29    17    12    1
    30    17    19   ar
    31    17    20   ar
    32    18    19   ar
    33    18    22   ar
    34    18    23    1
    35     9    10    1
    36     9    11    1
    37    10    12    1
    38    11     5    1
    39    33    34    1
    40    33    35    1
    41    34    36    1
    42    35    37    1
    43    37    43    1
    44    20    21   ar
    45    21    22   ar
