@<TRIPOS>MOLECULE
UD2
 46 48 0 0 0
SMALL
GASTEIGER

@<TRIPOS>ATOM
      1 P          22.1013   71.2024   -2.8407 P.3     1  UNL1        0.2189
      2 O          21.6896   69.6465   -2.8108 O.3     1  UNL1       -0.4371
      3 O          23.3267   71.3736   -3.6518 O.2     1  UNL1       -0.5170
      4 O          20.9037   72.0619   -3.4895 O.3     1  UNL1       -0.3112
      5 C          19.8463   72.6298   -2.7144 C.3     1  UNL1        0.1811
      6 C          17.7597   71.4518   -5.3968 C.3     1  UNL1        0.2383
      7 C          17.9164   70.2281   -4.4588 C.3     1  UNL1        0.1895
      8 O          16.7553   69.3966   -4.5067 O.3     1  UNL1       -0.3779
      9 C          18.0587   70.8985   -3.0704 C.3     1  UNL1        0.1713
     10 C          18.5048   72.3378   -3.3912 C.3     1  UNL1        0.1764
     11 O          18.6458   72.4342   -4.8175 O.3     1  UNL1       -0.3308
     12 O          16.8037   70.9038   -2.3879 O.3     1  UNL1       -0.3794
     13 H          16.8055   68.6172   -3.9369 H       1  UNL1        0.2106
     14 H          16.4467   70.0227   -2.2127 H       1  UNL1        0.2105
     15 N          18.1813   71.1154   -6.7584 N.ar    1  UNL1       -0.2551
     16 C          17.2691   70.6996   -7.6549 C.ar    1  UNL1        0.3323
     17 N          17.6283   70.3835   -8.9132 N.ar    1  UNL1       -0.2743
     18 C          18.9177   70.4819   -9.2959 C.ar    1  UNL1        0.2626
     19 C          19.8883   70.9193   -8.3628 C.ar    1  UNL1        0.0795
     20 C          19.4993   71.2336   -7.1093 C.ar    1  UNL1        0.0869
     21 O          16.1029   70.6063   -7.3238 O.2     1  UNL1       -0.2464
     22 O          19.2441   70.1966  -10.4346 O.2     1  UNL1       -0.2670
     23 H          16.9581   70.0842   -9.5467 H       1  UNL1        0.1734
     24 O          22.3756   71.7142   -1.3387 O.3     1  UNL1       -0.2703
     25 P          22.4929   70.9787    0.0890 P.3     1  UNL1        0.2208
     26 O          21.1933   70.0575    0.3259 O.3     1  UNL1       -0.4371
     27 O          23.7067   70.1333    0.1105 O.2     1  UNL1       -0.5170
     28 O          22.5876   72.0842    1.2559 O.3     1  UNL1       -0.2865
     29 C          21.5275   72.9945    1.5538 C.3     1  UNL1        0.2611
     30 C          21.9654   74.4199    1.2087 C.3     1  UNL1        0.1582
     31 C          23.1651   74.8015    2.0814 C.3     1  UNL1        0.1625
     32 C          22.7780   74.6541    3.5554 C.3     1  UNL1        0.1686
     33 C          22.3086   73.2192    3.8101 C.3     1  UNL1        0.1760
     34 O          23.5348   76.1570    1.8180 O.3     1  UNL1       -0.3801
     35 O          21.7216   75.5648    3.8653 O.3     1  UNL1       -0.3794
     36 O          21.2115   72.9181    2.9454 O.3     1  UNL1       -0.3263
     37 H          24.2901   76.4661    2.3367 H       1  UNL1        0.2105
     38 H          21.4245   75.5253    4.7851 H       1  UNL1        0.2105
     39 C          23.6492   74.4940   -0.5511 C.2     1  UNL1        0.2231
     40 C          24.0423   74.5617   -2.0035 C.3     1  UNL1        0.0946
     41 N          22.3470   74.4860   -0.2043 N.am    1  UNL1       -0.2994
     42 O          24.5051   74.4468    0.3076 O.2     1  UNL1       -0.2751
     43 H          21.6624   74.5248   -0.8904 H       1  UNL1        0.1496
     44 C          21.8635   73.0795    5.2670 C.3     1  UNL1        0.1693
     45 O          20.4432   73.2164    5.3472 O.3     1  UNL1       -0.3794
     46 H          20.0900   73.1387    6.2439 H       1  UNL1        0.2105
@<TRIPOS>BOND
     1    29    30    1
     2    30    41    1
     3    30    31    1
     4    31    34    1
     5    31    32    1
     6    32    35    1
     7    32    33    1
     8    33    36    1
     9    33    44    1
    10    39    40    1
    11    39    42    2
    12    39    41   am
    13    41    43    1
    14    29    28    1
    15    34    37    1
    16    35    38    1
    17    29    36    1
    18    44    45    1
    19    45    46    1
    20    15     6    1
    21    15    16   ar
    22    16    21    2
    23    16    17   ar
    24    17    23    1
    25    17    18   ar
    26    18    19   ar
    27    19    20   ar
    28    15    20   ar
    29    18    22    2
    30     6     7    1
    31     6    11    1
    32     7     9    1
    33     7     8    1
    34     8    13    1
    35     9    10    1
    36     9    12    1
    37    10     5    1
    38    10    11    1
    39    12    14    1
    40     5     4    1
    41     4     1    1
    42     1     2    1
    43     1    24    1
    44     1     3    2
    45    24    25    1
    46    28    25    1
    47    25    26    1
    48    25    27    2
@<TRIPOS>MOLECULE
UD2
 46 48 0 0 0
SMALL
GASTEIGER

@<TRIPOS>ATOM
      1 P          22.8947   72.0069   -3.3219 P.3     1  UNL1        0.2189
      2 O          23.4601   70.5010   -3.2603 O.3     1  UNL1       -0.4371
      3 O          23.5978   72.7553   -4.3870 O.2     1  UNL1       -0.5170
      4 O          21.3164   71.9747   -3.6408 O.3     1  UNL1       -0.3112
      5 C          20.3162   72.0549   -2.6236 C.3     1  UNL1        0.1811
      6 C          18.0162   71.3444   -5.2960 C.3     1  UNL1        0.2383
      7 C          18.0402   70.0477   -4.4474 C.3     1  UNL1        0.1895
      8 O          16.7800   69.3766   -4.5056 O.3     1  UNL1       -0.3779
      9 C          18.3092   70.5952   -3.0243 C.3     1  UNL1        0.1713
     10 C          18.9288   71.9848   -3.2663 C.3     1  UNL1        0.1764
     11 O          19.0390   72.1624   -4.6875 O.3     1  UNL1       -0.3308
     12 O          17.0862   70.7125   -2.2954 O.3     1  UNL1       -0.3794
     13 H          16.7453   68.5590   -3.9908 H       1  UNL1        0.2106
     14 H          16.6231   69.8740   -2.1651 H       1  UNL1        0.2105
     15 N          18.3502   71.0535   -6.6920 N.ar    1  UNL1       -0.2551
     16 C          17.3674   70.7893   -7.5712 C.ar    1  UNL1        0.3323
     17 N          17.6454   70.5184   -8.8603 N.ar    1  UNL1       -0.2743
     18 C          18.9230   70.5100   -9.2918 C.ar    1  UNL1        0.2626
     19 C          19.9674   70.7874   -8.3773 C.ar    1  UNL1        0.0795
     20 C          19.6595   71.0598   -7.0918 C.ar    1  UNL1        0.0869
     21 O          16.2109   70.7936   -7.1962 O.2     1  UNL1       -0.2464
     22 O          19.1759   70.2654  -10.4583 O.2     1  UNL1       -0.2670
     23 H          16.9249   70.3289   -9.4807 H       1  UNL1        0.1734
     24 O          23.1405   72.7311   -1.9047 O.3     1  UNL1       -0.2703
     25 P          23.2660   74.2683   -1.4418 P.3     1  UNL1        0.2208
     26 O          24.7409   74.8141   -1.7891 O.3     1  UNL1       -0.4371
     27 O          22.2585   75.0827   -2.1560 O.2     1  UNL1       -0.5170
     28 O          23.0144   74.3730    0.1451 O.3     1  UNL1       -0.2865
     29 C          21.7515   74.0959    0.7531 C.3     1  UNL1        0.2611
     30 C          21.8255   74.4068    2.2499 C.3     1  UNL1        0.1582
     31 C          22.8664   73.4914    2.9019 C.3     1  UNL1        0.1625
     32 C          22.4894   72.0326    2.6300 C.3     1  UNL1        0.1686
     33 C          22.3899   71.8131    1.1180 C.3     1  UNL1        0.1760
     34 O          22.8898   73.7238    4.3121 O.3     1  UNL1       -0.3801
     35 O          21.2298   71.7433    3.2390 O.3     1  UNL1       -0.3794
     36 O          21.4276   72.7161    0.5696 O.3     1  UNL1       -0.3263
     37 H          23.5287   73.1772    4.7898 H       1  UNL1        0.2105
     38 H          20.9275   70.8339    3.1062 H       1  UNL1        0.2105
     39 C          21.3814   76.6597    3.0653 C.2     1  UNL1        0.2231
     40 C          21.7822   78.0982    3.2617 C.3     1  UNL1        0.0946
     41 N          22.2161   75.8059    2.4403 N.am    1  UNL1       -0.2994
     42 O          20.3063   76.2687    3.4698 O.2     1  UNL1       -0.2751
     43 H          23.0752   76.1183    2.1159 H       1  UNL1        0.1496
     44 C          21.9552   70.3730    0.8394 C.3     1  UNL1        0.1693
     45 O          22.5178   69.9361   -0.3995 O.3     1  UNL1       -0.3794
     46 H          22.2834   69.0294   -0.6404 H       1  UNL1        0.2105
@<TRIPOS>BOND
     1    29    30    1
     2    30    41    1
     3    30    31    1
     4    31    34    1
     5    31    32    1
     6    32    35    1
     7    32    33    1
     8    33    36    1
     9    33    44    1
    10    39    40    1
    11    39    42    2
    12    39    41   am
    13    41    43    1
    14    29    28    1
    15    34    37    1
    16    35    38    1
    17    29    36    1
    18    44    45    1
    19    45    46    1
    20    15     6    1
    21    15    16   ar
    22    16    21    2
    23    16    17   ar
    24    17    23    1
    25    17    18   ar
    26    18    19   ar
    27    19    20   ar
    28    15    20   ar
    29    18    22    2
    30     6     7    1
    31     6    11    1
    32     7     9    1
    33     7     8    1
    34     8    13    1
    35     9    10    1
    36     9    12    1
    37    10     5    1
    38    10    11    1
    39    12    14    1
    40     5     4    1
    41     4     1    1
    42     1     2    1
    43     1    24    1
    44     1     3    2
    45    24    25    1
    46    28    25    1
    47    25    26    1
    48    25    27    2
@<TRIPOS>MOLECULE
UD2
 46 48 0 0 0
SMALL
GASTEIGER

@<TRIPOS>ATOM
      1 P          21.8921   70.8528   -0.3769 P.3     1  UNL1        0.2189
      2 O          21.6156   69.5533    0.5320 O.3     1  UNL1       -0.4371
      3 O          23.0247   70.5847   -1.2903 O.2     1  UNL1       -0.5170
      4 O          20.5758   71.1939   -1.2398 O.3     1  UNL1       -0.3112
      5 C          20.6307   71.6718   -2.5851 C.3     1  UNL1        0.1811
      6 C          18.1819   71.2243   -5.1813 C.3     1  UNL1        0.2383
      7 C          18.1591   69.8917   -4.3902 C.3     1  UNL1        0.1895
      8 O          16.8578   69.3024   -4.4211 O.3     1  UNL1       -0.3779
      9 C          18.5207   70.3572   -2.9584 C.3     1  UNL1        0.1713
     10 C          19.2162   71.7158   -3.1685 C.3     1  UNL1        0.1764
     11 O          19.2786   71.9500   -4.5844 O.3     1  UNL1       -0.3308
     12 O          17.3387   70.5163   -2.1721 O.3     1  UNL1       -0.3794
     13 H          16.7929   68.4661   -3.9404 H       1  UNL1        0.2106
     14 H          16.8294   69.7027   -2.0571 H       1  UNL1        0.2105
     15 N          18.4389   70.9766   -6.6017 N.ar    1  UNL1       -0.2551
     16 C          17.4067   70.7847   -7.4421 C.ar    1  UNL1        0.3323
     17 N          17.6135   70.5548   -8.7523 N.ar    1  UNL1       -0.2743
     18 C          18.8683   70.5153   -9.2447 C.ar    1  UNL1        0.2626
     19 C          19.9643   70.7166   -8.3715 C.ar    1  UNL1        0.0795
     20 C          19.7274   70.9493   -7.0633 C.ar    1  UNL1        0.0869
     21 O          16.2698   70.8178   -7.0122 O.2     1  UNL1       -0.2464
     22 O          19.0569   70.3077  -10.4304 O.2     1  UNL1       -0.2670
     23 H          16.8580   70.4174   -9.3443 H       1  UNL1        0.1734
     24 O          22.2510   72.1044    0.5707 O.3     1  UNL1       -0.2703
     25 P          21.4289   72.9461    1.6701 P.3     1  UNL1        0.2208
     26 O          20.2470   73.7649    0.9446 O.3     1  UNL1       -0.4371
     27 O          20.8473   72.0205    2.6668 O.2     1  UNL1       -0.5170
     28 O          22.4212   73.9767    2.4089 O.3     1  UNL1       -0.2865
     29 C          23.0972   73.6674    3.6290 C.3     1  UNL1        0.2611
     30 C          22.4791   74.4730    4.7743 C.3     1  UNL1        0.1582
     31 C          22.6751   75.9672    4.4999 C.3     1  UNL1        0.1625
     32 C          24.1699   76.2524    4.3302 C.3     1  UNL1        0.1686
     33 C          24.7229   75.3780    3.2017 C.3     1  UNL1        0.1760
     34 O          22.1662   76.7252    5.5998 O.3     1  UNL1       -0.3801
     35 O          24.8547   75.9515    5.5475 O.3     1  UNL1       -0.3794
     36 O          24.4808   74.0026    3.5047 O.3     1  UNL1       -0.3263
     37 H          22.2569   77.6820    5.4930 H       1  UNL1        0.2105
     38 H          25.8087   76.1085    5.5120 H       1  UNL1        0.2105
     39 C          20.4701   74.0017    6.0701 C.2     1  UNL1        0.2231
     40 C          18.9982   73.6961    6.1642 C.3     1  UNL1        0.0946
     41 N          21.0474   74.1754    4.8649 N.am    1  UNL1       -0.2994
     42 O          21.1368   74.0917    7.0799 O.2     1  UNL1       -0.2751
     43 H          20.5150   74.1026    4.0573 H       1  UNL1        0.1496
     44 C          26.2284   75.6133    3.0655 C.3     1  UNL1        0.1693
     45 O          26.4889   76.3587    1.8743 O.3     1  UNL1       -0.3794
     46 H          27.4256   76.5450    1.7232 H       1  UNL1        0.2105
@<TRIPOS>BOND
     1    29    30    1
     2    30    41    1
     3    30    31    1
     4    31    34    1
     5    31    32    1
     6    32    35    1
     7    32    33    1
     8    33    36    1
     9    33    44    1
    10    39    40    1
    11    39    42    2
    12    39    41   am
    13    41    43    1
    14    29    28    1
    15    34    37    1
    16    35    38    1
    17    29    36    1
    18    44    45    1
    19    45    46    1
    20    15     6    1
    21    15    16   ar
    22    16    21    2
    23    16    17   ar
    24    17    23    1
    25    17    18   ar
    26    18    19   ar
    27    19    20   ar
    28    15    20   ar
    29    18    22    2
    30     6     7    1
    31     6    11    1
    32     7     9    1
    33     7     8    1
    34     8    13    1
    35     9    10    1
    36     9    12    1
    37    10     5    1
    38    10    11    1
    39    12    14    1
    40     5     4    1
    41     4     1    1
    42     1     2    1
    43     1    24    1
    44     1     3    2
    45    24    25    1
    46    28    25    1
    47    25    26    1
    48    25    27    2
@<TRIPOS>MOLECULE
UD2
 46 48 0 0 0
SMALL
GASTEIGER

@<TRIPOS>ATOM
      1 P          21.9608   70.7223   -0.4702 P.3     1  UNL1        0.2189
      2 O          21.6855   69.5063    0.5481 O.3     1  UNL1       -0.4371
      3 O          23.0780   70.3673   -1.3728 O.2     1  UNL1       -0.5170
      4 O          20.6356   71.0031   -1.3412 O.3     1  UNL1       -0.3112
      5 C          20.6725   71.5754   -2.6498 C.3     1  UNL1        0.1811
      6 C          18.1912   71.1743   -5.2226 C.3     1  UNL1        0.2383
      7 C          18.1603   69.8372   -4.4394 C.3     1  UNL1        0.1895
      8 O          16.8515   69.2641   -4.4602 O.3     1  UNL1       -0.3779
      9 C          18.5426   70.2893   -3.0087 C.3     1  UNL1        0.1713
     10 C          19.2526   71.6405   -3.2179 C.3     1  UNL1        0.1764
     11 O          19.3030   71.8828   -4.6329 O.3     1  UNL1       -0.3308
     12 O          17.3710   70.4580   -2.2090 O.3     1  UNL1       -0.3794
     13 H          16.7813   68.4258   -3.9839 H       1  UNL1        0.2106
     14 H          16.8529   69.6500   -2.0936 H       1  UNL1        0.2105
     15 N          18.4302   70.9324   -6.6471 N.ar    1  UNL1       -0.2551
     16 C          17.3869   70.7588   -7.4778 C.ar    1  UNL1        0.3323
     17 N          17.5771   70.5346   -8.7915 N.ar    1  UNL1       -0.2743
     18 C          18.8261   70.4823   -9.2972 C.ar    1  UNL1        0.2626
     19 C          19.9336   70.6644   -8.4344 C.ar    1  UNL1        0.0795
     20 C          19.7134   70.8918   -7.1224 C.ar    1  UNL1        0.0869
     21 O          16.2551   70.8035   -7.0357 O.2     1  UNL1       -0.2464
     22 O          18.9996   70.2799  -10.4861 O.2     1  UNL1       -0.2670
     23 H          16.8137   70.4103   -9.3763 H       1  UNL1        0.1734
     24 O          22.3440   72.0452    0.3643 O.3     1  UNL1       -0.2703
     25 P          21.6742   72.8137    1.6107 P.3     1  UNL1        0.2208
     26 O          20.6545   73.9343    1.0645 O.3     1  UNL1       -0.4371
     27 O          20.9370   71.8440    2.4501 O.2     1  UNL1       -0.5170
     28 O          22.8258   73.5177    2.4887 O.3     1  UNL1       -0.2865
     29 C          22.7386   74.8677    2.9482 C.3     1  UNL1        0.2611
     30 C          24.1144   75.3331    3.4314 C.3     1  UNL1        0.1582
     31 C          24.5501   74.4657    4.6163 C.3     1  UNL1        0.1625
     32 C          23.4886   74.5525    5.7164 C.3     1  UNL1        0.1686
     33 C          22.1367   74.1170    5.1449 C.3     1  UNL1        0.1760
     34 O          25.8006   74.9402    5.1208 O.3     1  UNL1       -0.3801
     35 O          23.3976   75.8984    6.1871 O.3     1  UNL1       -0.3794
     36 O          21.8050   74.9437    4.0275 O.3     1  UNL1       -0.3263
     37 H          26.1376   74.4354    5.8736 H       1  UNL1        0.2105
     38 H          22.7419   76.0276    6.8867 H       1  UNL1        0.2105
     39 C          26.0157   76.1555    2.1483 C.2     1  UNL1        0.2231
     40 C          27.0153   76.0187    1.0300 C.3     1  UNL1        0.0946
     41 N          25.0862   75.1994    2.3432 N.am    1  UNL1       -0.2994
     42 O          26.0469   77.1270    2.8745 O.2     1  UNL1       -0.2751
     43 H          25.0602   74.4230    1.7622 H       1  UNL1        0.1496
     44 C          21.0590   74.2578    6.2216 C.3     1  UNL1        0.1693
     45 O          19.9576   73.4026    5.9089 O.3     1  UNL1       -0.3794
     46 H          19.2351   73.4403    6.5505 H       1  UNL1        0.2105
@<TRIPOS>BOND
     1    29    30    1
     2    30    41    1
     3    30    31    1
     4    31    34    1
     5    31    32    1
     6    32    35    1
     7    32    33    1
     8    33    36    1
     9    33    44    1
    10    39    40    1
    11    39    42    2
    12    39    41   am
    13    41    43    1
    14    29    28    1
    15    34    37    1
    16    35    38    1
    17    29    36    1
    18    44    45    1
    19    45    46    1
    20    15     6    1
    21    15    16   ar
    22    16    21    2
    23    16    17   ar
    24    17    23    1
    25    17    18   ar
    26    18    19   ar
    27    19    20   ar
    28    15    20   ar
    29    18    22    2
    30     6     7    1
    31     6    11    1
    32     7     9    1
    33     7     8    1
    34     8    13    1
    35     9    10    1
    36     9    12    1
    37    10     5    1
    38    10    11    1
    39    12    14    1
    40     5     4    1
    41     4     1    1
    42     1     2    1
    43     1    24    1
    44     1     3    2
    45    24    25    1
    46    28    25    1
    47    25    26    1
    48    25    27    2
@<TRIPOS>MOLECULE
UD2
 46 48 0 0 0
SMALL
GASTEIGER

@<TRIPOS>ATOM
      1 P          21.9102   70.4234   -0.2125 P.3     1  UNL1        0.2189
      2 O          22.4138   69.0604    0.4804 O.3     1  UNL1       -0.4371
      3 O          23.0632   71.1242   -0.8194 O.2     1  UNL1       -0.5170
      4 O          20.8303   70.0767   -1.3559 O.3     1  UNL1       -0.3112
      5 C          20.9550   70.5291   -2.7054 C.3     1  UNL1        0.1811
      6 C          18.4152   70.9632   -5.2149 C.3     1  UNL1        0.2383
      7 C          18.0659   69.6144   -4.5362 C.3     1  UNL1        0.1895
      8 O          16.6559   69.3834   -4.5561 O.3     1  UNL1       -0.3779
      9 C          18.5685   69.8387   -3.0889 C.3     1  UNL1        0.1713
     10 C          19.5873   70.9871   -3.2179 C.3     1  UNL1        0.1764
     11 O          19.6758   71.3261   -4.6110 O.3     1  UNL1       -0.3308
     12 O          17.4864   70.2225   -2.2389 O.3     1  UNL1       -0.3794
     13 H          16.3876   68.5513   -4.1435 H       1  UNL1        0.2106
     14 H          16.7864   69.5596   -2.1683 H       1  UNL1        0.2105
     15 N          18.5667   70.7890   -6.6611 N.ar    1  UNL1       -0.2551
     16 C          17.4754   70.7593   -7.4467 C.ar    1  UNL1        0.3323
     17 N          17.5849   70.6002   -8.7790 N.ar    1  UNL1       -0.2743
     18 C          18.7999   70.4693   -9.3492 C.ar    1  UNL1        0.2626
     19 C          19.9572   70.4998   -8.5344 C.ar    1  UNL1        0.0795
     20 C          19.8180   70.6647   -7.2022 C.ar    1  UNL1        0.0869
     21 O          16.3735   70.8763   -6.9462 O.2     1  UNL1       -0.2464
     22 O          18.9004   70.3257  -10.5550 O.2     1  UNL1       -0.2670
     23 H          16.7878   70.5798   -9.3306 H       1  UNL1        0.1734
     24 O          21.2297   71.3707    0.8979 O.3     1  UNL1       -0.2703
     25 P          21.7961   72.2114    2.1490 P.3     1  UNL1        0.2208
     26 O          20.5672   72.6926    3.0720 O.3     1  UNL1       -0.4371
     27 O          22.7060   71.3591    2.9451 O.2     1  UNL1       -0.5170
     28 O          22.5997   73.4987    1.6107 O.3     1  UNL1       -0.2865
     29 C          22.4443   74.8038    2.1710 C.3     1  UNL1        0.2611
     30 C          23.1450   75.8304    1.2778 C.3     1  UNL1        0.1582
     31 C          24.6440   75.5182    1.2347 C.3     1  UNL1        0.1625
     32 C          25.1959   75.5188    2.6630 C.3     1  UNL1        0.1686
     33 C          24.4160   74.5038    3.5029 C.3     1  UNL1        0.1760
     34 O          25.3170   76.5150    0.4623 O.3     1  UNL1       -0.3801
     35 O          25.0504   76.8217    3.2307 O.3     1  UNL1       -0.3794
     36 O          23.0258   74.8337    3.4761 O.3     1  UNL1       -0.3263
     37 H          26.2719   76.3793    0.3920 H       1  UNL1        0.2105
     38 H          25.3794   76.8954    4.1375 H       1  UNL1        0.2105
     39 C          23.1661   74.9634   -0.9994 C.2     1  UNL1        0.2231
     40 C          22.5970   74.8898   -2.3920 C.3     1  UNL1        0.0946
     41 N          22.5910   75.7596   -0.0767 N.am    1  UNL1       -0.2994
     42 O          24.1431   74.3057   -0.7076 O.2     1  UNL1       -0.2751
     43 H          21.8105   76.2864   -0.3098 H       1  UNL1        0.1496
     44 C          24.9215   74.5410    4.9464 C.3     1  UNL1        0.1693
     45 O          26.3267   74.8013    4.9532 O.3     1  UNL1       -0.3794
     46 H          26.7161   74.8388    5.8375 H       1  UNL1        0.2105
@<TRIPOS>BOND
     1    29    30    1
     2    30    41    1
     3    30    31    1
     4    31    34    1
     5    31    32    1
     6    32    35    1
     7    32    33    1
     8    33    36    1
     9    33    44    1
    10    39    40    1
    11    39    42    2
    12    39    41   am
    13    41    43    1
    14    29    28    1
    15    34    37    1
    16    35    38    1
    17    29    36    1
    18    44    45    1
    19    45    46    1
    20    15     6    1
    21    15    16   ar
    22    16    21    2
    23    16    17   ar
    24    17    23    1
    25    17    18   ar
    26    18    19   ar
    27    19    20   ar
    28    15    20   ar
    29    18    22    2
    30     6     7    1
    31     6    11    1
    32     7     9    1
    33     7     8    1
    34     8    13    1
    35     9    10    1
    36     9    12    1
    37    10     5    1
    38    10    11    1
    39    12    14    1
    40     5     4    1
    41     4     1    1
    42     1     2    1
    43     1    24    1
    44     1     3    2
    45    24    25    1
    46    28    25    1
    47    25    26    1
    48    25    27    2
@<TRIPOS>MOLECULE
UD2
 46 48 0 0 0
SMALL
GASTEIGER

@<TRIPOS>ATOM
      1 P          23.2674   74.3380   -3.8240 P.3     1  UNL1        0.2189
      2 O          23.4588   75.6642   -4.7162 O.3     1  UNL1       -0.4371
      3 O          24.5735   73.6641   -3.6542 O.2     1  UNL1       -0.5170
      4 O          22.6805   74.7429   -2.3800 O.3     1  UNL1       -0.3112
      5 C          21.8729   73.8638   -1.5949 C.3     1  UNL1        0.1811
      6 C          23.0397   72.3741    1.4639 C.3     1  UNL1        0.2383
      7 C          21.9860   71.3754    0.9211 C.3     1  UNL1        0.1895
      8 O          22.3101   70.0362    1.2996 O.3     1  UNL1       -0.3779
      9 C          22.1176   71.5639   -0.6101 C.3     1  UNL1        0.1713
     10 C          22.7754   72.9485   -0.7638 C.3     1  UNL1        0.1764
     11 O          22.9411   73.4923    0.5553 O.3     1  UNL1       -0.3308
     12 O          22.9529   70.5480   -1.1678 O.3     1  UNL1       -0.3794
     13 H          21.6799   69.3745    0.9840 H       1  UNL1        0.2106
     14 H          22.6155   69.6502   -1.0472 H       1  UNL1        0.2105
     15 N          22.7045   72.7866    2.8286 N.ar    1  UNL1       -0.2551
     16 C          21.4838   72.5181    3.3251 C.ar    1  UNL1        0.3323
     17 N          21.1484   72.8856    4.5760 N.ar    1  UNL1       -0.2743
     18 C          22.0393   73.5316    5.3555 C.ar    1  UNL1        0.2626
     19 C          23.3283   73.8198    4.8460 C.ar    1  UNL1        0.0795
     20 C          23.6388   73.4358    3.5899 C.ar    1  UNL1        0.0869
     21 O          20.6705   71.9360    2.6336 O.2     1  UNL1       -0.2464
     22 O          21.7372   73.8644    6.4879 O.2     1  UNL1       -0.2670
     23 H          20.2635   72.6852    4.9179 H       1  UNL1        0.1734
     24 O          22.2397   73.3398   -4.5594 O.3     1  UNL1       -0.2703
     25 P          21.5593   73.3119   -6.0186 P.3     1  UNL1        0.2208
     26 O          21.2285   74.8176   -6.4848 O.3     1  UNL1       -0.4371
     27 O          22.4903   72.6901   -6.9856 O.2     1  UNL1       -0.5170
     28 O          20.1965   72.4565   -5.9589 O.3     1  UNL1       -0.2865
     29 C          18.9479   72.9460   -6.4515 C.3     1  UNL1        0.2611
     30 C          17.8092   72.0776   -5.9111 C.3     1  UNL1        0.1582
     31 C          17.9828   70.6452   -6.4254 C.3     1  UNL1        0.1625
     32 C          18.0215   70.6650   -7.9560 C.3     1  UNL1        0.1686
     33 C          19.1523   71.5881   -8.4176 C.3     1  UNL1        0.1760
     34 O          16.8837   69.8439   -5.9858 O.3     1  UNL1       -0.3801
     35 O          16.7746   71.1479   -8.4591 O.3     1  UNL1       -0.3794
     36 O          18.9471   72.8959   -7.8797 O.3     1  UNL1       -0.3263
     37 H          16.9288   68.9223   -6.2753 H       1  UNL1        0.2105
     38 H          16.7282   71.1880   -9.4247 H       1  UNL1        0.2105
     39 C          16.6957   72.1235   -3.7441 C.2     1  UNL1        0.2231
     40 C          16.7317   72.1254   -2.2384 C.3     1  UNL1        0.0946
     41 N          17.8451   72.0797   -4.4464 N.am    1  UNL1       -0.2994
     42 O          15.6315   72.1614   -4.3257 O.2     1  UNL1       -0.2751
     43 H          18.6962   72.0503   -3.9819 H       1  UNL1        0.1496
     44 C          19.1598   71.6601   -9.9458 C.3     1  UNL1        0.1693
     45 O          18.3762   72.7757  -10.3746 O.3     1  UNL1       -0.3794
     46 H          18.3362   72.8831  -11.3348 H       1  UNL1        0.2105
@<TRIPOS>BOND
     1    29    30    1
     2    30    41    1
     3    30    31    1
     4    31    34    1
     5    31    32    1
     6    32    35    1
     7    32    33    1
     8    33    36    1
     9    33    44    1
    10    39    40    1
    11    39    42    2
    12    39    41   am
    13    41    43    1
    14    29    28    1
    15    34    37    1
    16    35    38    1
    17    29    36    1
    18    44    45    1
    19    45    46    1
    20    15     6    1
    21    15    16   ar
    22    16    21    2
    23    16    17   ar
    24    17    23    1
    25    17    18   ar
    26    18    19   ar
    27    19    20   ar
    28    15    20   ar
    29    18    22    2
    30     6     7    1
    31     6    11    1
    32     7     9    1
    33     7     8    1
    34     8    13    1
    35     9    10    1
    36     9    12    1
    37    10     5    1
    38    10    11    1
    39    12    14    1
    40     5     4    1
    41     4     1    1
    42     1     2    1
    43     1    24    1
    44     1     3    2
    45    24    25    1
    46    28    25    1
    47    25    26    1
    48    25    27    2
@<TRIPOS>MOLECULE
UD2
 46 48 0 0 0
SMALL
GASTEIGER

@<TRIPOS>ATOM
      1 P          21.9647   70.4959   -0.2007 P.3     1  UNL1        0.2189
      2 O          22.6311   69.1747    0.4332 O.3     1  UNL1       -0.4371
      3 O          22.9990   71.2770   -0.9143 O.2     1  UNL1       -0.5170
      4 O          20.8059   70.0691   -1.2345 O.3     1  UNL1       -0.3112
      5 C          20.9008   70.2903   -2.6429 C.3     1  UNL1        0.1811
      6 C          18.4249   70.9341   -5.1711 C.3     1  UNL1        0.2383
      7 C          17.9779   69.6014   -4.5182 C.3     1  UNL1        0.1895
      8 O          16.5559   69.4664   -4.5566 O.3     1  UNL1       -0.3779
      9 C          18.4778   69.7686   -3.0624 C.3     1  UNL1        0.1713
     10 C          19.5730   70.8475   -3.1619 C.3     1  UNL1        0.1764
     11 O          19.7001   71.2015   -4.5483 O.3     1  UNL1       -0.3308
     12 O          17.4143   70.2113   -2.2175 O.3     1  UNL1       -0.3794
     13 H          16.2274   68.6480   -4.1604 H       1  UNL1        0.2106
     14 H          16.6706   69.5961   -2.1650 H       1  UNL1        0.2105
     15 N          18.5809   70.7726   -6.6184 N.ar    1  UNL1       -0.2551
     16 C          17.4919   70.7469   -7.4072 C.ar    1  UNL1        0.3323
     17 N          17.6056   70.5995   -8.7405 N.ar    1  UNL1       -0.2743
     18 C          18.8225   70.4766   -9.3084 C.ar    1  UNL1        0.2626
     19 C          19.9774   70.5031   -8.4901 C.ar    1  UNL1        0.0795
     20 C          19.8341   70.6562   -7.1569 C.ar    1  UNL1        0.0869
     21 O          16.3883   70.8568   -6.9088 O.2     1  UNL1       -0.2464
     22 O          18.9268   70.3436  -10.5151 O.2     1  UNL1       -0.2670
     23 H          16.8100   70.5818   -9.2945 H       1  UNL1        0.1734
     24 O          21.3296   71.3941    0.9754 O.3     1  UNL1       -0.2703
     25 P          21.9537   72.3058    2.1468 P.3     1  UNL1        0.2208
     26 O          22.8550   71.3893    3.1171 O.3     1  UNL1       -0.4371
     27 O          22.7943   73.3675    1.5512 O.2     1  UNL1       -0.5170
     28 O          20.7622   72.9774    2.9965 O.3     1  UNL1       -0.2865
     29 C          20.7439   74.3610    3.3523 C.3     1  UNL1        0.2611
     30 C          21.4781   74.5569    4.6810 C.3     1  UNL1        0.1582
     31 C          20.7421   73.7843    5.7799 C.3     1  UNL1        0.1625
     32 C          19.2900   74.2658    5.8426 C.3     1  UNL1        0.1686
     33 C          18.6400   74.0810    4.4688 C.3     1  UNL1        0.1760
     34 O          21.3785   74.0210    7.0378 O.3     1  UNL1       -0.3801
     35 O          19.2603   75.6479    6.2036 O.3     1  UNL1       -0.3794
     36 O          19.3906   74.7997    3.4879 O.3     1  UNL1       -0.3263
     37 H          20.9641   73.5607    7.7805 H       1  UNL1        0.2105
     38 H          18.3695   76.0209    6.2616 H       1  UNL1        0.2105
     39 C          23.8906   74.8607    4.8394 C.2     1  UNL1        0.2231
     40 C          25.2998   74.3430    4.7173 C.3     1  UNL1        0.0946
     41 N          22.8485   74.0527    4.5617 N.am    1  UNL1       -0.2994
     42 O          23.6930   76.0061    5.1878 O.2     1  UNL1       -0.2751
     43 H          23.0060   73.1372    4.2822 H       1  UNL1        0.1496
     44 C          17.2069   74.6151    4.5070 C.3     1  UNL1        0.1693
     45 O          16.5870   74.2307    5.7359 O.3     1  UNL1       -0.3794
     46 H          15.6742   74.5359    5.8290 H       1  UNL1        0.2105
@<TRIPOS>BOND
     1    29    30    1
     2    30    41    1
     3    30    31    1
     4    31    34    1
     5    31    32    1
     6    32    35    1
     7    32    33    1
     8    33    36    1
     9    33    44    1
    10    39    40    1
    11    39    42    2
    12    39    41   am
    13    41    43    1
    14    29    28    1
    15    34    37    1
    16    35    38    1
    17    29    36    1
    18    44    45    1
    19    45    46    1
    20    15     6    1
    21    15    16   ar
    22    16    21    2
    23    16    17   ar
    24    17    23    1
    25    17    18   ar
    26    18    19   ar
    27    19    20   ar
    28    15    20   ar
    29    18    22    2
    30     6     7    1
    31     6    11    1
    32     7     9    1
    33     7     8    1
    34     8    13    1
    35     9    10    1
    36     9    12    1
    37    10     5    1
    38    10    11    1
    39    12    14    1
    40     5     4    1
    41     4     1    1
    42     1     2    1
    43     1    24    1
    44     1     3    2
    45    24    25    1
    46    28    25    1
    47    25    26    1
    48    25    27    2
@<TRIPOS>MOLECULE
UD2
 46 48 0 0 0
SMALL
GASTEIGER

@<TRIPOS>ATOM
      1 P          22.7702   71.9803   -3.3055 P.3     1  UNL1        0.2189
      2 O          22.9902   72.7838   -1.9281 O.3     1  UNL1       -0.4371
      3 O          23.5033   70.6964   -3.2510 O.2     1  UNL1       -0.5170
      4 O          21.1993   71.6930   -3.5139 O.3     1  UNL1       -0.3112
      5 C          20.2000   72.1314   -2.5916 C.3     1  UNL1        0.1811
      6 C          17.9438   71.3834   -5.2911 C.3     1  UNL1        0.2383
      7 C          17.9480   70.1014   -4.4201 C.3     1  UNL1        0.1895
      8 O          16.6864   69.4340   -4.4887 O.3     1  UNL1       -0.3779
      9 C          18.1945   70.6723   -3.0021 C.3     1  UNL1        0.1713
     10 C          18.8237   72.0553   -3.2571 C.3     1  UNL1        0.1764
     11 O          18.9592   72.2081   -4.6790 O.3     1  UNL1       -0.3308
     12 O          16.9595   70.8065   -2.2968 O.3     1  UNL1       -0.3794
     13 H          16.6396   68.6255   -3.9607 H       1  UNL1        0.2106
     14 H          16.4909   69.9721   -2.1602 H       1  UNL1        0.2105
     15 N          18.3009   71.0674   -6.6758 N.ar    1  UNL1       -0.2551
     16 C          17.3333   70.7786   -7.5642 C.ar    1  UNL1        0.3323
     17 N          17.6325   70.4843   -8.8433 N.ar    1  UNL1       -0.2743
     18 C          18.9165   70.4767   -9.2555 C.ar    1  UNL1        0.2626
     19 C          19.9451   70.7798   -8.3312 C.ar    1  UNL1        0.0795
     20 C          19.6159   71.0753   -7.0561 C.ar    1  UNL1        0.0869
     21 O          16.1712   70.7820   -7.2066 O.2     1  UNL1       -0.2464
     22 O          19.1887   70.2109  -10.4130 O.2     1  UNL1       -0.2670
     23 H          16.9227   70.2773   -9.4706 H       1  UNL1        0.1734
     24 O          23.3216   72.8618   -4.5353 O.3     1  UNL1       -0.2703
     25 P          22.6474   73.9250   -5.5393 P.3     1  UNL1        0.2208
     26 O          22.4308   73.2390   -6.9802 O.3     1  UNL1       -0.4371
     27 O          21.3401   74.3556   -4.9972 O.2     1  UNL1       -0.5170
     28 O          23.6129   75.2044   -5.6932 O.3     1  UNL1       -0.2865
     29 C          23.2610   76.3574   -6.4602 C.3     1  UNL1        0.2611
     30 C          24.2868   76.5605   -7.5778 C.3     1  UNL1        0.1582
     31 C          25.6627   76.8179   -6.9556 C.3     1  UNL1        0.1625
     32 C          25.5713   78.0299   -6.0244 C.3     1  UNL1        0.1686
     33 C          24.4957   77.7700   -4.9663 C.3     1  UNL1        0.1760
     34 O          26.6127   77.0815   -7.9906 O.3     1  UNL1       -0.3801
     35 O          25.2253   79.1901   -6.7829 O.3     1  UNL1       -0.3794
     36 O          23.2482   77.5075   -5.6120 O.3     1  UNL1       -0.3263
     37 H          27.5080   77.2530   -7.6678 H       1  UNL1        0.2105
     38 H          25.1491   79.9975   -6.2553 H       1  UNL1        0.2105
     39 C          23.8519   75.3852   -9.6676 C.2     1  UNL1        0.2231
     40 C          23.9110   74.1499  -10.5274 C.3     1  UNL1        0.0946
     41 N          24.3445   75.3585   -8.4135 N.am    1  UNL1       -0.2994
     42 O          23.3606   76.4052  -10.1039 O.2     1  UNL1       -0.2751
     43 H          24.7365   74.5429   -8.0639 H       1  UNL1        0.1496
     44 C          24.3564   79.0005   -4.0680 C.3     1  UNL1        0.1693
     45 O          25.3179   78.9322   -3.0129 O.3     1  UNL1       -0.3794
     46 H          25.2872   79.6818   -2.4029 H       1  UNL1        0.2105
@<TRIPOS>BOND
     1    29    30    1
     2    30    41    1
     3    30    31    1
     4    31    34    1
     5    31    32    1
     6    32    35    1
     7    32    33    1
     8    33    36    1
     9    33    44    1
    10    39    40    1
    11    39    42    2
    12    39    41   am
    13    41    43    1
    14    29    28    1
    15    34    37    1
    16    35    38    1
    17    29    36    1
    18    44    45    1
    19    45    46    1
    20    15     6    1
    21    15    16   ar
    22    16    21    2
    23    16    17   ar
    24    17    23    1
    25    17    18   ar
    26    18    19   ar
    27    19    20   ar
    28    15    20   ar
    29    18    22    2
    30     6     7    1
    31     6    11    1
    32     7     9    1
    33     7     8    1
    34     8    13    1
    35     9    10    1
    36     9    12    1
    37    10     5    1
    38    10    11    1
    39    12    14    1
    40     5     4    1
    41     4     1    1
    42     1     2    1
    43     1    24    1
    44     1     3    2
    45    24    25    1
    46    28    25    1
    47    25    26    1
    48    25    27    2
@<TRIPOS>MOLECULE
UD2
 46 48 0 0 0
SMALL
GASTEIGER

@<TRIPOS>ATOM
      1 P          23.0629   72.7802   -3.8478 P.3     1  UNL1        0.2189
      2 O          24.2564   73.8050   -3.5059 O.3     1  UNL1       -0.4371
      3 O          23.5176   71.3935   -3.6044 O.2     1  UNL1       -0.5170
      4 O          21.7944   73.1017   -2.9091 O.3     1  UNL1       -0.3112
      5 C          21.9166   73.6844   -1.6102 C.3     1  UNL1        0.1811
      6 C          23.0286   72.2973    1.5165 C.3     1  UNL1        0.2383
      7 C          21.9788   71.2847    0.9923 C.3     1  UNL1        0.1895
      8 O          22.2906   69.9582    1.4222 O.3     1  UNL1       -0.3779
      9 C          22.1350   71.4192   -0.5423 C.3     1  UNL1        0.1713
     10 C          22.8017   72.7948   -0.7337 C.3     1  UNL1        0.1764
     11 O          22.9495   73.3836    0.5682 O.3     1  UNL1       -0.3308
     12 O          22.9741   70.3811   -1.0511 O.3     1  UNL1       -0.3794
     13 H          21.6622   69.2886    1.1199 H       1  UNL1        0.2106
     14 H          22.6306   69.4894   -0.9047 H       1  UNL1        0.2105
     15 N          22.6742   72.7585    2.8606 N.ar    1  UNL1       -0.2551
     16 C          21.4379   72.5310    3.3388 C.ar    1  UNL1        0.3323
     17 N          21.0847   72.9437    4.5705 N.ar    1  UNL1       -0.2743
     18 C          21.9730   73.5946    5.3489 C.ar    1  UNL1        0.2626
     19 C          23.2782   73.8400    4.8586 C.ar    1  UNL1        0.0795
     20 C          23.6063   73.4112    3.6217 C.ar    1  UNL1        0.0869
     21 O          20.6268   71.9451    2.6481 O.2     1  UNL1       -0.2464
     22 O          21.6547   73.9684    6.4641 O.2     1  UNL1       -0.2670
     23 H          20.1888   72.7725    4.8994 H       1  UNL1        0.1734
     24 O          22.6411   72.9437   -5.3933 O.3     1  UNL1       -0.2703
     25 P          21.2891   73.3975   -6.1411 P.3     1  UNL1        0.2208
     26 O          21.0525   74.9739   -5.9111 O.3     1  UNL1       -0.4371
     27 O          21.4105   73.1237   -7.5897 O.2     1  UNL1       -0.5170
     28 O          20.0420   72.5742   -5.5415 O.3     1  UNL1       -0.2865
     29 C          19.9186   71.1554   -5.6560 C.3     1  UNL1        0.2611
     30 C          18.6580   70.8148   -6.4546 C.3     1  UNL1        0.1582
     31 C          17.4298   71.3289   -5.6971 C.3     1  UNL1        0.1625
     32 C          17.4131   70.7130   -4.2954 C.3     1  UNL1        0.1686
     33 C          18.7220   71.0577   -3.5800 C.3     1  UNL1        0.1760
     34 O          16.2434   70.9507   -6.3991 O.3     1  UNL1       -0.3801
     35 O          17.2840   69.2939   -4.3987 O.3     1  UNL1       -0.3794
     36 O          19.8252   70.5789   -4.3517 O.3     1  UNL1       -0.3263
     37 H          15.4255   71.2449   -5.9753 H       1  UNL1        0.2105
     38 H          17.2672   68.8367   -3.5463 H       1  UNL1        0.2105
     39 C          19.4404   70.8861   -8.7612 C.2     1  UNL1        0.2231
     40 C          19.5094   71.5432  -10.1147 C.3     1  UNL1        0.0946
     41 N          18.7248   71.4547   -7.7708 N.am    1  UNL1       -0.2994
     42 O          20.0294   69.8443   -8.5617 O.2     1  UNL1       -0.2751
     43 H          18.2545   72.2881   -7.9296 H       1  UNL1        0.1496
     44 C          18.7386   70.3960   -2.2007 C.3     1  UNL1        0.1693
     45 O          19.0765   69.0142   -2.3386 O.3     1  UNL1       -0.3794
     46 H          19.1058   68.5305   -1.5018 H       1  UNL1        0.2105
@<TRIPOS>BOND
     1    29    30    1
     2    30    41    1
     3    30    31    1
     4    31    34    1
     5    31    32    1
     6    32    35    1
     7    32    33    1
     8    33    36    1
     9    33    44    1
    10    39    40    1
    11    39    42    2
    12    39    41   am
    13    41    43    1
    14    29    28    1
    15    34    37    1
    16    35    38    1
    17    29    36    1
    18    44    45    1
    19    45    46    1
    20    15     6    1
    21    15    16   ar
    22    16    21    2
    23    16    17   ar
    24    17    23    1
    25    17    18   ar
    26    18    19   ar
    27    19    20   ar
    28    15    20   ar
    29    18    22    2
    30     6     7    1
    31     6    11    1
    32     7     9    1
    33     7     8    1
    34     8    13    1
    35     9    10    1
    36     9    12    1
    37    10     5    1
    38    10    11    1
    39    12    14    1
    40     5     4    1
    41     4     1    1
    42     1     2    1
    43     1    24    1
    44     1     3    2
    45    24    25    1
    46    28    25    1
    47    25    26    1
    48    25    27    2
@<TRIPOS>MOLECULE
UD2
 46 48 0 0 0
SMALL
GASTEIGER

@<TRIPOS>ATOM
      1 P          20.2015   72.5434   -4.9855 P.3     1  UNL1        0.2189
      2 O          20.5950   74.0954   -4.8183 O.3     1  UNL1       -0.4371
      3 O          18.8875   72.2960   -4.3521 O.2     1  UNL1       -0.5170
      4 O          20.1200   72.1764   -6.5515 O.3     1  UNL1       -0.3112
      5 C          19.6054   70.9334   -7.0326 C.3     1  UNL1        0.1811
      6 C          16.6607   72.6830   -8.1301 C.3     1  UNL1        0.2383
      7 C          17.8294   73.3883   -8.8642 C.3     1  UNL1        0.1895
      8 O          17.4041   73.8964  -10.1301 O.3     1  UNL1       -0.3779
      9 C          18.8443   72.2330   -9.0453 C.3     1  UNL1        0.1713
     10 C          18.4325   71.1996   -7.9795 C.3     1  UNL1        0.1764
     11 O          17.3297   71.7568   -7.2468 O.3     1  UNL1       -0.3308
     12 O          18.7339   71.6728  -10.3548 O.3     1  UNL1       -0.3794
     13 H          18.1000   74.3471  -10.6273 H       1  UNL1        0.2106
     14 H          18.9247   72.2969  -11.0678 H       1  UNL1        0.2105
     15 N          15.8741   73.6514   -7.3630 N.ar    1  UNL1       -0.2551
     16 C          14.8083   74.2434   -7.9310 C.ar    1  UNL1        0.3323
     17 N          14.0674   75.1373   -7.2496 N.ar    1  UNL1       -0.2743
     18 C          14.3848   75.4527   -5.9775 C.ar    1  UNL1        0.2626
     19 C          15.5035   74.8364   -5.3668 C.ar    1  UNL1        0.0795
     20 C          16.2259   73.9407   -6.0721 C.ar    1  UNL1        0.0869
     21 O          14.5104   73.9684   -9.0773 O.2     1  UNL1       -0.2464
     22 O          13.7148   76.2613   -5.3595 O.2     1  UNL1       -0.2670
     23 H          13.3030   75.5557   -7.6746 H       1  UNL1        0.1734
     24 O          21.3201   71.6265   -4.2776 O.3     1  UNL1       -0.2703
     25 P          22.7057   71.9393   -3.5192 P.3     1  UNL1        0.2208
     26 O          23.4513   70.5546   -3.1720 O.3     1  UNL1       -0.4371
     27 O          23.5725   72.7599   -4.3931 O.2     1  UNL1       -0.5170
     28 O          22.4024   72.7422   -2.1568 O.3     1  UNL1       -0.2865
     29 C          21.2135   72.5499   -1.3881 C.3     1  UNL1        0.2611
     30 C          20.8839   73.8357   -0.6261 C.3     1  UNL1        0.1582
     31 C          22.0231   74.1473    0.3493 C.3     1  UNL1        0.1625
     32 C          22.2203   72.9520    1.2857 C.3     1  UNL1        0.1686
     33 C          22.4986   71.6999    0.4497 C.3     1  UNL1        0.1760
     34 O          21.6902   75.3059    1.1174 O.3     1  UNL1       -0.3801
     35 O          21.0383   72.7545    2.0636 O.3     1  UNL1       -0.3794
     36 O          21.4157   71.4844   -0.4574 O.3     1  UNL1       -0.3263
     37 H          22.3691   75.5618    1.7568 H       1  UNL1        0.2105
     38 H          21.0921   72.0110    2.6803 H       1  UNL1        0.2105
     39 C          21.7999   75.7042   -1.8939 C.2     1  UNL1        0.2231
     40 C          21.6479   76.8418   -2.8693 C.3     1  UNL1        0.0946
     41 N          20.7351   74.9422   -1.5748 N.am    1  UNL1       -0.2994
     42 O          22.8814   75.4733   -1.3948 O.2     1  UNL1       -0.2751
     43 H          19.8700   75.1271   -1.9729 H       1  UNL1        0.1496
     44 C          22.6377   70.4897    1.3751 C.3     1  UNL1        0.1693
     45 O          22.1185   69.3286    0.7234 O.3     1  UNL1       -0.3794
     46 H          22.1742   68.5216    1.2532 H       1  UNL1        0.2105
@<TRIPOS>BOND
     1    29    30    1
     2    30    41    1
     3    30    31    1
     4    31    34    1
     5    31    32    1
     6    32    35    1
     7    32    33    1
     8    33    36    1
     9    33    44    1
    10    39    40    1
    11    39    42    2
    12    39    41   am
    13    41    43    1
    14    29    28    1
    15    34    37    1
    16    35    38    1
    17    29    36    1
    18    44    45    1
    19    45    46    1
    20    15     6    1
    21    15    16   ar
    22    16    21    2
    23    16    17   ar
    24    17    23    1
    25    17    18   ar
    26    18    19   ar
    27    19    20   ar
    28    15    20   ar
    29    18    22    2
    30     6     7    1
    31     6    11    1
    32     7     9    1
    33     7     8    1
    34     8    13    1
    35     9    10    1
    36     9    12    1
    37    10     5    1
    38    10    11    1
    39    12    14    1
    40     5     4    1
    41     4     1    1
    42     1     2    1
    43     1    24    1
    44     1     3    2
    45    24    25    1
    46    28    25    1
    47    25    26    1
    48    25    27    2
@<TRIPOS>MOLECULE
UD2
 46 48 0 0 0
SMALL
GASTEIGER

@<TRIPOS>ATOM
      1 P          19.7279   74.3231   -3.0508 P.3     1  UNL1        0.2189
      2 O          18.4700   73.4427   -3.5345 O.3     1  UNL1       -0.4371
      3 O          19.3869   75.7602   -3.1360 O.2     1  UNL1       -0.5170
      4 O          20.0919   73.9472   -1.5277 O.3     1  UNL1       -0.3112
      5 C          20.2268   72.6002   -1.0706 C.3     1  UNL1        0.1811
      6 C          22.7454   72.3821    1.4879 C.3     1  UNL1        0.2383
      7 C          22.2383   70.9278    1.3152 C.3     1  UNL1        0.1895
      8 O          23.2794   69.9886    1.5903 O.3     1  UNL1       -0.3779
      9 C          21.8468   70.8955   -0.1825 C.3     1  UNL1        0.1713
     10 C          21.6498   72.3780   -0.5523 C.3     1  UNL1        0.1764
     11 O          21.8610   73.1485    0.6416 O.3     1  UNL1       -0.3308
     12 O          22.8980   70.3208   -0.9606 O.3     1  UNL1       -0.3794
     13 H          23.0109   69.0646    1.4964 H       1  UNL1        0.2106
     14 H          23.1046   69.4053   -0.7290 H       1  UNL1        0.2105
     15 N          22.6228   72.8089    2.8835 N.ar    1  UNL1       -0.2551
     16 C          21.4901   72.5525    3.5617 C.ar    1  UNL1        0.3323
     17 N          21.3498   72.9333    4.8453 N.ar    1  UNL1       -0.2743
     18 C          22.3516   73.5806    5.4745 C.ar    1  UNL1        0.2626
     19 C          23.5499   73.8561    4.7730 C.ar    1  UNL1        0.0795
     20 C          23.6648   73.4591    3.4882 C.ar    1  UNL1        0.0869
     21 O          20.5786   71.9694    3.0071 O.2     1  UNL1       -0.2464
     22 O          22.2261   73.9255    6.6364 O.2     1  UNL1       -0.2670
     23 H          20.5259   72.7416    5.3192 H       1  UNL1        0.1734
     24 O          20.9945   74.0147   -3.9963 O.3     1  UNL1       -0.2703
     25 P          21.4369   72.7552   -4.8968 P.3     1  UNL1        0.2208
     26 O          22.9536   72.9607   -5.3978 O.3     1  UNL1       -0.4371
     27 O          21.3473   71.5173   -4.0920 O.2     1  UNL1       -0.5170
     28 O          20.4611   72.6384   -6.1723 O.3     1  UNL1       -0.2865
     29 C          20.4073   71.4807   -7.0079 C.3     1  UNL1        0.2611
     30 C          20.2657   71.9115   -8.4697 C.3     1  UNL1        0.1582
     31 C          18.9475   72.6721   -8.6435 C.3     1  UNL1        0.1625
     32 C          17.7910   71.7786   -8.1870 C.3     1  UNL1        0.1686
     33 C          18.0280   71.3529   -6.7356 C.3     1  UNL1        0.1760
     34 O          18.7720   73.0144  -10.0202 O.3     1  UNL1       -0.3801
     35 O          17.7248   70.6199   -9.0204 O.3     1  UNL1       -0.3794
     36 O          19.2840   70.6785   -6.6378 O.3     1  UNL1       -0.3263
     37 H          17.9558   73.4998  -10.2034 H       1  UNL1        0.2105
     38 H          17.0134   70.0071   -8.7874 H       1  UNL1        0.2105
     39 C          21.2752   74.1184   -8.6890 C.2     1  UNL1        0.2231
     40 C          22.4261   75.0153   -9.0627 C.3     1  UNL1        0.0946
     41 N          21.3856   72.7832   -8.8337 N.am    1  UNL1       -0.2994
     42 O          20.2476   74.5980   -8.2575 O.2     1  UNL1       -0.2751
     43 H          22.2067   72.3994   -9.1796 H       1  UNL1        0.1496
     44 C          16.9072   70.4113   -6.2910 C.3     1  UNL1        0.1693
     45 O          16.7443   70.4993   -4.8739 O.3     1  UNL1       -0.3794
     46 H          16.0487   69.9276   -4.5212 H       1  UNL1        0.2105
@<TRIPOS>BOND
     1    29    30    1
     2    30    41    1
     3    30    31    1
     4    31    34    1
     5    31    32    1
     6    32    35    1
     7    32    33    1
     8    33    36    1
     9    33    44    1
    10    39    40    1
    11    39    42    2
    12    39    41   am
    13    41    43    1
    14    29    28    1
    15    34    37    1
    16    35    38    1
    17    29    36    1
    18    44    45    1
    19    45    46    1
    20    15     6    1
    21    15    16   ar
    22    16    21    2
    23    16    17   ar
    24    17    23    1
    25    17    18   ar
    26    18    19   ar
    27    19    20   ar
    28    15    20   ar
    29    18    22    2
    30     6     7    1
    31     6    11    1
    32     7     9    1
    33     7     8    1
    34     8    13    1
    35     9    10    1
    36     9    12    1
    37    10     5    1
    38    10    11    1
    39    12    14    1
    40     5     4    1
    41     4     1    1
    42     1     2    1
    43     1    24    1
    44     1     3    2
    45    24    25    1
    46    28    25    1
    47    25    26    1
    48    25    27    2
@<TRIPOS>MOLECULE
UD2
 46 48 0 0 0
SMALL
GASTEIGER

@<TRIPOS>ATOM
      1 P          22.8905   71.8144   -3.2791 P.3     1  UNL1        0.2189
      2 O          23.8997   72.8366   -4.0057 O.3     1  UNL1       -0.4371
      3 O          23.4988   70.4664   -3.2363 O.2     1  UNL1       -0.5170
      4 O          22.6023   72.3212   -1.7778 O.3     1  UNL1       -0.3112
      5 C          22.4100   71.4278   -0.6795 C.3     1  UNL1        0.1811
      6 C          21.6320   73.5038    2.1528 C.3     1  UNL1        0.2383
      7 C          21.4572   74.4357    0.9268 C.3     1  UNL1        0.1895
      8 O          20.4535   75.4220    1.1748 O.3     1  UNL1       -0.3779
      9 C          20.9991   73.4454   -0.1719 C.3     1  UNL1        0.1713
     10 C          21.4678   72.0705    0.3414 C.3     1  UNL1        0.1764
     11 O          22.1640   72.2902    1.5785 O.3     1  UNL1       -0.3308
     12 O          19.5771   73.4717   -0.3056 O.3     1  UNL1       -0.3794
     13 H          20.3078   76.0295    0.4369 H       1  UNL1        0.2106
     14 H          19.2219   74.3311   -0.5697 H       1  UNL1        0.2105
     15 N          22.5795   74.0812    3.1087 N.ar    1  UNL1       -0.2551
     16 C          22.3428   73.9753    4.4283 C.ar    1  UNL1        0.3323
     17 N          23.1963   74.4966    5.3294 N.ar    1  UNL1       -0.2743
     18 C          24.3103   75.1358    4.9183 C.ar    1  UNL1        0.2626
     19 C          24.5725   75.2538    3.5321 C.ar    1  UNL1        0.0795
     20 C          23.7017   74.7179    2.6512 C.ar    1  UNL1        0.0869
     21 O          21.3424   73.4014    4.8134 O.2     1  UNL1       -0.2464
     22 O          25.0838   75.6078    5.7328 O.2     1  UNL1       -0.2670
     23 H          23.0098   74.4124    6.2772 H       1  UNL1        0.1734
     24 O          21.5058   71.7530   -4.0990 O.3     1  UNL1       -0.2703
     25 P          20.0898   71.0282   -3.8489 P.3     1  UNL1        0.2208
     26 O          20.3334   69.4651   -3.5473 O.3     1  UNL1       -0.4371
     27 O          19.4128   71.6536   -2.6918 O.2     1  UNL1       -0.5170
     28 O          19.1679   71.1850   -5.1597 O.3     1  UNL1       -0.2865
     29 C          19.3218   72.2527   -6.0965 C.3     1  UNL1        0.2611
     30 C          17.9625   72.9082   -6.3524 C.3     1  UNL1        0.1582
     31 C          17.0168   71.8762   -6.9746 C.3     1  UNL1        0.1625
     32 C          17.6482   71.3293   -8.2578 C.3     1  UNL1        0.1686
     33 C          19.0200   70.7345   -7.9283 C.3     1  UNL1        0.1760
     34 O          15.7682   72.4992   -7.2847 O.3     1  UNL1       -0.3801
     35 O          17.8013   72.3888   -9.2040 O.3     1  UNL1       -0.3794
     36 O          19.8397   71.7374   -7.3247 O.3     1  UNL1       -0.3263
     37 H          15.1193   71.9023   -7.6820 H       1  UNL1        0.2105
     38 H          18.1972   72.1138  -10.0428 H       1  UNL1        0.2105
     39 C          16.5527   72.6040   -4.3883 C.2     1  UNL1        0.2231
     40 C          15.9767   73.0924   -3.0852 C.3     1  UNL1        0.0946
     41 N          17.4024   73.3841   -5.0850 N.am    1  UNL1       -0.2994
     42 O          16.2518   71.5074   -4.8116 O.2     1  UNL1       -0.2751
     43 H          17.6425   74.2613   -4.7474 H       1  UNL1        0.1496
     44 C          19.6833   70.2395   -9.2149 C.3     1  UNL1        0.1693
     45 O          18.7477   70.3128  -10.2927 O.3     1  UNL1       -0.3794
     46 H          19.1008   70.0137  -11.1418 H       1  UNL1        0.2105
@<TRIPOS>BOND
     1    29    30    1
     2    30    41    1
     3    30    31    1
     4    31    34    1
     5    31    32    1
     6    32    35    1
     7    32    33    1
     8    33    36    1
     9    33    44    1
    10    39    40    1
    11    39    42    2
    12    39    41   am
    13    41    43    1
    14    29    28    1
    15    34    37    1
    16    35    38    1
    17    29    36    1
    18    44    45    1
    19    45    46    1
    20    15     6    1
    21    15    16   ar
    22    16    21    2
    23    16    17   ar
    24    17    23    1
    25    17    18   ar
    26    18    19   ar
    27    19    20   ar
    28    15    20   ar
    29    18    22    2
    30     6     7    1
    31     6    11    1
    32     7     9    1
    33     7     8    1
    34     8    13    1
    35     9    10    1
    36     9    12    1
    37    10     5    1
    38    10    11    1
    39    12    14    1
    40     5     4    1
    41     4     1    1
    42     1     2    1
    43     1    24    1
    44     1     3    2
    45    24    25    1
    46    28    25    1
    47    25    26    1
    48    25    27    2
@<TRIPOS>MOLECULE
UD2
 46 48 0 0 0
SMALL
GASTEIGER

@<TRIPOS>ATOM
      1 P          22.2157   70.8172   -2.6809 P.3     1  UNL1        0.2189
      2 O          23.6625   70.6212   -3.3589 O.3     1  UNL1       -0.4371
      3 O          21.3585   69.6546   -3.0011 O.2     1  UNL1       -0.5170
      4 O          22.3835   70.9366   -1.0836 O.3     1  UNL1       -0.3112
      5 C          21.2868   71.1904   -0.2038 C.3     1  UNL1        0.1811
      6 C          21.5259   74.0704    1.9375 C.3     1  UNL1        0.2383
      7 C          22.9324   73.9415    1.2993 C.3     1  UNL1        0.1895
      8 O          23.5467   75.2235    1.1552 O.3     1  UNL1       -0.3779
      9 C          22.6068   73.3264   -0.0839 C.3     1  UNL1        0.1713
     10 C          21.2176   72.6879    0.1055 C.3     1  UNL1        0.1764
     11 O          20.8387   72.8867    1.4768 O.3     1  UNL1       -0.3308
     12 O          22.5572   74.3455   -1.0838 O.3     1  UNL1       -0.3794
     13 H          24.4289   75.1952    0.7608 H       1  UNL1        0.2106
     14 H          23.3903   74.8211   -1.2035 H       1  UNL1        0.2105
     15 N          21.6212   74.0762    3.3990 N.ar    1  UNL1       -0.2551
     16 C          21.8812   72.9310    4.0544 C.ar    1  UNL1        0.3323
     17 N          21.9741   72.9069    5.3971 N.ar    1  UNL1       -0.2743
     18 C          21.8084   74.0400    6.1093 C.ar    1  UNL1        0.2626
     19 C          21.5353   75.2529    5.4323 C.ar    1  UNL1        0.0795
     20 C          21.4518   75.2486    4.0853 C.ar    1  UNL1        0.0869
     21 O          22.0331   71.9017    3.4251 O.2     1  UNL1       -0.2464
     22 O          21.8927   74.0197    7.3247 O.2     1  UNL1       -0.2670
     23 H          22.1609   72.0723    5.8540 H       1  UNL1        0.1734
     24 O          21.5335   72.1603   -3.2500 O.3     1  UNL1       -0.2703
     25 P          21.4179   72.8217   -4.7136 P.3     1  UNL1        0.2208
     26 O          21.0432   74.3813   -4.5691 O.3     1  UNL1       -0.4371
     27 O          22.7115   72.6891   -5.4188 O.2     1  UNL1       -0.5170
     28 O          20.2687   72.0688   -5.5534 O.3     1  UNL1       -0.2865
     29 C          19.1420   72.7469   -6.1120 C.3     1  UNL1        0.2611
     30 C          17.8575   72.0128   -5.7196 C.3     1  UNL1        0.1582
     31 C          17.8878   70.5987   -6.3077 C.3     1  UNL1        0.1625
     32 C          18.0621   70.6924   -7.8259 C.3     1  UNL1        0.1686
     33 C          19.3391   71.4776   -8.1372 C.3     1  UNL1        0.1760
     34 O          16.6600   69.9309   -6.0082 O.3     1  UNL1       -0.3801
     35 O          16.9371   71.3642   -8.3953 O.3     1  UNL1       -0.3794
     36 O          19.2593   72.7715   -7.5360 O.3     1  UNL1       -0.3263
     37 H          16.6102   69.0279   -6.3506 H       1  UNL1        0.2105
     38 H          16.9807   71.4602   -9.3570 H       1  UNL1        0.2105
     39 C          16.5730   72.0848   -3.6502 C.2     1  UNL1        0.2231
     40 C          16.4775   72.0038   -2.1492 C.3     1  UNL1        0.0946
     41 N          17.7655   71.9340   -4.2595 N.am    1  UNL1       -0.2994
     42 O          15.5759   72.2861   -4.3116 O.2     1  UNL1       -0.2751
     43 H          18.5630   71.7741   -3.7310 H       1  UNL1        0.1496
     44 C          19.4890   71.6271   -9.6523 C.3     1  UNL1        0.1693
     45 O          18.7660   70.5836  -10.3086 O.3     1  UNL1       -0.3794
     46 H          18.8169   70.6159  -11.2737 H       1  UNL1        0.2105
@<TRIPOS>BOND
     1    29    30    1
     2    30    41    1
     3    30    31    1
     4    31    34    1
     5    31    32    1
     6    32    35    1
     7    32    33    1
     8    33    36    1
     9    33    44    1
    10    39    40    1
    11    39    42    2
    12    39    41   am
    13    41    43    1
    14    29    28    1
    15    34    37    1
    16    35    38    1
    17    29    36    1
    18    44    45    1
    19    45    46    1
    20    15     6    1
    21    15    16   ar
    22    16    21    2
    23    16    17   ar
    24    17    23    1
    25    17    18   ar
    26    18    19   ar
    27    19    20   ar
    28    15    20   ar
    29    18    22    2
    30     6     7    1
    31     6    11    1
    32     7     9    1
    33     7     8    1
    34     8    13    1
    35     9    10    1
    36     9    12    1
    37    10     5    1
    38    10    11    1
    39    12    14    1
    40     5     4    1
    41     4     1    1
    42     1     2    1
    43     1    24    1
    44     1     3    2
    45    24    25    1
    46    28    25    1
    47    25    26    1
    48    25    27    2
@<TRIPOS>MOLECULE
UD2
 46 48 0 0 0
SMALL
GASTEIGER

@<TRIPOS>ATOM
      1 P          20.5527   74.7141   -3.4638 P.3     1  UNL1        0.2189
      2 O          19.0728   74.0963   -3.3237 O.3     1  UNL1       -0.4371
      3 O          20.4721   76.1913   -3.4755 O.2     1  UNL1       -0.5170
      4 O          21.4540   74.2355   -2.2179 O.3     1  UNL1       -0.3112
      5 C          21.1101   73.1211   -1.3926 C.3     1  UNL1        0.1811
      6 C          23.0680   72.3999    1.5371 C.3     1  UNL1        0.2383
      7 C          22.3412   71.0691    1.2168 C.3     1  UNL1        0.1895
      8 O          23.1301   69.9475    1.6187 O.3     1  UNL1       -0.3779
      9 C          22.2140   71.1308   -0.3251 C.3     1  UNL1        0.1713
     10 C          22.3578   72.6288   -0.6551 C.3     1  UNL1        0.1764
     11 O          22.4975   73.3299    0.5909 O.3     1  UNL1       -0.3308
     12 O          23.2605   70.3795   -0.9425 O.3     1  UNL1       -0.3794
     13 H          22.7175   69.0917    1.4397 H       1  UNL1        0.2106
     14 H          23.2534   69.4385   -0.7213 H       1  UNL1        0.2105
     15 N          22.7871   72.8234    2.9107 N.ar    1  UNL1       -0.2551
     16 C          21.6249   72.4752    3.4909 C.ar    1  UNL1        0.3323
     17 N          21.3402   72.8507    4.7520 N.ar    1  UNL1       -0.2743
     18 C          22.2241   73.5855    5.4573 C.ar    1  UNL1        0.2626
     19 C          23.4520   73.9582    4.8592 C.ar    1  UNL1        0.0795
     20 C          23.7128   73.5643    3.5950 C.ar    1  UNL1        0.0869
     21 O          20.8186   71.8127    2.8670 O.2     1  UNL1       -0.2464
     22 O          21.9679   73.9256    6.5988 O.2     1  UNL1       -0.2670
     23 H          20.4970   72.5921    5.1548 H       1  UNL1        0.1734
     24 O          21.2207   74.2018   -4.8366 O.3     1  UNL1       -0.2703
     25 P          21.6322   72.7533   -5.4072 P.3     1  UNL1        0.2208
     26 O          22.7150   72.9293   -6.5863 O.3     1  UNL1       -0.4371
     27 O          22.2176   71.9417   -4.3177 O.2     1  UNL1       -0.5170
     28 O          20.3243   72.0130   -5.9851 O.3     1  UNL1       -0.2865
     29 C          19.1438   72.7140   -6.3806 C.3     1  UNL1        0.2611
     30 C          17.9089   71.9403   -5.9126 C.3     1  UNL1        0.1582
     31 C          17.8866   70.5695   -6.5959 C.3     1  UNL1        0.1625
     32 C          17.9068   70.7674   -8.1140 C.3     1  UNL1        0.1686
     33 C          19.1422   71.5864   -8.4972 C.3     1  UNL1        0.1760
     34 O          16.6983   69.8689   -6.2213 O.3     1  UNL1       -0.3801
     35 O          16.7269   71.4629   -8.5208 O.3     1  UNL1       -0.3794
     36 O          19.1171   72.8359   -7.8042 O.3     1  UNL1       -0.3263
     37 H          16.6186   68.9904   -6.6178 H       1  UNL1        0.2105
     38 H          16.6731   71.6239   -9.4732 H       1  UNL1        0.2105
     39 C          18.5622   70.6736   -3.9362 C.2     1  UNL1        0.2231
     40 C          18.6201   70.4899   -2.4423 C.3     1  UNL1        0.0946
     41 N          17.9646   71.7623   -4.4594 N.am    1  UNL1       -0.2994
     42 O          19.0536   69.8410   -4.6694 O.2     1  UNL1       -0.2751
     43 H          17.5708   72.4276   -3.8736 H       1  UNL1        0.1496
     44 C          19.1382   71.8395  -10.0060 C.3     1  UNL1        0.1693
     45 O          18.2809   72.9439  -10.3022 O.3     1  UNL1       -0.3794
     46 H          18.2298   73.1615  -11.2430 H       1  UNL1        0.2105
@<TRIPOS>BOND
     1    29    30    1
     2    30    41    1
     3    30    31    1
     4    31    34    1
     5    31    32    1
     6    32    35    1
     7    32    33    1
     8    33    36    1
     9    33    44    1
    10    39    40    1
    11    39    42    2
    12    39    41   am
    13    41    43    1
    14    29    28    1
    15    34    37    1
    16    35    38    1
    17    29    36    1
    18    44    45    1
    19    45    46    1
    20    15     6    1
    21    15    16   ar
    22    16    21    2
    23    16    17   ar
    24    17    23    1
    25    17    18   ar
    26    18    19   ar
    27    19    20   ar
    28    15    20   ar
    29    18    22    2
    30     6     7    1
    31     6    11    1
    32     7     9    1
    33     7     8    1
    34     8    13    1
    35     9    10    1
    36     9    12    1
    37    10     5    1
    38    10    11    1
    39    12    14    1
    40     5     4    1
    41     4     1    1
    42     1     2    1
    43     1    24    1
    44     1     3    2
    45    24    25    1
    46    28    25    1
    47    25    26    1
    48    25    27    2
@<TRIPOS>MOLECULE
UD2
 46 48 0 0 0
SMALL
GASTEIGER

@<TRIPOS>ATOM
      1 P          20.4092   70.1034   -2.1957 P.3     1  UNL1        0.2189
      2 O          19.0244   69.2830   -2.2203 O.3     1  UNL1       -0.4371
      3 O          21.3666   69.4848   -3.1389 O.2     1  UNL1       -0.5170
      4 O          20.1365   71.6296   -2.6316 O.3     1  UNL1       -0.3112
      5 C          18.8279   72.2009   -2.6839 C.3     1  UNL1        0.1811
      6 C          18.6629   73.4004   -6.0707 C.3     1  UNL1        0.2383
      7 C          17.1878   73.3689   -5.5961 C.3     1  UNL1        0.1895
      8 O          16.4230   74.3900   -6.2397 O.3     1  UNL1       -0.3779
      9 C          17.3274   73.6555   -4.0809 C.3     1  UNL1        0.1713
     10 C          18.7888   73.2876   -3.7612 C.3     1  UNL1        0.1764
     11 O          19.3812   72.7952   -4.9737 O.3     1  UNL1       -0.3308
     12 O          17.0886   75.0378   -3.8106 O.3     1  UNL1       -0.3794
     13 H          15.4931   74.4106   -5.9760 H       1  UNL1        0.2106
     14 H          16.2011   75.3383   -4.0485 H       1  UNL1        0.2105
     15 N          18.8282   72.6119   -7.2937 N.ar    1  UNL1       -0.2551
     16 C          18.9097   71.2716   -7.2166 C.ar    1  UNL1        0.3323
     17 N          19.0620   70.5219   -8.3242 N.ar    1  UNL1       -0.2743
     18 C          19.1337   71.1086   -9.5364 C.ar    1  UNL1        0.2626
     19 C          19.0482   72.5184   -9.6324 C.ar    1  UNL1        0.0795
     20 C          18.8915   73.2450   -8.5058 C.ar    1  UNL1        0.0869
     21 O          18.8464   70.7291   -6.1303 O.2     1  UNL1       -0.2464
     22 O          19.2711   70.4311  -10.5397 O.2     1  UNL1       -0.2670
     23 H          19.1202   69.5568   -8.2506 H       1  UNL1        0.1734
     24 O          21.0251   70.0728   -0.7080 O.3     1  UNL1       -0.2703
     25 P          22.4604   70.4522   -0.0843 P.3     1  UNL1        0.2208
     26 O          22.8446   69.3888    1.0625 O.3     1  UNL1       -0.4371
     27 O          23.4859   70.4196   -1.1500 O.2     1  UNL1       -0.5170
     28 O          22.3949   71.9294    0.5530 O.3     1  UNL1       -0.2865
     29 C          21.1688   72.6302    0.7695 C.3     1  UNL1        0.2611
     30 C          21.2574   74.0222    0.1393 C.3     1  UNL1        0.1582
     31 C          22.3736   74.8144    0.8270 C.3     1  UNL1        0.1625
     32 C          22.0903   74.8749    2.3305 C.3     1  UNL1        0.1686
     33 C          21.9696   73.4496    2.8763 C.3     1  UNL1        0.1760
     34 O          22.4150   76.1405    0.2950 O.3     1  UNL1       -0.3801
     35 O          20.8683   75.5793    2.5583 O.3     1  UNL1       -0.3794
     36 O          20.9352   72.7581    2.1736 O.3     1  UNL1       -0.3263
     37 H          23.1009   76.6993    0.6855 H       1  UNL1        0.2105
     38 H          20.6255   75.6554    3.4917 H       1  UNL1        0.2105
     39 C          22.8354   73.9020   -1.7137 C.2     1  UNL1        0.2231
     40 C          23.1435   73.7704   -3.1821 C.3     1  UNL1        0.0946
     41 N          21.5563   73.8944   -1.2893 N.am    1  UNL1       -0.2994
     42 O          23.7390   74.0150   -0.9118 O.2     1  UNL1       -0.2751
     43 H          20.8335   73.8050   -1.9301 H       1  UNL1        0.1496
     44 C          21.6273   73.5018    4.3665 C.3     1  UNL1        0.1693
     45 O          22.0285   72.2806    4.9912 O.3     1  UNL1       -0.3794
     46 H          21.8416   72.2432    5.9392 H       1  UNL1        0.2105
@<TRIPOS>BOND
     1    29    30    1
     2    30    41    1
     3    30    31    1
     4    31    34    1
     5    31    32    1
     6    32    35    1
     7    32    33    1
     8    33    36    1
     9    33    44    1
    10    39    40    1
    11    39    42    2
    12    39    41   am
    13    41    43    1
    14    29    28    1
    15    34    37    1
    16    35    38    1
    17    29    36    1
    18    44    45    1
    19    45    46    1
    20    15     6    1
    21    15    16   ar
    22    16    21    2
    23    16    17   ar
    24    17    23    1
    25    17    18   ar
    26    18    19   ar
    27    19    20   ar
    28    15    20   ar
    29    18    22    2
    30     6     7    1
    31     6    11    1
    32     7     9    1
    33     7     8    1
    34     8    13    1
    35     9    10    1
    36     9    12    1
    37    10     5    1
    38    10    11    1
    39    12    14    1
    40     5     4    1
    41     4     1    1
    42     1     2    1
    43     1    24    1
    44     1     3    2
    45    24    25    1
    46    28    25    1
    47    25    26    1
    48    25    27    2
@<TRIPOS>MOLECULE
UD2
 46 48 0 0 0
SMALL
GASTEIGER

@<TRIPOS>ATOM
      1 P          22.3042   72.9587   -3.9178 P.3     1  UNL1        0.2189
      2 O          23.8919   72.7075   -4.0054 O.3     1  UNL1       -0.4371
      3 O          21.6026   71.6590   -3.8320 O.2     1  UNL1       -0.5170
      4 O          21.9713   73.8359   -2.6089 O.3     1  UNL1       -0.3112
      5 C          21.4677   73.2664   -1.3991 C.3     1  UNL1        0.1811
      6 C          23.1667   72.4124    1.6539 C.3     1  UNL1        0.2383
      7 C          22.3926   71.1269    1.2660 C.3     1  UNL1        0.1895
      8 O          23.0874   69.9597    1.7093 O.3     1  UNL1       -0.3779
      9 C          22.3804   71.2086   -0.2802 C.3     1  UNL1        0.1713
     10 C          22.6299   72.6990   -0.5804 C.3     1  UNL1        0.1764
     11 O          22.7179   73.3807    0.6809 O.3     1  UNL1       -0.3308
     12 O          23.4256   70.4053   -0.8305 O.3     1  UNL1       -0.3794
     13 H          22.6423   69.1299    1.4907 H       1  UNL1        0.2106
     14 H          23.3507   69.4643   -0.6220 H       1  UNL1        0.2105
     15 N          22.8113   72.8394    3.0090 N.ar    1  UNL1       -0.2551
     16 C          21.5941   72.5488    3.5016 C.ar    1  UNL1        0.3323
     17 N          21.2405   72.9289    4.7437 N.ar    1  UNL1       -0.2743
     18 C          22.1093   73.6101    5.5181 C.ar    1  UNL1        0.2626
     19 C          23.3944   73.9218    5.0127 C.ar    1  UNL1        0.0795
     20 C          23.7236   73.5246    3.7656 C.ar    1  UNL1        0.0869
     21 O          20.8006   71.9350    2.8145 O.2     1  UNL1       -0.2464
     22 O          21.7906   73.9544    6.6426 O.2     1  UNL1       -0.2670
     23 H          20.3583   72.7123    5.0829 H       1  UNL1        0.1734
     24 O          21.8123   73.7489   -5.2319 O.3     1  UNL1       -0.2703
     25 P          21.4416   73.2996   -6.7332 P.3     1  UNL1        0.2208
     26 O          21.2306   74.6084   -7.6478 O.3     1  UNL1       -0.4371
     27 O          22.5417   72.4819   -7.2895 O.2     1  UNL1       -0.5170
     28 O          20.0847   72.4331   -6.7143 O.3     1  UNL1       -0.2865
     29 C          18.9452   72.7879   -5.9288 C.3     1  UNL1        0.2611
     30 C          18.0759   71.5491   -5.7003 C.3     1  UNL1        0.1582
     31 C          17.5680   71.0361   -7.0514 C.3     1  UNL1        0.1625
     32 C          16.8036   72.1595   -7.7572 C.3     1  UNL1        0.1686
     33 C          17.7222   73.3751   -7.9065 C.3     1  UNL1        0.1760
     34 O          16.6957   69.9232   -6.8419 O.3     1  UNL1       -0.3801
     35 O          15.6582   72.5181   -6.9821 O.3     1  UNL1       -0.3794
     36 O          18.1839   73.7825   -6.6170 O.3     1  UNL1       -0.3263
     37 H          16.3367   69.5465   -7.6570 H       1  UNL1        0.2105
     38 H          15.1259   73.2267   -7.3702 H       1  UNL1        0.2105
     39 C          18.3188   69.7349   -4.0918 C.2     1  UNL1        0.2231
     40 C          19.1365   68.6623   -3.4213 C.3     1  UNL1        0.0946
     41 N          18.8720   70.5061   -5.0485 N.am    1  UNL1       -0.2994
     42 O          17.1612   69.9051   -3.7707 O.2     1  UNL1       -0.2751
     43 H          19.7978   70.3710   -5.3048 H       1  UNL1        0.1496
     44 C          16.9475   74.5226   -8.5573 C.3     1  UNL1        0.1693
     45 O          17.8386   75.6066   -8.8281 O.3     1  UNL1       -0.3794
     46 H          17.4148   76.3709   -9.2420 H       1  UNL1        0.2105
@<TRIPOS>BOND
     1    29    30    1
     2    30    41    1
     3    30    31    1
     4    31    34    1
     5    31    32    1
     6    32    35    1
     7    32    33    1
     8    33    36    1
     9    33    44    1
    10    39    40    1
    11    39    42    2
    12    39    41   am
    13    41    43    1
    14    29    28    1
    15    34    37    1
    16    35    38    1
    17    29    36    1
    18    44    45    1
    19    45    46    1
    20    15     6    1
    21    15    16   ar
    22    16    21    2
    23    16    17   ar
    24    17    23    1
    25    17    18   ar
    26    18    19   ar
    27    19    20   ar
    28    15    20   ar
    29    18    22    2
    30     6     7    1
    31     6    11    1
    32     7     9    1
    33     7     8    1
    34     8    13    1
    35     9    10    1
    36     9    12    1
    37    10     5    1
    38    10    11    1
    39    12    14    1
    40     5     4    1
    41     4     1    1
    42     1     2    1
    43     1    24    1
    44     1     3    2
    45    24    25    1
    46    28    25    1
    47    25    26    1
    48    25    27    2
@<TRIPOS>MOLECULE
UD2
 46 48 0 0 0
SMALL
GASTEIGER

@<TRIPOS>ATOM
      1 P          23.0092   72.1099   -3.0223 P.3     1  UNL1        0.2189
      2 O          23.3270   72.5687   -1.5123 O.3     1  UNL1       -0.4371
      3 O          23.4389   70.7071   -3.2131 O.2     1  UNL1       -0.5170
      4 O          21.4268   72.2287   -3.2972 O.3     1  UNL1       -0.3112
      5 C          20.4590   71.4158   -2.6308 C.3     1  UNL1        0.1811
      6 C          18.0985   71.2355   -5.3386 C.3     1  UNL1        0.2383
      7 C          17.8835   69.9211   -4.5460 C.3     1  UNL1        0.1895
      8 O          16.5252   69.4870   -4.6369 O.3     1  UNL1       -0.3779
      9 C          18.2298   70.3529   -3.0999 C.3     1  UNL1        0.1713
     10 C          19.0881   71.6195   -3.2805 C.3     1  UNL1        0.1764
     11 O          19.2433   71.8334   -4.6925 O.3     1  UNL1       -0.3308
     12 O          17.0390   70.6548   -2.3708 O.3     1  UNL1       -0.3794
     13 H          16.3408   68.6680   -4.1576 H       1  UNL1        0.2106
     14 H          16.4335   69.9071   -2.2779 H       1  UNL1        0.2105
     15 N          18.3908   70.9481   -6.7446 N.ar    1  UNL1       -0.2551
     16 C          17.3795   70.7989   -7.6185 C.ar    1  UNL1        0.3323
     17 N          17.6189   70.5341   -8.9165 N.ar    1  UNL1       -0.2743
     18 C          18.8860   70.4156   -9.3626 C.ar    1  UNL1        0.2626
     19 C          19.9603   70.5713   -8.4538 C.ar    1  UNL1        0.0795
     20 C          19.6911   70.8405   -7.1590 C.ar    1  UNL1        0.0869
     21 O          16.2320   70.9032   -7.2304 O.2     1  UNL1       -0.2464
     22 O          19.1041   70.1764  -10.5372 O.2     1  UNL1       -0.2670
     23 H          16.8780   70.4282   -9.5330 H       1  UNL1        0.1734
     24 O          23.8047   73.0599   -4.0508 O.3     1  UNL1       -0.2703
     25 P          24.3261   74.5822   -3.9917 P.3     1  UNL1        0.2208
     26 O          23.8936   75.3499   -5.3398 O.3     1  UNL1       -0.4371
     27 O          23.7278   75.2639   -2.8230 O.2     1  UNL1       -0.5170
     28 O          25.9307   74.5950   -3.8576 O.3     1  UNL1       -0.2865
     29 C          26.7131   75.7835   -3.9861 C.3     1  UNL1        0.2611
     30 C          28.1715   75.4082   -4.2603 C.3     1  UNL1        0.1582
     31 C          28.7190   74.6175   -3.0681 C.3     1  UNL1        0.1625
     32 C          28.5650   75.4580   -1.7977 C.3     1  UNL1        0.1686
     33 C          27.0911   75.8314   -1.6183 C.3     1  UNL1        0.1760
     34 O          30.1018   74.3261   -3.2834 O.3     1  UNL1       -0.3801
     35 O          29.3487   76.6470   -1.9136 O.3     1  UNL1       -0.3794
     36 O          26.6361   76.5373   -2.7744 O.3     1  UNL1       -0.3263
     37 H          30.5141   73.8252   -2.5662 H       1  UNL1        0.2105
     38 H          29.2980   77.2291   -1.1425 H       1  UNL1        0.2105
     39 C          29.0349   74.9622   -6.4949 C.2     1  UNL1        0.2231
     40 C          29.1119   74.1160   -7.7385 C.3     1  UNL1        0.0946
     41 N          28.2457   74.5847   -5.4698 N.am    1  UNL1       -0.2994
     42 O          29.6835   75.9845   -6.4154 O.2     1  UNL1       -0.2751
     43 H          27.7261   73.7680   -5.5333 H       1  UNL1        0.1496
     44 C          26.9373   76.7214   -0.3835 C.3     1  UNL1        0.1693
     45 O          25.5673   77.1007   -0.2364 O.3     1  UNL1       -0.3794
     46 H          25.3954   77.6673    0.5280 H       1  UNL1        0.2105
@<TRIPOS>BOND
     1    29    30    1
     2    30    41    1
     3    30    31    1
     4    31    34    1
     5    31    32    1
     6    32    35    1
     7    32    33    1
     8    33    36    1
     9    33    44    1
    10    39    40    1
    11    39    42    2
    12    39    41   am
    13    41    43    1
    14    29    28    1
    15    34    37    1
    16    35    38    1
    17    29    36    1
    18    44    45    1
    19    45    46    1
    20    15     6    1
    21    15    16   ar
    22    16    21    2
    23    16    17   ar
    24    17    23    1
    25    17    18   ar
    26    18    19   ar
    27    19    20   ar
    28    15    20   ar
    29    18    22    2
    30     6     7    1
    31     6    11    1
    32     7     9    1
    33     7     8    1
    34     8    13    1
    35     9    10    1
    36     9    12    1
    37    10     5    1
    38    10    11    1
    39    12    14    1
    40     5     4    1
    41     4     1    1
    42     1     2    1
    43     1    24    1
    44     1     3    2
    45    24    25    1
    46    28    25    1
    47    25    26    1
    48    25    27    2
@<TRIPOS>MOLECULE
UD2
 46 48 0 0 0
SMALL
GASTEIGER

@<TRIPOS>ATOM
      1 P          22.7787   71.9164   -3.1113 P.3     1  UNL1        0.2189
      2 O          23.9419   73.0071   -3.3318 O.3     1  UNL1       -0.4371
      3 O          23.3365   70.5572   -3.2858 O.2     1  UNL1       -0.5170
      4 O          22.1800   72.0639   -1.6235 O.3     1  UNL1       -0.3112
      5 C          22.2780   73.2690   -0.8623 C.3     1  UNL1        0.1811
      6 C          20.3680   73.9463    2.1092 C.3     1  UNL1        0.2383
      7 C          20.5721   75.3351    1.4522 C.3     1  UNL1        0.1895
      8 O          19.4706   76.2001    1.7352 O.3     1  UNL1       -0.3779
      9 C          20.6216   74.9784   -0.0537 C.3     1  UNL1        0.1713
     10 C          20.9829   73.4809   -0.0743 C.3     1  UNL1        0.1764
     11 O          21.1668   73.0663    1.2888 O.3     1  UNL1       -0.3308
     12 O          19.3460   75.1939   -0.6596 O.3     1  UNL1       -0.3794
     13 H          19.5521   77.0813    1.3461 H       1  UNL1        0.2106
     14 H          19.0418   76.1107   -0.6223 H       1  UNL1        0.2105
     15 N          20.8580   73.9516    3.4894 N.ar    1  UNL1       -0.2551
     16 C          19.9868   73.8255    4.5063 C.ar    1  UNL1        0.3323
     17 N          20.4091   73.8273    5.7845 N.ar    1  UNL1       -0.2743
     18 C          21.7219   73.9546    6.0655 C.ar    1  UNL1        0.2626
     19 C          22.6501   74.0871    5.0048 C.ar    1  UNL1        0.0795
     20 C          22.1992   74.0778    3.7327 C.ar    1  UNL1        0.0869
     21 O          18.8002   73.7097    4.2678 O.2     1  UNL1       -0.2464
     22 O          22.1054   73.9560    7.2219 O.2     1  UNL1       -0.2670
     23 H          19.7675   73.7366    6.5058 H       1  UNL1        0.1734
     24 O          21.6053   72.1576   -4.1875 O.3     1  UNL1       -0.2703
     25 P          21.4834   73.0389   -5.5297 P.3     1  UNL1        0.2208
     26 O          21.4478   74.6020   -5.1433 O.3     1  UNL1       -0.4371
     27 O          22.6482   72.7734   -6.4020 O.2     1  UNL1       -0.5170
     28 O          20.1292   72.6470   -6.3077 O.3     1  UNL1       -0.2865
     29 C          18.8267   72.9449   -5.8018 C.3     1  UNL1        0.2611
     30 C          17.9916   71.6632   -5.7533 C.3     1  UNL1        0.1582
     31 C          17.8249   71.1185   -7.1752 C.3     1  UNL1        0.1625
     32 C          17.1821   72.1972   -8.0514 C.3     1  UNL1        0.1686
     33 C          18.0487   73.4587   -8.0114 C.3     1  UNL1        0.1760
     34 O          16.9849   69.9623   -7.1479 O.3     1  UNL1       -0.3801
     35 O          15.8760   72.4985   -7.5570 O.3     1  UNL1       -0.3794
     36 O          18.1894   73.8953   -6.6580 O.3     1  UNL1       -0.3263
     37 H          16.8365   69.5638   -8.0165 H       1  UNL1        0.2105
     38 H          15.4091   73.1765   -8.0653 H       1  UNL1        0.2105
     39 C          17.9621   69.8873   -4.0849 C.2     1  UNL1        0.2231
     40 C          18.6620   68.8620   -3.2321 C.3     1  UNL1        0.0946
     41 N          18.6732   70.6662   -4.9238 N.am    1  UNL1       -0.2994
     42 O          16.7571   70.0126   -4.0170 O.2     1  UNL1       -0.2751
     43 H          19.6367   70.5670   -4.9778 H       1  UNL1        0.1496
     44 C          17.3825   74.5612   -8.8366 C.3     1  UNL1        0.1693
     45 O          16.9550   74.0261  -10.0909 O.3     1  UNL1       -0.3794
     46 H          16.5228   74.6709  -10.6675 H       1  UNL1        0.2105
@<TRIPOS>BOND
     1    29    30    1
     2    30    41    1
     3    30    31    1
     4    31    34    1
     5    31    32    1
     6    32    35    1
     7    32    33    1
     8    33    36    1
     9    33    44    1
    10    39    40    1
    11    39    42    2
    12    39    41   am
    13    41    43    1
    14    29    28    1
    15    34    37    1
    16    35    38    1
    17    29    36    1
    18    44    45    1
    19    45    46    1
    20    15     6    1
    21    15    16   ar
    22    16    21    2
    23    16    17   ar
    24    17    23    1
    25    17    18   ar
    26    18    19   ar
    27    19    20   ar
    28    15    20   ar
    29    18    22    2
    30     6     7    1
    31     6    11    1
    32     7     9    1
    33     7     8    1
    34     8    13    1
    35     9    10    1
    36     9    12    1
    37    10     5    1
    38    10    11    1
    39    12    14    1
    40     5     4    1
    41     4     1    1
    42     1     2    1
    43     1    24    1
    44     1     3    2
    45    24    25    1
    46    28    25    1
    47    25    26    1
    48    25    27    2
@<TRIPOS>MOLECULE
UD2
 46 48 0 0 0
SMALL
GASTEIGER

@<TRIPOS>ATOM
      1 P          22.7251   71.5984   -2.9895 P.3     1  UNL1        0.2189
      2 O          22.8661   71.8419   -1.4045 O.3     1  UNL1       -0.4371
      3 O          23.2873   70.2750   -3.3379 O.2     1  UNL1       -0.5170
      4 O          21.1694   71.6466   -3.4033 O.3     1  UNL1       -0.3112
      5 C          20.1825   72.3400   -2.6373 C.3     1  UNL1        0.1811
      6 C          17.9580   71.3829   -5.2966 C.3     1  UNL1        0.2383
      7 C          18.0750   70.1161   -4.4115 C.3     1  UNL1        0.1895
      8 O          16.8695   69.3502   -4.4551 O.3     1  UNL1       -0.3779
      9 C          18.2938   70.7220   -3.0035 C.3     1  UNL1        0.1713
     10 C          18.8081   72.1472   -3.2828 C.3     1  UNL1        0.1764
     11 O          18.9127   72.2927   -4.7080 O.3     1  UNL1       -0.3308
     12 O          17.0613   70.7669   -2.2827 O.3     1  UNL1       -0.3794
     13 H          16.8937   68.5471   -3.9174 H       1  UNL1        0.2106
     14 H          16.6621   69.8998   -2.1303 H       1  UNL1        0.2105
     15 N          18.3211   71.0791   -6.6826 N.ar    1  UNL1       -0.2551
     16 C          17.3610   70.7578   -7.5679 C.ar    1  UNL1        0.3323
     17 N          17.6658   70.4738   -8.8480 N.ar    1  UNL1       -0.2743
     18 C          18.9480   70.5095   -9.2643 C.ar    1  UNL1        0.2626
     19 C          19.9687   70.8471   -8.3433 C.ar    1  UNL1        0.0795
     20 C          19.6339   71.1314   -7.0671 C.ar    1  UNL1        0.0869
     21 O          16.2006   70.7220   -7.2066 O.2     1  UNL1       -0.2464
     22 O          19.2252   70.2530  -10.4227 O.2     1  UNL1       -0.2670
     23 H          16.9614   70.2429   -9.4730 H       1  UNL1        0.1734
     24 O          23.5264   72.7481   -3.7828 O.3     1  UNL1       -0.2703
     25 P          23.2752   74.3196   -4.0283 P.3     1  UNL1        0.2208
     26 O          22.0893   74.5118   -5.1009 O.3     1  UNL1       -0.4371
     27 O          22.8947   74.9639   -2.7522 O.2     1  UNL1       -0.5170
     28 O          24.6233   74.9970   -4.5910 O.3     1  UNL1       -0.2865
     29 C          25.2202   76.1518   -3.9983 C.3     1  UNL1        0.2611
     30 C          25.5301   77.1826   -5.0866 C.3     1  UNL1        0.1582
     31 C          26.5441   76.5868   -6.0681 C.3     1  UNL1        0.1625
     32 C          27.7968   76.1627   -5.2965 C.3     1  UNL1        0.1686
     33 C          27.3993   75.1710   -4.1999 C.3     1  UNL1        0.1760
     34 O          26.8950   77.5684   -7.0461 O.3     1  UNL1       -0.3801
     35 O          28.4049   77.3119   -4.7043 O.3     1  UNL1       -0.3794
     36 O          26.4319   75.7766   -3.3401 O.3     1  UNL1       -0.3263
     37 H          27.5346   77.2584   -7.7019 H       1  UNL1        0.2105
     38 H          29.2059   77.1170   -4.1979 H       1  UNL1        0.2105
     39 C          23.9700   76.8654   -6.9313 C.2     1  UNL1        0.2231
     40 C          22.7036   77.2156   -7.6676 C.3     1  UNL1        0.0946
     41 N          24.2982   77.5240   -5.8023 N.am    1  UNL1       -0.2994
     42 O          24.6956   75.9898   -7.3546 O.2     1  UNL1       -0.2751
     43 H          23.7189   78.2247   -5.4641 H       1  UNL1        0.1496
     44 C          28.6368   74.7880   -3.3860 C.3     1  UNL1        0.1693
     45 O          29.4735   73.9304   -4.1650 O.3     1  UNL1       -0.3794
     46 H          30.2788   73.6472   -3.7107 H       1  UNL1        0.2105
@<TRIPOS>BOND
     1    29    30    1
     2    30    41    1
     3    30    31    1
     4    31    34    1
     5    31    32    1
     6    32    35    1
     7    32    33    1
     8    33    36    1
     9    33    44    1
    10    39    40    1
    11    39    42    2
    12    39    41   am
    13    41    43    1
    14    29    28    1
    15    34    37    1
    16    35    38    1
    17    29    36    1
    18    44    45    1
    19    45    46    1
    20    15     6    1
    21    15    16   ar
    22    16    21    2
    23    16    17   ar
    24    17    23    1
    25    17    18   ar
    26    18    19   ar
    27    19    20   ar
    28    15    20   ar
    29    18    22    2
    30     6     7    1
    31     6    11    1
    32     7     9    1
    33     7     8    1
    34     8    13    1
    35     9    10    1
    36     9    12    1
    37    10     5    1
    38    10    11    1
    39    12    14    1
    40     5     4    1
    41     4     1    1
    42     1     2    1
    43     1    24    1
    44     1     3    2
    45    24    25    1
    46    28    25    1
    47    25    26    1
    48    25    27    2
@<TRIPOS>MOLECULE
UD2
 46 48 0 0 0
SMALL
GASTEIGER

@<TRIPOS>ATOM
      1 P          22.7060   71.4110   -2.8917 P.3     1  UNL1        0.2189
      2 O          23.5287   72.7348   -2.4889 O.3     1  UNL1       -0.4371
      3 O          23.6468   70.3647   -3.3488 O.2     1  UNL1       -0.5170
      4 O          21.8896   70.8762   -1.6105 O.3     1  UNL1       -0.3112
      5 C          22.1841   71.2874   -0.2743 C.3     1  UNL1        0.1811
      6 C          20.6603   73.5137    2.1044 C.3     1  UNL1        0.2383
      7 C          21.5416   74.4321    1.2201 C.3     1  UNL1        0.1895
      8 O          20.9733   75.7391    1.1171 O.3     1  UNL1       -0.3779
      9 C          21.5025   73.7036   -0.1456 C.3     1  UNL1        0.1713
     10 C          21.1044   72.2584    0.2099 C.3     1  UNL1        0.1764
     11 O          20.9877   72.1861    1.6398 O.3     1  UNL1       -0.3308
     12 O          20.5231   74.2970   -0.9997 O.3     1  UNL1       -0.3794
     13 H          21.4888   76.3508    0.5742 H       1  UNL1        0.2106
     14 H          20.6927   75.2255   -1.2082 H       1  UNL1        0.2105
     15 N          21.0115   73.6672    3.5179 N.ar    1  UNL1       -0.2551
     16 C          22.2457   73.3363    3.9377 C.ar    1  UNL1        0.3323
     17 N          22.5958   73.4670    5.2310 N.ar    1  UNL1       -0.2743
     18 C          21.7077   73.9369    6.1304 C.ar    1  UNL1        0.2626
     19 C          20.4054   74.2900    5.7022 C.ar    1  UNL1        0.0795
     20 C          20.0830   74.1527    4.3989 C.ar    1  UNL1        0.0869
     21 O          23.0568   72.9116    3.1377 O.2     1  UNL1       -0.2464
     22 O          22.0235   74.0560    7.3012 O.2     1  UNL1       -0.2670
     23 H          23.4895   73.2226    5.5170 H       1  UNL1        0.1734
     24 O          21.6737   71.7603   -4.0773 O.3     1  UNL1       -0.2703
     25 P          21.5229   72.9942   -5.1008 P.3     1  UNL1        0.2208
     26 O          21.1849   74.3361   -4.2768 O.3     1  UNL1       -0.4371
     27 O          22.7895   73.1777   -5.8429 O.2     1  UNL1       -0.5170
     28 O          20.3315   72.6873   -6.1395 O.3     1  UNL1       -0.2865
     29 C          20.1118   71.3973   -6.7131 C.3     1  UNL1        0.2611
     30 C          20.0613   71.5178   -8.2381 C.3     1  UNL1        0.1582
     31 C          18.8798   72.4095   -8.6323 C.3     1  UNL1        0.1625
     32 C          17.5918   71.8171   -8.0539 C.3     1  UNL1        0.1686
     33 C          17.7376   71.6851   -6.5356 C.3     1  UNL1        0.1760
     34 O          18.7807   72.4681  -10.0571 O.3     1  UNL1       -0.3801
     35 O          17.3598   70.5285   -8.6258 O.3     1  UNL1       -0.3794
     36 O          18.8722   70.8695   -6.2367 O.3     1  UNL1       -0.3263
     37 H          18.0526   73.0176  -10.3781 H       1  UNL1        0.2105
     38 H          16.5584   70.0929   -8.3033 H       1  UNL1        0.2105
     39 C          21.3914   73.4471   -8.9064 C.2     1  UNL1        0.2231
     40 C          22.6731   74.0613   -9.4050 C.3     1  UNL1        0.0946
     41 N          21.3083   72.1145   -8.7234 N.am    1  UNL1       -0.2994
     42 O          20.4328   74.1520   -8.6693 O.2     1  UNL1       -0.2751
     43 H          22.0742   71.5504   -8.9138 H       1  UNL1        0.1496
     44 C          16.4776   71.0386   -5.9568 C.3     1  UNL1        0.1693
     45 O          16.6648   69.6246   -5.8676 O.3     1  UNL1       -0.3794
     46 H          15.9039   69.1484   -5.5082 H       1  UNL1        0.2105
@<TRIPOS>BOND
     1    29    30    1
     2    30    41    1
     3    30    31    1
     4    31    34    1
     5    31    32    1
     6    32    35    1
     7    32    33    1
     8    33    36    1
     9    33    44    1
    10    39    40    1
    11    39    42    2
    12    39    41   am
    13    41    43    1
    14    29    28    1
    15    34    37    1
    16    35    38    1
    17    29    36    1
    18    44    45    1
    19    45    46    1
    20    15     6    1
    21    15    16   ar
    22    16    21    2
    23    16    17   ar
    24    17    23    1
    25    17    18   ar
    26    18    19   ar
    27    19    20   ar
    28    15    20   ar
    29    18    22    2
    30     6     7    1
    31     6    11    1
    32     7     9    1
    33     7     8    1
    34     8    13    1
    35     9    10    1
    36     9    12    1
    37    10     5    1
    38    10    11    1
    39    12    14    1
    40     5     4    1
    41     4     1    1
    42     1     2    1
    43     1    24    1
    44     1     3    2
    45    24    25    1
    46    28    25    1
    47    25    26    1
    48    25    27    2
