
 OpenBabel04092510413D

 45 46  0  0  1  0  0  0  0  0999 V2000
   -1.7672    1.1583    0.0204 O   0  0  0  0  0  0  0  0  0  0  0  0
   -0.4402    1.3935    0.4958 C   0  0  0  0  0  0  0  0  0  0  0  0
    0.5708    0.5978   -0.3446 C   0  0  1  0  0  0  0  0  0  0  0  0
    0.6273    1.1409   -1.6692 O   0  0  0  0  0  0  0  0  0  0  0  0
    1.4088    0.3544   -2.5782 C   0  0  1  0  0  0  0  0  0  0  0  0
    1.3157    1.0466   -3.8302 O   0  0  0  0  0  0  0  0  0  0  0  0
    1.9864    0.5012   -4.9761 C   0  0  1  0  0  0  0  0  0  0  0  0
    1.4704   -0.9093   -5.3511 C   0  0  2  0  0  0  0  0  0  0  0  0
    1.9405   -1.8933   -4.4170 O   0  0  0  0  0  0  0  0  0  0  0  0
    1.9116   -1.3266   -6.7596 C   0  0  1  0  0  0  0  0  0  0  0  0
    1.2957   -2.5648   -7.1342 O   0  0  0  0  0  0  0  0  0  0  0  0
    1.6065   -0.2183   -7.7774 C   0  0  1  0  0  0  0  0  0  0  0  0
    0.2134   -0.0477   -8.0222 O   0  0  0  0  0  0  0  0  0  0  0  0
    2.2171    1.0045   -7.3895 O   0  0  0  0  0  0  0  0  0  0  0  0
    1.7553    1.5055   -6.1340 C   0  0  2  0  0  0  0  0  0  0  0  0
    2.4856    2.8373   -5.8596 C   0  0  0  0  0  0  0  0  0  0  0  0
    2.0125    3.5217   -4.7046 O   0  0  0  0  0  0  0  0  0  0  0  0
    2.8743    0.2436   -2.0789 C   0  0  2  0  0  0  0  0  0  0  0  0
    3.6361   -0.7237   -2.8385 O   0  0  0  0  0  0  0  0  0  0  0  0
    2.9439   -0.1230   -0.5895 C   0  0  1  0  0  0  0  0  0  0  0  0
    4.2888    0.0341   -0.1157 O   0  0  0  0  0  0  0  0  0  0  0  0
    1.9674    0.6813    0.2731 C   0  0  2  0  0  0  0  0  0  0  0  0
    1.9658    0.2040    1.6198 O   0  0  0  0  0  0  0  0  0  0  0  0
   -2.3500    1.7553    0.5181 H   0  0  0  0  0  0  0  0  0  0  0  0
   -0.4151    1.0829    1.5442 H   0  0  0  0  0  0  0  0  0  0  0  0
   -0.2405    2.4667    0.4295 H   0  0  0  0  0  0  0  0  0  0  0  0
    0.2205   -0.4434   -0.3987 H   0  0  0  0  0  0  0  0  0  0  0  0
    0.9285   -0.6240   -2.6713 H   0  0  0  0  0  0  0  0  0  0  0  0
    3.0630    0.4630   -4.7842 H   0  0  0  0  0  0  0  0  0  0  0  0
    0.3809   -0.9371   -5.2675 H   0  0  0  0  0  0  0  0  0  0  0  0
    2.9021   -1.7529   -4.3072 H   0  0  0  0  0  0  0  0  0  0  0  0
    2.9932   -1.5085   -6.7430 H   0  0  0  0  0  0  0  0  0  0  0  0
    0.3314   -2.4368   -7.1409 H   0  0  0  0  0  0  0  0  0  0  0  0
    2.0409   -0.5026   -8.7406 H   0  0  0  0  0  0  0  0  0  0  0  0
   -0.2698   -0.0530   -7.1884 H   0  0  0  0  0  0  0  0  0  0  0  0
    0.6850    1.7379   -6.2038 H   0  0  0  0  0  0  0  0  0  0  0  0
    3.5628    2.6674   -5.7463 H   0  0  0  0  0  0  0  0  0  0  0  0
    2.3697    3.5098   -6.7169 H   0  0  0  0  0  0  0  0  0  0  0  0
    1.5933    2.8667   -4.1095 H   0  0  0  0  0  0  0  0  0  0  0  0
    3.3764    1.2048   -2.2443 H   0  0  0  0  0  0  0  0  0  0  0  0
    3.6802   -1.5460   -2.3131 H   0  0  0  0  0  0  0  0  0  0  0  0
    2.7315   -1.1933   -0.4655 H   0  0  0  0  0  0  0  0  0  0  0  0
    4.5189    0.9817   -0.1583 H   0  0  0  0  0  0  0  0  0  0  0  0
    2.3011    1.7257    0.3080 H   0  0  0  0  0  0  0  0  0  0  0  0
    2.0462   -0.7665    1.6141 H   0  0  0  0  0  0  0  0  0  0  0  0
  1  2  1  0  0  0  0
  1 24  1  0  0  0  0
  2 25  1  0  0  0  0
  2 26  1  0  0  0  0
  3  4  1  0  0  0  0
  3 22  1  0  0  0  0
  3  2  1  0  0  0  0
  3 27  1  6  0  0  0
  4  5  1  0  0  0  0
  5 18  1  0  0  0  0
  5  6  1  0  0  0  0
  5 28  1  6  0  0  0
  6  7  1  0  0  0  0
  7  8  1  0  0  0  0
  7 15  1  0  0  0  0
  7 29  1  1  0  0  0
  8  9  1  0  0  0  0
  8 10  1  0  0  0  0
  8 30  1  1  0  0  0
  9 31  1  0  0  0  0
 10 11  1  0  0  0  0
 10 12  1  0  0  0  0
 10 32  1  1  0  0  0
 11 33  1  0  0  0  0
 12 13  1  0  0  0  0
 12 14  1  0  0  0  0
 12 34  1  6  0  0  0
 13 35  1  0  0  0  0
 14 15  1  0  0  0  0
 15 16  1  0  0  0  0
 15 36  1  6  0  0  0
 16 17  1  0  0  0  0
 16 37  1  0  0  0  0
 16 38  1  0  0  0  0
 17 39  1  0  0  0  0
 18 19  1  0  0  0  0
 18 20  1  0  0  0  0
 18 40  1  6  0  0  0
 19 41  1  0  0  0  0
 20 21  1  0  0  0  0
 20 22  1  0  0  0  0
 20 42  1  1  0  0  0
 21 43  1  0  0  0  0
 22 23  1  0  0  0  0
 22 44  1  1  0  0  0
 23 45  1  0  0  0  0
M  END
$$$$
