


 31 32  0  0  0  0  0  0  0  0999 V2000
  -13.7779   -2.4301   11.9315 O   0  0  0  0  0  0  0  0  0  0  0  0
  -13.5432   -5.9029   12.8205 C   0  0  0  0  0  0  0  0  0  0  0  0
  -13.2561   -4.6140   12.2645 O   0  0  0  0  0  0  0  0  0  0  0  0
  -14.2630   -3.6323   12.5437 C   0  0  0  0  0  0  0  0  0  0  0  0
  -15.6307   -4.0756   11.9588 C   0  0  0  0  0  0  0  0  0  0  0  0
  -16.7152   -3.2320   12.4120 O   0  0  0  0  0  0  0  0  0  0  0  0
  -15.9540   -5.5358   12.3063 C   0  0  0  0  0  0  0  0  0  0  0  0
  -17.0868   -5.9745   11.5432 O   0  0  0  0  0  0  0  0  0  0  0  0
  -14.7649   -6.4788   12.1030 C   0  0  0  0  0  0  0  0  0  0  0  0
  -15.0701   -7.7920   12.5759 O   0  0  0  0  0  0  0  0  0  0  0  0
  -17.1766   -3.7028   13.1329 H   0  0  0  0  0  0  0  0  0  0  0  0
  -16.8347   -5.9842   10.6003 H   0  0  0  0  0  0  0  0  0  0  0  0
  -15.6026   -7.7225   13.3882 H   0  0  0  0  0  0  0  0  0  0  0  0
  -12.3283   -7.8420   13.6437 O   0  0  0  0  0  0  0  0  0  0  0  0
  -12.3266   -6.8243   12.6404 C   0  0  0  0  0  0  0  0  0  0  0  0
  -11.4947   -8.3308   13.5443 H   0  0  0  0  0  0  0  0  0  0  0  0
  -13.2372   -1.3955   12.7667 C   0  0  0  0  0  0  0  0  0  0  0  0
  -11.7011   -1.5026   12.9262 C   0  0  0  0  0  0  0  0  0  0  0  0
  -11.3494   -2.5946   13.7897 O   0  0  0  0  0  0  0  0  0  0  0  0
  -11.0919   -0.2160   13.4972 C   0  0  0  0  0  0  0  0  0  0  0  0
   -9.6610   -0.2903   13.4908 O   0  0  0  0  0  0  0  0  0  0  0  0
  -11.5927    1.0135   12.7260 C   0  0  0  0  0  0  0  0  0  0  0  0
  -11.0784    1.0934   11.3998 O   0  0  0  0  0  0  0  0  0  0  0  0
  -13.0123    1.0702   12.7345 O   0  0  0  0  0  0  0  0  0  0  0  0
  -13.6368   -0.0509   12.1070 C   0  0  0  0  0  0  0  0  0  0  0  0
  -11.9062   -2.5222   14.5904 H   0  0  0  0  0  0  0  0  0  0  0  0
   -9.3641   -0.3869   12.5695 H   0  0  0  0  0  0  0  0  0  0  0  0
  -11.1308    0.2302   10.9745 H   0  0  0  0  0  0  0  0  0  0  0  0
  -15.1642    0.1609   12.1738 C   0  0  0  0  0  0  0  0  0  0  0  0
  -15.6537    0.3840   13.4917 O   0  0  0  0  0  0  0  0  0  0  0  0
  -14.9176    0.7270   14.0389 H   0  0  0  0  0  0  0  0  0  0  0  0
 14 15  1  0
 14 16  1  0
  2  3  1  0
  2  9  1  0
  2 15  1  0
  3  4  1  0
  4  5  1  0
  4  1  1  0
  1 17  1  0
 17 18  1  0
 17 25  1  0
 18 19  1  0
 18 20  1  0
 19 26  1  0
 20 21  1  0
 20 22  1  0
 21 27  1  0
 22 23  1  0
 22 24  1  0
 23 28  1  0
 24 25  1  0
 25 29  1  0
 29 30  1  0
 30 31  1  0
  5  6  1  0
  5  7  1  0
  6 11  1  0
  7  8  1  0
  7  9  1  0
  8 12  1  0
  9 10  1  0
 10 13  1  0
M  END
> <minimizedAffinity>
-4.95908

> <CNNscore>
0.8774828315

> <CNNaffinity>
3.1085834503

> <CNN_VS>
2.7277286053

> <CNNaffinity_variance>
0.4904622138

$$$$



 31 32  0  0  0  0  0  0  0  0999 V2000
  -13.3110   -0.9415   12.6520 O   0  0  0  0  0  0  0  0  0  0  0  0
  -10.9719    1.6957   13.3444 C   0  0  0  0  0  0  0  0  0  0  0  0
  -11.8933    0.6108   13.5082 O   0  0  0  0  0  0  0  0  0  0  0  0
  -12.4517    0.1420   12.2737 C   0  0  0  0  0  0  0  0  0  0  0  0
  -13.2274    1.2819   11.5609 C   0  0  0  0  0  0  0  0  0  0  0  0
  -13.6094    0.9200   10.2133 O   0  0  0  0  0  0  0  0  0  0  0  0
  -12.4160    2.5847   11.5181 C   0  0  0  0  0  0  0  0  0  0  0  0
  -13.2570    3.6637   11.0863 O   0  0  0  0  0  0  0  0  0  0  0  0
  -11.7469    2.9196   12.8540 C   0  0  0  0  0  0  0  0  0  0  0  0
  -10.8899    4.0553   12.7235 O   0  0  0  0  0  0  0  0  0  0  0  0
  -12.9725    1.3376    9.6016 H   0  0  0  0  0  0  0  0  0  0  0  0
  -13.9410    3.8090   11.7672 H   0  0  0  0  0  0  0  0  0  0  0  0
  -10.4397    4.0174   11.8608 H   0  0  0  0  0  0  0  0  0  0  0  0
   -8.9525    2.4633   14.4608 O   0  0  0  0  0  0  0  0  0  0  0  0
  -10.2834    1.9938   14.6855 C   0  0  0  0  0  0  0  0  0  0  0  0
   -8.5347    2.5415   15.3344 H   0  0  0  0  0  0  0  0  0  0  0  0
  -13.0916   -2.2361   12.0720 C   0  0  0  0  0  0  0  0  0  0  0  0
  -11.7965   -2.9075   12.5900 C   0  0  0  0  0  0  0  0  0  0  0  0
  -10.6333   -2.2868   12.0212 O   0  0  0  0  0  0  0  0  0  0  0  0
  -11.7563   -4.4057   12.2639 C   0  0  0  0  0  0  0  0  0  0  0  0
  -10.6238   -5.0261   12.8848 O   0  0  0  0  0  0  0  0  0  0  0  0
  -13.0671   -5.0894   12.6781 C   0  0  0  0  0  0  0  0  0  0  0  0
  -13.2355   -5.1737   14.0903 O   0  0  0  0  0  0  0  0  0  0  0  0
  -14.1812   -4.4595   12.0610 O   0  0  0  0  0  0  0  0  0  0  0  0
  -14.3392   -3.0866   12.4226 C   0  0  0  0  0  0  0  0  0  0  0  0
  -10.7817   -2.2217   11.0567 H   0  0  0  0  0  0  0  0  0  0  0  0
  -10.7100   -4.9249   13.8484 H   0  0  0  0  0  0  0  0  0  0  0  0
  -13.0058   -4.3319   14.4994 H   0  0  0  0  0  0  0  0  0  0  0  0
  -15.5915   -2.5487   11.6983 C   0  0  0  0  0  0  0  0  0  0  0  0
  -16.6862   -3.4586   11.6963 O   0  0  0  0  0  0  0  0  0  0  0  0
  -16.5758   -4.0738   12.4502 H   0  0  0  0  0  0  0  0  0  0  0  0
 14 15  1  0
 14 16  1  0
  2  3  1  0
  2  9  1  0
  2 15  1  0
  3  4  1  0
  4  5  1  0
  4  1  1  0
  1 17  1  0
 17 18  1  0
 17 25  1  0
 18 19  1  0
 18 20  1  0
 19 26  1  0
 20 21  1  0
 20 22  1  0
 21 27  1  0
 22 23  1  0
 22 24  1  0
 23 28  1  0
 24 25  1  0
 25 29  1  0
 29 30  1  0
 30 31  1  0
  5  6  1  0
  5  7  1  0
  6 11  1  0
  7  8  1  0
  7  9  1  0
  8 12  1  0
  9 10  1  0
 10 13  1  0
M  END
> <minimizedAffinity>
-5.99262

> <CNNscore>
0.8612452745

> <CNNaffinity>
2.9165117741

> <CNN_VS>
2.5118319988

> <CNNaffinity_variance>
0.5583027005

$$$$



 31 32  0  0  0  0  0  0  0  0999 V2000
  -13.1228   -3.3936   11.8594 O   0  0  0  0  0  0  0  0  0  0  0  0
  -14.6117   -0.1350   12.1239 C   0  0  0  0  0  0  0  0  0  0  0  0
  -14.3602   -1.4939   11.7462 O   0  0  0  0  0  0  0  0  0  0  0  0
  -13.1750   -2.0430   12.3373 C   0  0  0  0  0  0  0  0  0  0  0  0
  -11.9268   -1.2239   11.9126 C   0  0  0  0  0  0  0  0  0  0  0  0
  -10.7484   -1.5998   12.6629 O   0  0  0  0  0  0  0  0  0  0  0  0
  -12.1561    0.2866   12.0650 C   0  0  0  0  0  0  0  0  0  0  0  0
  -11.0881    1.0038   11.4303 O   0  0  0  0  0  0  0  0  0  0  0  0
  -13.5136    0.7453   11.5253 C   0  0  0  0  0  0  0  0  0  0  0  0
  -13.7391    2.1249   11.8209 O   0  0  0  0  0  0  0  0  0  0  0  0
  -10.6149   -0.9304   13.3617 H   0  0  0  0  0  0  0  0  0  0  0  0
  -11.1332    0.8325   10.4704 H   0  0  0  0  0  0  0  0  0  0  0  0
  -13.3886    2.3222   12.7078 H   0  0  0  0  0  0  0  0  0  0  0  0
  -15.8848    0.7832   10.2665 O   0  0  0  0  0  0  0  0  0  0  0  0
  -15.9926    0.2966   11.6059 C   0  0  0  0  0  0  0  0  0  0  0  0
  -16.7598    1.1303   10.0263 H   0  0  0  0  0  0  0  0  0  0  0  0
  -13.6315   -4.4450   12.6938 C   0  0  0  0  0  0  0  0  0  0  0  0
  -15.0448   -4.9110   12.2673 C   0  0  0  0  0  0  0  0  0  0  0  0
  -16.0370   -3.9375   12.6272 O   0  0  0  0  0  0  0  0  0  0  0  0
  -15.4250   -6.2520   12.9076 C   0  0  0  0  0  0  0  0  0  0  0  0
  -16.6681   -6.7285   12.3780 O   0  0  0  0  0  0  0  0  0  0  0  0
  -14.3034   -7.2835   12.7196 C   0  0  0  0  0  0  0  0  0  0  0  0
  -14.1570   -7.7152   11.3698 O   0  0  0  0  0  0  0  0  0  0  0  0
  -13.0761   -6.7948   13.2424 O   0  0  0  0  0  0  0  0  0  0  0  0
  -12.6096   -5.6068   12.6008 C   0  0  0  0  0  0  0  0  0  0  0  0
  -15.8788   -3.6938   13.5611 H   0  0  0  0  0  0  0  0  0  0  0  0
  -16.5600   -6.8660   11.4211 H   0  0  0  0  0  0  0  0  0  0  0  0
  -14.1887   -6.9563   10.7768 H   0  0  0  0  0  0  0  0  0  0  0  0
  -11.2686   -5.2122   13.2552 C   0  0  0  0  0  0  0  0  0  0  0  0
  -10.3924   -4.5063   12.3833 O   0  0  0  0  0  0  0  0  0  0  0  0
  -10.9304   -4.0863   11.6811 H   0  0  0  0  0  0  0  0  0  0  0  0
 14 15  1  0
 14 16  1  0
  2  3  1  0
  2  9  1  0
  2 15  1  0
  3  4  1  0
  4  5  1  0
  4  1  1  0
  1 17  1  0
 17 18  1  0
 17 25  1  0
 18 19  1  0
 18 20  1  0
 19 26  1  0
 20 21  1  0
 20 22  1  0
 21 27  1  0
 22 23  1  0
 22 24  1  0
 23 28  1  0
 24 25  1  0
 25 29  1  0
 29 30  1  0
 30 31  1  0
  5  6  1  0
  5  7  1  0
  6 11  1  0
  7  8  1  0
  7  9  1  0
  8 12  1  0
  9 10  1  0
 10 13  1  0
M  END
> <minimizedAffinity>
-5.47420

> <CNNscore>
0.8133080602

> <CNNaffinity>
3.0337550640

> <CNN_VS>
2.4673774242

> <CNNaffinity_variance>
0.6219597459

$$$$



 31 32  0  0  0  0  0  0  0  0999 V2000
  -13.4663   -0.6618   12.5803 O   0  0  0  0  0  0  0  0  0  0  0  0
  -14.3616   -4.1139   12.1475 C   0  0  0  0  0  0  0  0  0  0  0  0
  -14.3424   -2.7558   12.6034 O   0  0  0  0  0  0  0  0  0  0  0  0
  -13.2942   -1.9703   12.0203 C   0  0  0  0  0  0  0  0  0  0  0  0
  -11.9068   -2.5755   12.3637 C   0  0  0  0  0  0  0  0  0  0  0  0
  -10.8400   -1.9522   11.6110 O   0  0  0  0  0  0  0  0  0  0  0  0
  -11.8696   -4.0914   12.1226 C   0  0  0  0  0  0  0  0  0  0  0  0
  -10.6703   -4.6409   12.6862 O   0  0  0  0  0  0  0  0  0  0  0  0
  -13.1050   -4.8160   12.6641 C   0  0  0  0  0  0  0  0  0  0  0  0
  -13.0921   -6.1944   12.2882 O   0  0  0  0  0  0  0  0  0  0  0  0
  -10.6139   -2.5457   10.8689 H   0  0  0  0  0  0  0  0  0  0  0  0
  -10.7123   -4.5357   13.6556 H   0  0  0  0  0  0  0  0  0  0  0  0
  -12.7426   -6.2746   11.3828 H   0  0  0  0  0  0  0  0  0  0  0  0
  -15.8917   -5.9873   11.8972 O   0  0  0  0  0  0  0  0  0  0  0  0
  -15.6256   -4.8148   12.6696 C   0  0  0  0  0  0  0  0  0  0  0  0
  -16.7464   -6.3331   12.2034 H   0  0  0  0  0  0  0  0  0  0  0  0
  -12.4951   -0.1757   13.5189 C   0  0  0  0  0  0  0  0  0  0  0  0
  -11.7484    1.0792   13.0050 C   0  0  0  0  0  0  0  0  0  0  0  0
  -10.8069    0.7321   11.9780 O   0  0  0  0  0  0  0  0  0  0  0  0
  -10.9960    1.8008   14.1302 C   0  0  0  0  0  0  0  0  0  0  0  0
  -10.4434    3.0347   13.6560 O   0  0  0  0  0  0  0  0  0  0  0  0
  -11.9118    2.0257   15.3418 C   0  0  0  0  0  0  0  0  0  0  0  0
  -12.9331    2.9900   15.1033 O   0  0  0  0  0  0  0  0  0  0  0  0
  -12.4580    0.7954   15.7963 O   0  0  0  0  0  0  0  0  0  0  0  0
  -13.2698    0.1326   14.8257 C   0  0  0  0  0  0  0  0  0  0  0  0
  -10.2873   -0.0288   12.3060 H   0  0  0  0  0  0  0  0  0  0  0  0
  -11.1751    3.6046   13.3626 H   0  0  0  0  0  0  0  0  0  0  0  0
  -13.3379    2.8339   14.2428 H   0  0  0  0  0  0  0  0  0  0  0  0
  -13.8056   -1.1658   15.4655 C   0  0  0  0  0  0  0  0  0  0  0  0
  -12.8103   -2.1672   15.6468 O   0  0  0  0  0  0  0  0  0  0  0  0
  -11.9358   -1.7282   15.6835 H   0  0  0  0  0  0  0  0  0  0  0  0
 14 15  1  0
 14 16  1  0
  2  3  1  0
  2  9  1  0
  2 15  1  0
  3  4  1  0
  4  5  1  0
  4  1  1  0
  1 17  1  0
 17 18  1  0
 17 25  1  0
 18 19  1  0
 18 20  1  0
 19 26  1  0
 20 21  1  0
 20 22  1  0
 21 27  1  0
 22 23  1  0
 22 24  1  0
 23 28  1  0
 24 25  1  0
 25 29  1  0
 29 30  1  0
 30 31  1  0
  5  6  1  0
  5  7  1  0
  6 11  1  0
  7  8  1  0
  7  9  1  0
  8 12  1  0
  9 10  1  0
 10 13  1  0
M  END
> <minimizedAffinity>
-5.71014

> <CNNscore>
0.7955076694

> <CNNaffinity>
2.7377388477

> <CNN_VS>
2.1778922081

> <CNNaffinity_variance>
0.7313353419

$$$$



 31 32  0  0  0  0  0  0  0  0999 V2000
  -11.9443   -0.0641   11.6253 O   0  0  0  0  0  0  0  0  0  0  0  0
  -14.4480   -2.6269   11.8888 C   0  0  0  0  0  0  0  0  0  0  0  0
  -13.7928   -1.3528   11.8993 O   0  0  0  0  0  0  0  0  0  0  0  0
  -12.3954   -1.4244   11.5867 C   0  0  0  0  0  0  0  0  0  0  0  0
  -11.6532   -2.3159   12.6180 C   0  0  0  0  0  0  0  0  0  0  0  0
  -10.2939   -2.6004   12.2126 O   0  0  0  0  0  0  0  0  0  0  0  0
  -12.3900   -3.6407   12.8624 C   0  0  0  0  0  0  0  0  0  0  0  0
  -11.8159   -4.3113   13.9931 O   0  0  0  0  0  0  0  0  0  0  0  0
  -13.8997   -3.4631   13.0460 C   0  0  0  0  0  0  0  0  0  0  0  0
  -14.5556   -4.7301   13.1236 O   0  0  0  0  0  0  0  0  0  0  0  0
  -10.2797   -3.4993   11.8306 H   0  0  0  0  0  0  0  0  0  0  0  0
  -11.9874   -3.7713   14.7879 H   0  0  0  0  0  0  0  0  0  0  0  0
  -14.1316   -5.3471   12.5008 H   0  0  0  0  0  0  0  0  0  0  0  0
  -16.4670   -1.6519   10.9472 O   0  0  0  0  0  0  0  0  0  0  0  0
  -15.9645   -2.4276   12.0371 C   0  0  0  0  0  0  0  0  0  0  0  0
  -17.4024   -1.4747   11.1408 H   0  0  0  0  0  0  0  0  0  0  0  0
  -11.8206    0.5901   12.8969 C   0  0  0  0  0  0  0  0  0  0  0  0
  -10.3575    0.9714   13.2292 C   0  0  0  0  0  0  0  0  0  0  0  0
   -9.5910   -0.1908   13.5807 O   0  0  0  0  0  0  0  0  0  0  0  0
  -10.2741    1.9763   14.3850 C   0  0  0  0  0  0  0  0  0  0  0  0
   -8.9251    2.4231   14.5676 O   0  0  0  0  0  0  0  0  0  0  0  0
  -11.2287    3.1561   14.1518 C   0  0  0  0  0  0  0  0  0  0  0  0
  -10.8192    4.0084   13.0862 O   0  0  0  0  0  0  0  0  0  0  0  0
  -12.5605    2.6978   13.9652 O   0  0  0  0  0  0  0  0  0  0  0  0
  -12.7229    1.8487   12.8281 C   0  0  0  0  0  0  0  0  0  0  0  0
  -10.1119   -0.6937   14.2381 H   0  0  0  0  0  0  0  0  0  0  0  0
   -8.6380    2.8697   13.7525 H   0  0  0  0  0  0  0  0  0  0  0  0
  -10.5474    3.4792   12.3280 H   0  0  0  0  0  0  0  0  0  0  0  0
  -14.2122    1.4525   12.7435 C   0  0  0  0  0  0  0  0  0  0  0  0
  -15.0591    2.5039   12.2924 O   0  0  0  0  0  0  0  0  0  0  0  0
  -14.5165    3.1362   11.7779 H   0  0  0  0  0  0  0  0  0  0  0  0
 14 15  1  0
 14 16  1  0
  2  3  1  0
  2  9  1  0
  2 15  1  0
  3  4  1  0
  4  5  1  0
  4  1  1  0
  1 17  1  0
 17 18  1  0
 17 25  1  0
 18 19  1  0
 18 20  1  0
 19 26  1  0
 20 21  1  0
 20 22  1  0
 21 27  1  0
 22 23  1  0
 22 24  1  0
 23 28  1  0
 24 25  1  0
 25 29  1  0
 29 30  1  0
 30 31  1  0
  5  6  1  0
  5  7  1  0
  6 11  1  0
  7  8  1  0
  7  9  1  0
  8 12  1  0
  9 10  1  0
 10 13  1  0
M  END
> <minimizedAffinity>
-6.04026

> <CNNscore>
0.7256550789

> <CNNaffinity>
2.9604928493

> <CNN_VS>
2.1482965946

> <CNNaffinity_variance>
0.5087761879

$$$$



 31 32  0  0  0  0  0  0  0  0999 V2000
  -12.9008   -0.6652   13.7699 O   0  0  0  0  0  0  0  0  0  0  0  0
  -11.1984    2.0702   15.3589 C   0  0  0  0  0  0  0  0  0  0  0  0
  -12.1412    1.0293   15.0753 O   0  0  0  0  0  0  0  0  0  0  0  0
  -11.8756    0.3337   13.8501 C   0  0  0  0  0  0  0  0  0  0  0  0
  -11.9197    1.3147   12.6481 C   0  0  0  0  0  0  0  0  0  0  0  0
  -11.4347    0.7041   11.4295 O   0  0  0  0  0  0  0  0  0  0  0  0
  -11.1126    2.5916   12.9233 C   0  0  0  0  0  0  0  0  0  0  0  0
  -11.3867    3.5650   11.9058 O   0  0  0  0  0  0  0  0  0  0  0  0
  -11.3687    3.1754   14.3155 C   0  0  0  0  0  0  0  0  0  0  0  0
  -10.4909    4.2720   14.5769 O   0  0  0  0  0  0  0  0  0  0  0  0
  -10.5151    1.0037   11.2925 H   0  0  0  0  0  0  0  0  0  0  0  0
  -12.3227    3.8310   11.9817 H   0  0  0  0  0  0  0  0  0  0  0  0
   -9.6148    4.0760   14.1996 H   0  0  0  0  0  0  0  0  0  0  0  0
  -10.5800    1.9746   17.7088 O   0  0  0  0  0  0  0  0  0  0  0  0
  -11.4464    2.6190   16.7727 C   0  0  0  0  0  0  0  0  0  0  0  0
  -10.8446    2.2847   18.5906 H   0  0  0  0  0  0  0  0  0  0  0  0
  -12.7773   -1.7093   12.7927 C   0  0  0  0  0  0  0  0  0  0  0  0
  -11.5555   -2.6240   13.0517 C   0  0  0  0  0  0  0  0  0  0  0  0
  -10.3314   -1.9538   12.7139 O   0  0  0  0  0  0  0  0  0  0  0  0
  -11.6334   -3.9279   12.2476 C   0  0  0  0  0  0  0  0  0  0  0  0
  -10.5718   -4.8145   12.6216 O   0  0  0  0  0  0  0  0  0  0  0  0
  -13.0063   -4.5934   12.4196 C   0  0  0  0  0  0  0  0  0  0  0  0
  -13.2141   -5.1245   13.7252 O   0  0  0  0  0  0  0  0  0  0  0  0
  -14.0489   -3.7008   12.0523 O   0  0  0  0  0  0  0  0  0  0  0  0
  -14.0996   -2.5162   12.8489 C   0  0  0  0  0  0  0  0  0  0  0  0
  -10.4511   -1.5611   11.8262 H   0  0  0  0  0  0  0  0  0  0  0  0
  -10.6717   -5.0302   13.5649 H   0  0  0  0  0  0  0  0  0  0  0  0
  -12.9243   -4.4884   14.3886 H   0  0  0  0  0  0  0  0  0  0  0  0
  -15.2852   -1.6626   12.3508 C   0  0  0  0  0  0  0  0  0  0  0  0
  -14.8933   -0.5442   11.5622 O   0  0  0  0  0  0  0  0  0  0  0  0
  -14.0114   -0.7315   11.1802 H   0  0  0  0  0  0  0  0  0  0  0  0
 14 15  1  0
 14 16  1  0
  2  3  1  0
  2  9  1  0
  2 15  1  0
  3  4  1  0
  4  5  1  0
  4  1  1  0
  1 17  1  0
 17 18  1  0
 17 25  1  0
 18 19  1  0
 18 20  1  0
 19 26  1  0
 20 21  1  0
 20 22  1  0
 21 27  1  0
 22 23  1  0
 22 24  1  0
 23 28  1  0
 24 25  1  0
 25 29  1  0
 29 30  1  0
 30 31  1  0
  5  6  1  0
  5  7  1  0
  6 11  1  0
  7  8  1  0
  7  9  1  0
  8 12  1  0
  9 10  1  0
 10 13  1  0
M  END
> <minimizedAffinity>
-6.05962

> <CNNscore>
0.6574669480

> <CNNaffinity>
2.7293291092

> <CNN_VS>
1.7944437265

> <CNNaffinity_variance>
0.6028733850

$$$$



 31 32  0  0  0  0  0  0  0  0999 V2000
  -14.2023   -0.3005   13.5612 O   0  0  0  0  0  0  0  0  0  0  0  0
  -12.4628   -3.3960   13.0155 C   0  0  0  0  0  0  0  0  0  0  0  0
  -12.8202   -2.0088   12.9916 O   0  0  0  0  0  0  0  0  0  0  0  0
  -14.0442   -1.7204   13.6803 C   0  0  0  0  0  0  0  0  0  0  0  0
  -15.2249   -2.4962   13.0373 C   0  0  0  0  0  0  0  0  0  0  0  0
  -16.4284   -2.4150   13.8360 O   0  0  0  0  0  0  0  0  0  0  0  0
  -14.8779   -3.9737   12.8043 C   0  0  0  0  0  0  0  0  0  0  0  0
  -15.8871   -4.5840   11.9876 O   0  0  0  0  0  0  0  0  0  0  0  0
  -13.4892   -4.1749   12.1916 C   0  0  0  0  0  0  0  0  0  0  0  0
  -13.1561   -5.5630   12.1304 O   0  0  0  0  0  0  0  0  0  0  0  0
  -16.5084   -3.2487   14.3386 H   0  0  0  0  0  0  0  0  0  0  0  0
  -15.8564   -4.1702   11.1041 H   0  0  0  0  0  0  0  0  0  0  0  0
  -13.4893   -6.0063   12.9309 H   0  0  0  0  0  0  0  0  0  0  0  0
  -10.5883   -4.9055   12.6671 O   0  0  0  0  0  0  0  0  0  0  0  0
  -11.0528   -3.5748   12.4310 C   0  0  0  0  0  0  0  0  0  0  0  0
   -9.6645   -4.9340   12.3679 H   0  0  0  0  0  0  0  0  0  0  0  0
  -13.0359    0.5139   13.3699 C   0  0  0  0  0  0  0  0  0  0  0  0
  -12.9335    1.0767   11.9314 C   0  0  0  0  0  0  0  0  0  0  0  0
  -12.5551    0.0485   11.0033 O   0  0  0  0  0  0  0  0  0  0  0  0
  -11.9148    2.2191   11.8328 C   0  0  0  0  0  0  0  0  0  0  0  0
  -11.9528    2.8169   10.5313 O   0  0  0  0  0  0  0  0  0  0  0  0
  -12.1549    3.2605   12.9352 C   0  0  0  0  0  0  0  0  0  0  0  0
  -13.3507    4.0121   12.7479 O   0  0  0  0  0  0  0  0  0  0  0  0
  -12.1217    2.6527   14.2189 O   0  0  0  0  0  0  0  0  0  0  0  0
  -13.1292    1.6584   14.4111 C   0  0  0  0  0  0  0  0  0  0  0  0
  -11.7863   -0.4193   11.3863 H   0  0  0  0  0  0  0  0  0  0  0  0
  -12.8416    3.1864   10.3904 H   0  0  0  0  0  0  0  0  0  0  0  0
  -14.0741    3.4235   12.5049 H   0  0  0  0  0  0  0  0  0  0  0  0
  -12.9825    1.1087   15.8459 C   0  0  0  0  0  0  0  0  0  0  0  0
  -11.7559    1.4670   16.4730 O   0  0  0  0  0  0  0  0  0  0  0  0
  -11.4149    2.2768   16.0409 H   0  0  0  0  0  0  0  0  0  0  0  0
 14 15  1  0
 14 16  1  0
  2  3  1  0
  2  9  1  0
  2 15  1  0
  3  4  1  0
  4  5  1  0
  4  1  1  0
  1 17  1  0
 17 18  1  0
 17 25  1  0
 18 19  1  0
 18 20  1  0
 19 26  1  0
 20 21  1  0
 20 22  1  0
 21 27  1  0
 22 23  1  0
 22 24  1  0
 23 28  1  0
 24 25  1  0
 25 29  1  0
 29 30  1  0
 30 31  1  0
  5  6  1  0
  5  7  1  0
  6 11  1  0
  7  8  1  0
  7  9  1  0
  8 12  1  0
  9 10  1  0
 10 13  1  0
M  END
> <minimizedAffinity>
-4.95809

> <CNNscore>
0.6178225279

> <CNNaffinity>
2.8796164989

> <CNN_VS>
1.7790919542

> <CNNaffinity_variance>
0.6400815845

$$$$



 31 32  0  0  0  0  0  0  0  0999 V2000
  -13.3144    3.6503   12.6843 O   0  0  0  0  0  0  0  0  0  0  0  0
  -11.2359    0.7269   12.4871 C   0  0  0  0  0  0  0  0  0  0  0  0
  -12.3772    1.5842   12.6102 O   0  0  0  0  0  0  0  0  0  0  0  0
  -12.0519    2.9801   12.5742 C   0  0  0  0  0  0  0  0  0  0  0  0
  -11.0930    3.3444   13.7392 C   0  0  0  0  0  0  0  0  0  0  0  0
  -10.5606    4.6831   13.6072 O   0  0  0  0  0  0  0  0  0  0  0  0
   -9.9274    2.3513   13.8511 C   0  0  0  0  0  0  0  0  0  0  0  0
   -9.2194    2.5738   15.0788 O   0  0  0  0  0  0  0  0  0  0  0  0
  -10.3706    0.8900   13.7376 C   0  0  0  0  0  0  0  0  0  0  0  0
   -9.2403    0.0167   13.7009 O   0  0  0  0  0  0  0  0  0  0  0  0
   -9.6565    4.6089   13.2450 H   0  0  0  0  0  0  0  0  0  0  0  0
   -9.8160    2.3545   15.8195 H   0  0  0  0  0  0  0  0  0  0  0  0
   -8.5321    0.4338   13.1786 H   0  0  0  0  0  0  0  0  0  0  0  0
  -11.6504   -1.1232   10.9644 O   0  0  0  0  0  0  0  0  0  0  0  0
  -11.7000   -0.7304   12.3375 C   0  0  0  0  0  0  0  0  0  0  0  0
  -12.0432   -2.0104   10.9153 H   0  0  0  0  0  0  0  0  0  0  0  0
  -13.8574    4.3017   11.5262 C   0  0  0  0  0  0  0  0  0  0  0  0
  -12.9971    4.0757   10.2592 C   0  0  0  0  0  0  0  0  0  0  0  0
  -11.7878    4.8479   10.3151 O   0  0  0  0  0  0  0  0  0  0  0  0
  -13.7529    4.4487    8.9777 C   0  0  0  0  0  0  0  0  0  0  0  0
  -12.9901    4.0876    7.8199 O   0  0  0  0  0  0  0  0  0  0  0  0
  -15.1444    3.8001    8.9569 C   0  0  0  0  0  0  0  0  0  0  0  0
  -15.1032    2.3861    8.7872 O   0  0  0  0  0  0  0  0  0  0  0  0
  -15.8862    4.1608   10.1136 O   0  0  0  0  0  0  0  0  0  0  0  0
  -15.2872    3.7333   11.3379 C   0  0  0  0  0  0  0  0  0  0  0  0
  -12.0375    5.7604   10.5633 H   0  0  0  0  0  0  0  0  0  0  0  0
  -12.8592    3.1237    7.8285 H   0  0  0  0  0  0  0  0  0  0  0  0
  -14.4264    2.0062    9.3585 H   0  0  0  0  0  0  0  0  0  0  0  0
  -16.2098    4.1739   12.4942 C   0  0  0  0  0  0  0  0  0  0  0  0
  -16.1513    3.3186   13.6305 O   0  0  0  0  0  0  0  0  0  0  0  0
  -15.2926    2.8481   13.6170 H   0  0  0  0  0  0  0  0  0  0  0  0
 14 15  1  0
 14 16  1  0
  2  3  1  0
  2  9  1  0
  2 15  1  0
  3  4  1  0
  4  5  1  0
  4  1  1  0
  1 17  1  0
 17 18  1  0
 17 25  1  0
 18 19  1  0
 18 20  1  0
 19 26  1  0
 20 21  1  0
 20 22  1  0
 21 27  1  0
 22 23  1  0
 22 24  1  0
 23 28  1  0
 24 25  1  0
 25 29  1  0
 29 30  1  0
 30 31  1  0
  5  6  1  0
  5  7  1  0
  6 11  1  0
  7  8  1  0
  7  9  1  0
  8 12  1  0
  9 10  1  0
 10 13  1  0
M  END
> <minimizedAffinity>
-6.72900

> <CNNscore>
0.6093589664

> <CNNaffinity>
3.6673336029

> <CNN_VS>
2.2347226143

> <CNNaffinity_variance>
0.8917134404

$$$$



 31 32  0  0  0  0  0  0  0  0999 V2000
  -13.3616    1.8202   11.4866 O   0  0  0  0  0  0  0  0  0  0  0  0
  -11.4508    3.2958   14.1469 C   0  0  0  0  0  0  0  0  0  0  0  0
  -12.2073    3.1245   12.9423 O   0  0  0  0  0  0  0  0  0  0  0  0
  -12.6085    1.7686   12.7054 C   0  0  0  0  0  0  0  0  0  0  0  0
  -11.3650    0.8473   12.5859 C   0  0  0  0  0  0  0  0  0  0  0  0
  -11.7250   -0.5539   12.5763 O   0  0  0  0  0  0  0  0  0  0  0  0
  -10.3582    1.0974   13.7178 C   0  0  0  0  0  0  0  0  0  0  0  0
   -9.1283    0.4175   13.4293 O   0  0  0  0  0  0  0  0  0  0  0  0
  -10.1070    2.5848   13.9803 C   0  0  0  0  0  0  0  0  0  0  0  0
   -9.2807    2.7661   15.1317 O   0  0  0  0  0  0  0  0  0  0  0  0
  -11.5650   -0.9080   13.4725 H   0  0  0  0  0  0  0  0  0  0  0  0
   -8.7315    0.8269   12.6371 H   0  0  0  0  0  0  0  0  0  0  0  0
   -9.5249    2.1074   15.8062 H   0  0  0  0  0  0  0  0  0  0  0  0
  -11.0911    5.0271   15.8163 O   0  0  0  0  0  0  0  0  0  0  0  0
  -11.2399    4.7943   14.4142 C   0  0  0  0  0  0  0  0  0  0  0  0
  -11.0598    5.9907   15.9356 H   0  0  0  0  0  0  0  0  0  0  0  0
  -13.6802    3.1006   10.9215 C   0  0  0  0  0  0  0  0  0  0  0  0
  -13.1285    3.2701    9.4851 C   0  0  0  0  0  0  0  0  0  0  0  0
  -11.7054    3.4605    9.5006 O   0  0  0  0  0  0  0  0  0  0  0  0
  -13.7700    4.4599    8.7601 C   0  0  0  0  0  0  0  0  0  0  0  0
  -13.3535    4.4988    7.3898 O   0  0  0  0  0  0  0  0  0  0  0  0
  -15.2999    4.4110    8.8798 C   0  0  0  0  0  0  0  0  0  0  0  0
  -15.8888    3.3510    8.1317 O   0  0  0  0  0  0  0  0  0  0  0  0
  -15.6979    4.3653   10.2429 O   0  0  0  0  0  0  0  0  0  0  0  0
  -15.2261    3.2123   10.9419 C   0  0  0  0  0  0  0  0  0  0  0  0
  -11.5121    4.1487   10.1680 H   0  0  0  0  0  0  0  0  0  0  0  0
  -13.6507    3.6801    6.9566 H   0  0  0  0  0  0  0  0  0  0  0  0
  -15.3901    2.5374    8.2662 H   0  0  0  0  0  0  0  0  0  0  0  0
  -15.7519    3.2906   12.3909 C   0  0  0  0  0  0  0  0  0  0  0  0
  -16.2078    4.5862   12.7648 O   0  0  0  0  0  0  0  0  0  0  0  0
  -16.4484    5.0741   11.9505 H   0  0  0  0  0  0  0  0  0  0  0  0
 14 15  1  0
 14 16  1  0
  2  3  1  0
  2  9  1  0
  2 15  1  0
  3  4  1  0
  4  5  1  0
  4  1  1  0
  1 17  1  0
 17 18  1  0
 17 25  1  0
 18 19  1  0
 18 20  1  0
 19 26  1  0
 20 21  1  0
 20 22  1  0
 21 27  1  0
 22 23  1  0
 22 24  1  0
 23 28  1  0
 24 25  1  0
 25 29  1  0
 29 30  1  0
 30 31  1  0
  5  6  1  0
  5  7  1  0
  6 11  1  0
  7  8  1  0
  7  9  1  0
  8 12  1  0
  9 10  1  0
 10 13  1  0
M  END
> <minimizedAffinity>
-6.25215

> <CNNscore>
0.5552014709

> <CNNaffinity>
3.6374053955

> <CNN_VS>
2.0194928646

> <CNNaffinity_variance>
0.8708235621

$$$$



 31 32  0  0  0  0  0  0  0  0999 V2000
  -13.3696   -3.1854   12.3779 O   0  0  0  0  0  0  0  0  0  0  0  0
  -12.7143   -0.3712   14.5124 C   0  0  0  0  0  0  0  0  0  0  0  0
  -13.3647   -1.4734   13.8685 O   0  0  0  0  0  0  0  0  0  0  0  0
  -12.5563   -2.1131   12.8720 C   0  0  0  0  0  0  0  0  0  0  0  0
  -12.1741   -1.1062   11.7543 C   0  0  0  0  0  0  0  0  0  0  0  0
  -11.1769   -1.6445   10.8550 O   0  0  0  0  0  0  0  0  0  0  0  0
  -11.6623    0.2211   12.3321 C   0  0  0  0  0  0  0  0  0  0  0  0
  -11.5646    1.1977   11.2859 O   0  0  0  0  0  0  0  0  0  0  0  0
  -12.5227    0.7455   13.4851 C   0  0  0  0  0  0  0  0  0  0  0  0
  -11.9265    1.8990   14.0813 O   0  0  0  0  0  0  0  0  0  0  0  0
  -10.3118   -1.2714   11.1129 H   0  0  0  0  0  0  0  0  0  0  0  0
  -12.4651    1.3887   10.9613 H   0  0  0  0  0  0  0  0  0  0  0  0
  -10.9601    1.7812   14.1066 H   0  0  0  0  0  0  0  0  0  0  0  0
  -12.7396    0.6653   16.7121 O   0  0  0  0  0  0  0  0  0  0  0  0
  -13.5736    0.1184   15.6886 C   0  0  0  0  0  0  0  0  0  0  0  0
  -13.3200    0.8668   17.4647 H   0  0  0  0  0  0  0  0  0  0  0  0
  -13.0517   -4.5313   12.7624 C   0  0  0  0  0  0  0  0  0  0  0  0
  -11.6333   -4.6566   13.3697 C   0  0  0  0  0  0  0  0  0  0  0  0
  -10.6270   -4.5476   12.3512 O   0  0  0  0  0  0  0  0  0  0  0  0
  -11.4387   -5.9888   14.1044 C   0  0  0  0  0  0  0  0  0  0  0  0
  -10.1760   -6.0111   14.7811 O   0  0  0  0  0  0  0  0  0  0  0  0
  -12.5993   -6.2512   15.0747 C   0  0  0  0  0  0  0  0  0  0  0  0
  -12.6014   -5.3757   16.1986 O   0  0  0  0  0  0  0  0  0  0  0  0
  -13.8446   -6.2190   14.3916 O   0  0  0  0  0  0  0  0  0  0  0  0
  -14.1357   -4.9590   13.7846 C   0  0  0  0  0  0  0  0  0  0  0  0
  -10.8862   -5.1458   11.6222 H   0  0  0  0  0  0  0  0  0  0  0  0
  -10.1693   -5.2948   15.4393 H   0  0  0  0  0  0  0  0  0  0  0  0
  -12.4376   -4.4707   15.9105 H   0  0  0  0  0  0  0  0  0  0  0  0
  -15.5173   -5.0700   13.1056 C   0  0  0  0  0  0  0  0  0  0  0  0
  -15.6005   -6.1177   12.1456 O   0  0  0  0  0  0  0  0  0  0  0  0
  -14.9175   -6.7858   12.3600 H   0  0  0  0  0  0  0  0  0  0  0  0
 14 15  1  0
 14 16  1  0
  2  3  1  0
  2  9  1  0
  2 15  1  0
  3  4  1  0
  4  5  1  0
  4  1  1  0
  1 17  1  0
 17 18  1  0
 17 25  1  0
 18 19  1  0
 18 20  1  0
 19 26  1  0
 20 21  1  0
 20 22  1  0
 21 27  1  0
 22 23  1  0
 22 24  1  0
 23 28  1  0
 24 25  1  0
 25 29  1  0
 29 30  1  0
 30 31  1  0
  5  6  1  0
  5  7  1  0
  6 11  1  0
  7  8  1  0
  7  9  1  0
  8 12  1  0
  9 10  1  0
 10 13  1  0
M  END
> <minimizedAffinity>
-5.42564

> <CNNscore>
0.5339381695

> <CNNaffinity>
3.0016596317

> <CNN_VS>
1.6027005911

> <CNNaffinity_variance>
0.6567221284

$$$$



 31 32  0  0  0  0  0  0  0  0999 V2000
  -13.8996    0.8289   12.5664 O   0  0  0  0  0  0  0  0  0  0  0  0
  -15.1435    2.9675    9.9617 C   0  0  0  0  0  0  0  0  0  0  0  0
  -14.9213    1.8299   10.8038 O   0  0  0  0  0  0  0  0  0  0  0  0
  -13.9522    2.0608   11.8349 C   0  0  0  0  0  0  0  0  0  0  0  0
  -12.5783    2.4322   11.2156 C   0  0  0  0  0  0  0  0  0  0  0  0
  -11.6386    2.8943   12.2138 O   0  0  0  0  0  0  0  0  0  0  0  0
  -12.7149    3.5029   10.1236 C   0  0  0  0  0  0  0  0  0  0  0  0
  -11.4754    3.6285    9.4124 O   0  0  0  0  0  0  0  0  0  0  0  0
  -13.8701    3.2301    9.1564 C   0  0  0  0  0  0  0  0  0  0  0  0
  -14.0466    4.3230    8.2531 O   0  0  0  0  0  0  0  0  0  0  0  0
  -11.6168    3.8699   12.1723 H   0  0  0  0  0  0  0  0  0  0  0  0
  -11.3115    2.7933    8.9345 H   0  0  0  0  0  0  0  0  0  0  0  0
  -13.8954    5.1584    8.7302 H   0  0  0  0  0  0  0  0  0  0  0  0
  -16.1217    1.4639    8.3197 O   0  0  0  0  0  0  0  0  0  0  0  0
  -16.3287    2.6903    9.0235 C   0  0  0  0  0  0  0  0  0  0  0  0
  -16.8452    1.3881    7.6758 H   0  0  0  0  0  0  0  0  0  0  0  0
  -13.5277   -0.3730   11.8754 C   0  0  0  0  0  0  0  0  0  0  0  0
  -12.0831   -0.8235   12.2019 C   0  0  0  0  0  0  0  0  0  0  0  0
  -11.1220    0.0263   11.5570 O   0  0  0  0  0  0  0  0  0  0  0  0
  -11.8208   -2.2709   11.7674 C   0  0  0  0  0  0  0  0  0  0  0  0
  -10.5319   -2.7060   12.2171 O   0  0  0  0  0  0  0  0  0  0  0  0
  -12.9336   -3.2015   12.2704 C   0  0  0  0  0  0  0  0  0  0  0  0
  -12.9160   -3.3867   13.6829 O   0  0  0  0  0  0  0  0  0  0  0  0
  -14.2056   -2.7539   11.8232 O   0  0  0  0  0  0  0  0  0  0  0  0
  -14.5571   -1.4528   12.2965 C   0  0  0  0  0  0  0  0  0  0  0  0
  -11.3927    0.1124   10.6212 H   0  0  0  0  0  0  0  0  0  0  0  0
  -10.5195   -2.6713   13.1892 H   0  0  0  0  0  0  0  0  0  0  0  0
  -12.7900   -2.5391   14.1239 H   0  0  0  0  0  0  0  0  0  0  0  0
  -15.9610   -1.1152   11.7513 C   0  0  0  0  0  0  0  0  0  0  0  0
  -16.6247   -0.0867   12.4778 O   0  0  0  0  0  0  0  0  0  0  0  0
  -15.9470    0.4560   12.9307 H   0  0  0  0  0  0  0  0  0  0  0  0
 14 15  1  0
 14 16  1  0
  2  3  1  0
  2  9  1  0
  2 15  1  0
  3  4  1  0
  4  5  1  0
  4  1  1  0
  1 17  1  0
 17 18  1  0
 17 25  1  0
 18 19  1  0
 18 20  1  0
 19 26  1  0
 20 21  1  0
 20 22  1  0
 21 27  1  0
 22 23  1  0
 22 24  1  0
 23 28  1  0
 24 25  1  0
 25 29  1  0
 29 30  1  0
 30 31  1  0
  5  6  1  0
  5  7  1  0
  6 11  1  0
  7  8  1  0
  7  9  1  0
  8 12  1  0
  9 10  1  0
 10 13  1  0
M  END
> <minimizedAffinity>
-5.49942

> <CNNscore>
0.5230769515

> <CNNaffinity>
2.8601281643

> <CNN_VS>
1.4960671663

> <CNNaffinity_variance>
0.5473020077

$$$$



 31 32  0  0  0  0  0  0  0  0999 V2000
  -13.2088   -3.4917   11.6700 O   0  0  0  0  0  0  0  0  0  0  0  0
  -14.3012   -5.7642   14.2288 C   0  0  0  0  0  0  0  0  0  0  0  0
  -14.2216   -4.6375   13.3475 O   0  0  0  0  0  0  0  0  0  0  0  0
  -13.0878   -4.6747   12.4707 C   0  0  0  0  0  0  0  0  0  0  0  0
  -11.7690   -4.6946   13.2890 C   0  0  0  0  0  0  0  0  0  0  0  0
  -10.6164   -4.9622   12.4566 O   0  0  0  0  0  0  0  0  0  0  0  0
  -11.8169   -5.7275   14.4241 C   0  0  0  0  0  0  0  0  0  0  0  0
  -10.6961   -5.5362   15.2988 O   0  0  0  0  0  0  0  0  0  0  0  0
  -13.1304   -5.6950   15.2104 C   0  0  0  0  0  0  0  0  0  0  0  0
  -13.1846   -6.7654   16.1552 O   0  0  0  0  0  0  0  0  0  0  0  0
  -10.3822   -5.9041   12.5672 H   0  0  0  0  0  0  0  0  0  0  0  0
  -10.7942   -4.6690   15.7359 H   0  0  0  0  0  0  0  0  0  0  0  0
  -12.7829   -7.5598   15.7603 H   0  0  0  0  0  0  0  0  0  0  0  0
  -15.9158   -4.4115   15.4441 O   0  0  0  0  0  0  0  0  0  0  0  0
  -15.6403   -5.7355   14.9822 C   0  0  0  0  0  0  0  0  0  0  0  0
  -16.7159   -4.4698   15.9920 H   0  0  0  0  0  0  0  0  0  0  0  0
  -13.1514   -2.2097   12.3131 C   0  0  0  0  0  0  0  0  0  0  0  0
  -11.9030   -1.3929   11.8999 C   0  0  0  0  0  0  0  0  0  0  0  0
  -10.7169   -1.9231   12.5112 O   0  0  0  0  0  0  0  0  0  0  0  0
  -12.0300    0.0857   12.2873 C   0  0  0  0  0  0  0  0  0  0  0  0
  -10.9325    0.8407   11.7597 O   0  0  0  0  0  0  0  0  0  0  0  0
  -13.3776    0.6571   11.8240 C   0  0  0  0  0  0  0  0  0  0  0  0
  -13.4758    0.7889   10.4088 O   0  0  0  0  0  0  0  0  0  0  0  0
  -14.4557   -0.1053   12.3485 O   0  0  0  0  0  0  0  0  0  0  0  0
  -14.4563   -1.4691   11.9237 C   0  0  0  0  0  0  0  0  0  0  0  0
  -10.9107   -2.0461   13.4619 H   0  0  0  0  0  0  0  0  0  0  0  0
  -10.9552    0.7756   10.7894 H   0  0  0  0  0  0  0  0  0  0  0  0
  -13.1414   -0.0071    9.9807 H   0  0  0  0  0  0  0  0  0  0  0  0
  -15.6868   -2.1584   12.5507 C   0  0  0  0  0  0  0  0  0  0  0  0
  -16.2114   -3.2206   11.7615 O   0  0  0  0  0  0  0  0  0  0  0  0
  -15.4976   -3.5520   11.1789 H   0  0  0  0  0  0  0  0  0  0  0  0
 14 15  1  0
 14 16  1  0
  2  3  1  0
  2  9  1  0
  2 15  1  0
  3  4  1  0
  4  5  1  0
  4  1  1  0
  1 17  1  0
 17 18  1  0
 17 25  1  0
 18 19  1  0
 18 20  1  0
 19 26  1  0
 20 21  1  0
 20 22  1  0
 21 27  1  0
 22 23  1  0
 22 24  1  0
 23 28  1  0
 24 25  1  0
 25 29  1  0
 29 30  1  0
 30 31  1  0
  5  6  1  0
  5  7  1  0
  6 11  1  0
  7  8  1  0
  7  9  1  0
  8 12  1  0
  9 10  1  0
 10 13  1  0
M  END
> <minimizedAffinity>
-5.26861

> <CNNscore>
0.5186921358

> <CNNaffinity>
2.6709988117

> <CNN_VS>
1.3854260445

> <CNNaffinity_variance>
0.7737805247

$$$$



 31 32  0  0  0  0  0  0  0  0999 V2000
  -12.1384   -2.1538   11.4488 O   0  0  0  0  0  0  0  0  0  0  0  0
  -13.6038    1.0927   10.9819 C   0  0  0  0  0  0  0  0  0  0  0  0
  -13.0826   -0.2182   10.7316 O   0  0  0  0  0  0  0  0  0  0  0  0
  -12.5807   -0.8692   11.9063 C   0  0  0  0  0  0  0  0  0  0  0  0
  -11.4265   -0.0428   12.5340 C   0  0  0  0  0  0  0  0  0  0  0  0
  -11.0477   -0.5408   13.8384 O   0  0  0  0  0  0  0  0  0  0  0  0
  -11.7880    1.4448   12.6521 C   0  0  0  0  0  0  0  0  0  0  0  0
  -10.6176    2.2007   12.9939 O   0  0  0  0  0  0  0  0  0  0  0  0
  -12.4456    2.0051   11.3879 C   0  0  0  0  0  0  0  0  0  0  0  0
  -12.8934    3.3455   11.5985 O   0  0  0  0  0  0  0  0  0  0  0  0
  -11.4629    0.0359   14.5087 H   0  0  0  0  0  0  0  0  0  0  0  0
   -9.9906    2.1469   12.2478 H   0  0  0  0  0  0  0  0  0  0  0  0
  -13.2486    3.4247   12.5018 H   0  0  0  0  0  0  0  0  0  0  0  0
  -13.9018    0.8463    8.5810 O   0  0  0  0  0  0  0  0  0  0  0  0
  -14.2917    1.6242    9.7146 C   0  0  0  0  0  0  0  0  0  0  0  0
  -14.2839    1.2817    7.8011 H   0  0  0  0  0  0  0  0  0  0  0  0
  -12.6010   -3.3299   12.1295 C   0  0  0  0  0  0  0  0  0  0  0  0
  -11.5489   -3.9008   13.1111 C   0  0  0  0  0  0  0  0  0  0  0  0
  -10.4808   -4.5463   12.4009 O   0  0  0  0  0  0  0  0  0  0  0  0
  -12.1634   -4.9113   14.0878 C   0  0  0  0  0  0  0  0  0  0  0  0
  -11.2030   -5.3056   15.0752 O   0  0  0  0  0  0  0  0  0  0  0  0
  -13.4324   -4.3404   14.7366 C   0  0  0  0  0  0  0  0  0  0  0  0
  -13.1682   -3.2801   15.6508 O   0  0  0  0  0  0  0  0  0  0  0  0
  -14.3720   -3.9472   13.7461 O   0  0  0  0  0  0  0  0  0  0  0  0
  -13.8954   -2.9189   12.8767 C   0  0  0  0  0  0  0  0  0  0  0  0
  -10.8893   -5.1430   11.7425 H   0  0  0  0  0  0  0  0  0  0  0  0
  -10.9395   -4.5155   15.5779 H   0  0  0  0  0  0  0  0  0  0  0  0
  -12.5310   -2.6669   15.2676 H   0  0  0  0  0  0  0  0  0  0  0  0
  -15.0235   -2.5849   11.8775 C   0  0  0  0  0  0  0  0  0  0  0  0
  -16.0490   -1.7641   12.4261 O   0  0  0  0  0  0  0  0  0  0  0  0
  -15.6748   -1.2707   13.1846 H   0  0  0  0  0  0  0  0  0  0  0  0
 14 15  1  0
 14 16  1  0
  2  3  1  0
  2  9  1  0
  2 15  1  0
  3  4  1  0
  4  5  1  0
  4  1  1  0
  1 17  1  0
 17 18  1  0
 17 25  1  0
 18 19  1  0
 18 20  1  0
 19 26  1  0
 20 21  1  0
 20 22  1  0
 21 27  1  0
 22 23  1  0
 22 24  1  0
 23 28  1  0
 24 25  1  0
 25 29  1  0
 29 30  1  0
 30 31  1  0
  5  6  1  0
  5  7  1  0
  6 11  1  0
  7  8  1  0
  7  9  1  0
  8 12  1  0
  9 10  1  0
 10 13  1  0
M  END
> <minimizedAffinity>
-5.95747

> <CNNscore>
0.5028839707

> <CNNaffinity>
2.5036542416

> <CNN_VS>
1.2590476274

> <CNNaffinity_variance>
0.9684103131

$$$$



 31 32  0  0  0  0  0  0  0  0999 V2000
  -12.9124   -0.2762   14.3713 O   0  0  0  0  0  0  0  0  0  0  0  0
  -12.8085    2.7904   12.5029 C   0  0  0  0  0  0  0  0  0  0  0  0
  -12.8658    1.3992   12.8404 O   0  0  0  0  0  0  0  0  0  0  0  0
  -12.8179    1.1493   14.2514 C   0  0  0  0  0  0  0  0  0  0  0  0
  -11.4990    1.7007   14.8561 C   0  0  0  0  0  0  0  0  0  0  0  0
  -11.5114    1.6755   16.3025 O   0  0  0  0  0  0  0  0  0  0  0  0
  -11.2088    3.1324   14.3832 C   0  0  0  0  0  0  0  0  0  0  0  0
   -9.8739    3.5029   14.7556 O   0  0  0  0  0  0  0  0  0  0  0  0
  -11.4254    3.3236   12.8795 C   0  0  0  0  0  0  0  0  0  0  0  0
  -11.2852    4.6982   12.5158 O   0  0  0  0  0  0  0  0  0  0  0  0
  -11.7148    2.5788   16.6137 H   0  0  0  0  0  0  0  0  0  0  0  0
   -9.2507    2.9375   14.2609 H   0  0  0  0  0  0  0  0  0  0  0  0
  -11.6702    5.2542   13.2165 H   0  0  0  0  0  0  0  0  0  0  0  0
  -11.8245    2.9754   10.2868 O   0  0  0  0  0  0  0  0  0  0  0  0
  -13.0641    2.9665   10.9979 C   0  0  0  0  0  0  0  0  0  0  0  0
  -12.0366    3.1860    9.3624 H   0  0  0  0  0  0  0  0  0  0  0  0
  -12.7094   -1.0857   13.2034 C   0  0  0  0  0  0  0  0  0  0  0  0
  -11.3715   -1.8633   13.2447 C   0  0  0  0  0  0  0  0  0  0  0  0
  -10.2593   -0.9844   13.0158 O   0  0  0  0  0  0  0  0  0  0  0  0
  -11.3269   -2.9855   12.1999 C   0  0  0  0  0  0  0  0  0  0  0  0
  -10.1454   -3.7793   12.3634 O   0  0  0  0  0  0  0  0  0  0  0  0
  -12.5956   -3.8474   12.2709 C   0  0  0  0  0  0  0  0  0  0  0  0
  -12.6689   -4.6439   13.4499 O   0  0  0  0  0  0  0  0  0  0  0  0
  -13.7586   -3.0465   12.1146 O   0  0  0  0  0  0  0  0  0  0  0  0
  -13.9162   -2.0559   13.1317 C   0  0  0  0  0  0  0  0  0  0  0  0
  -10.4721   -0.4467   12.2271 H   0  0  0  0  0  0  0  0  0  0  0  0
  -10.1695   -4.1848   13.2473 H   0  0  0  0  0  0  0  0  0  0  0  0
  -12.4273   -4.1157   14.2189 H   0  0  0  0  0  0  0  0  0  0  0  0
  -15.2227   -1.2865   12.8431 C   0  0  0  0  0  0  0  0  0  0  0  0
  -15.8307   -0.7351   14.0061 O   0  0  0  0  0  0  0  0  0  0  0  0
  -15.1395   -0.6240   14.6908 H   0  0  0  0  0  0  0  0  0  0  0  0
 14 15  1  0
 14 16  1  0
  2  3  1  0
  2  9  1  0
  2 15  1  0
  3  4  1  0
  4  5  1  0
  4  1  1  0
  1 17  1  0
 17 18  1  0
 17 25  1  0
 18 19  1  0
 18 20  1  0
 19 26  1  0
 20 21  1  0
 20 22  1  0
 21 27  1  0
 22 23  1  0
 22 24  1  0
 23 28  1  0
 24 25  1  0
 25 29  1  0
 29 30  1  0
 30 31  1  0
  5  6  1  0
  5  7  1  0
  6 11  1  0
  7  8  1  0
  7  9  1  0
  8 12  1  0
  9 10  1  0
 10 13  1  0
M  END
> <minimizedAffinity>
-5.80054

> <CNNscore>
0.4786175787

> <CNNaffinity>
2.7795610428

> <CNN_VS>
1.3303468227

> <CNNaffinity_variance>
0.7059839368

$$$$



 31 32  0  0  0  0  0  0  0  0999 V2000
  -11.4645   -0.0521   14.0966 O   0  0  0  0  0  0  0  0  0  0  0  0
  -13.4600   -2.9876   14.6498 C   0  0  0  0  0  0  0  0  0  0  0  0
  -12.7014   -1.7920   14.8682 O   0  0  0  0  0  0  0  0  0  0  0  0
  -12.1513   -1.2349   13.6671 C   0  0  0  0  0  0  0  0  0  0  0  0
  -11.1961   -2.2506   12.9852 C   0  0  0  0  0  0  0  0  0  0  0  0
  -10.8009   -1.8214   11.6613 O   0  0  0  0  0  0  0  0  0  0  0  0
  -11.8226   -3.6493   12.8913 C   0  0  0  0  0  0  0  0  0  0  0  0
  -10.8245   -4.6000   12.4938 O   0  0  0  0  0  0  0  0  0  0  0  0
  -12.5050   -4.0899   14.1893 C   0  0  0  0  0  0  0  0  0  0  0  0
  -13.1947   -5.3278   14.0070 O   0  0  0  0  0  0  0  0  0  0  0  0
  -11.3455   -2.3114   11.0151 H   0  0  0  0  0  0  0  0  0  0  0  0
  -10.1612   -4.6627   13.2071 H   0  0  0  0  0  0  0  0  0  0  0  0
  -13.6034   -5.3378   13.1231 H   0  0  0  0  0  0  0  0  0  0  0  0
  -15.4624   -2.7947   16.0161 O   0  0  0  0  0  0  0  0  0  0  0  0
  -14.1668   -3.3944   15.9523 C   0  0  0  0  0  0  0  0  0  0  0  0
  -15.8214   -3.0029   16.8945 H   0  0  0  0  0  0  0  0  0  0  0  0
  -12.2288    1.1285   14.3837 C   0  0  0  0  0  0  0  0  0  0  0  0
  -12.0764    1.5924   15.8527 C   0  0  0  0  0  0  0  0  0  0  0  0
  -12.7960    0.7250   16.7425 O   0  0  0  0  0  0  0  0  0  0  0  0
  -12.5815    3.0261   16.0577 C   0  0  0  0  0  0  0  0  0  0  0  0
  -12.2892    3.4782   17.3854 O   0  0  0  0  0  0  0  0  0  0  0  0
  -11.9888    3.9694   15.0011 C   0  0  0  0  0  0  0  0  0  0  0  0
  -10.5931    4.1988   15.1719 O   0  0  0  0  0  0  0  0  0  0  0  0
  -12.2801    3.5050   13.6904 O   0  0  0  0  0  0  0  0  0  0  0  0
  -11.7312    2.2185   13.4003 C   0  0  0  0  0  0  0  0  0  0  0  0
  -13.6935    0.6090   16.3716 H   0  0  0  0  0  0  0  0  0  0  0  0
  -11.3237    3.4739   17.5041 H   0  0  0  0  0  0  0  0  0  0  0  0
  -10.1426    3.3658   15.3502 H   0  0  0  0  0  0  0  0  0  0  0  0
  -12.1088    1.8607   11.9472 C   0  0  0  0  0  0  0  0  0  0  0  0
  -11.2064    0.9495   11.3294 O   0  0  0  0  0  0  0  0  0  0  0  0
  -10.7490    0.4453   12.0333 H   0  0  0  0  0  0  0  0  0  0  0  0
 14 15  1  0
 14 16  1  0
  2  3  1  0
  2  9  1  0
  2 15  1  0
  3  4  1  0
  4  5  1  0
  4  1  1  0
  1 17  1  0
 17 18  1  0
 17 25  1  0
 18 19  1  0
 18 20  1  0
 19 26  1  0
 20 21  1  0
 20 22  1  0
 21 27  1  0
 22 23  1  0
 22 24  1  0
 23 28  1  0
 24 25  1  0
 25 29  1  0
 29 30  1  0
 30 31  1  0
  5  6  1  0
  5  7  1  0
  6 11  1  0
  7  8  1  0
  7  9  1  0
  8 12  1  0
  9 10  1  0
 10 13  1  0
M  END
> <minimizedAffinity>
-5.24938

> <CNNscore>
0.4643072188

> <CNNaffinity>
2.9437305927

> <CNN_VS>
1.3667954206

> <CNNaffinity_variance>
0.5479087830

$$$$



 31 32  0  0  0  0  0  0  0  0999 V2000
  -12.9119    0.2693   11.0831 O   0  0  0  0  0  0  0  0  0  0  0  0
  -16.0724    1.1775    9.6365 C   0  0  0  0  0  0  0  0  0  0  0  0
  -14.8388    0.5002    9.9056 O   0  0  0  0  0  0  0  0  0  0  0  0
  -14.0734    1.1005   10.9589 C   0  0  0  0  0  0  0  0  0  0  0  0
  -13.7083    2.5653   10.5979 C   0  0  0  0  0  0  0  0  0  0  0  0
  -13.1382    3.2764   11.7214 O   0  0  0  0  0  0  0  0  0  0  0  0
  -14.9241    3.3451   10.0771 C   0  0  0  0  0  0  0  0  0  0  0  0
  -14.4942    4.5965    9.5231 O   0  0  0  0  0  0  0  0  0  0  0  0
  -15.7517    2.5565    9.0583 C   0  0  0  0  0  0  0  0  0  0  0  0
  -16.9453    3.2633    8.7160 O   0  0  0  0  0  0  0  0  0  0  0  0
  -13.8415    3.8326   12.1089 H   0  0  0  0  0  0  0  0  0  0  0  0
  -13.9506    4.4106    8.7340 H   0  0  0  0  0  0  0  0  0  0  0  0
  -17.2972    3.6992    9.5126 H   0  0  0  0  0  0  0  0  0  0  0  0
  -16.1524    0.1150    7.4506 O   0  0  0  0  0  0  0  0  0  0  0  0
  -16.9055    0.3547    8.6413 C   0  0  0  0  0  0  0  0  0  0  0  0
  -16.7548   -0.3192    6.8241 H   0  0  0  0  0  0  0  0  0  0  0  0
  -12.8481   -0.6774   12.1601 C   0  0  0  0  0  0  0  0  0  0  0  0
  -13.2627   -2.1034   11.7232 C   0  0  0  0  0  0  0  0  0  0  0  0
  -14.6829   -2.1888   11.5295 O   0  0  0  0  0  0  0  0  0  0  0  0
  -12.8482   -3.1627   12.7522 C   0  0  0  0  0  0  0  0  0  0  0  0
  -13.1084   -4.4798   12.2519 O   0  0  0  0  0  0  0  0  0  0  0  0
  -11.3736   -2.9936   13.1451 C   0  0  0  0  0  0  0  0  0  0  0  0
  -10.4699   -3.3352   12.0980 O   0  0  0  0  0  0  0  0  0  0  0  0
  -11.1289   -1.6816   13.6321 O   0  0  0  0  0  0  0  0  0  0  0  0
  -11.3856   -0.6545   12.6731 C   0  0  0  0  0  0  0  0  0  0  0  0
  -15.1073   -1.7905   12.3155 H   0  0  0  0  0  0  0  0  0  0  0  0
  -12.5785   -4.6113   11.4469 H   0  0  0  0  0  0  0  0  0  0  0  0
  -10.7716   -2.9534   11.2661 H   0  0  0  0  0  0  0  0  0  0  0  0
  -11.0566    0.7012   13.3336 C   0  0  0  0  0  0  0  0  0  0  0  0
   -9.7597    1.1934   13.0139 O   0  0  0  0  0  0  0  0  0  0  0  0
   -9.4767    0.7876   12.1689 H   0  0  0  0  0  0  0  0  0  0  0  0
 14 15  1  0
 14 16  1  0
  2  3  1  0
  2  9  1  0
  2 15  1  0
  3  4  1  0
  4  5  1  0
  4  1  1  0
  1 17  1  0
 17 18  1  0
 17 25  1  0
 18 19  1  0
 18 20  1  0
 19 26  1  0
 20 21  1  0
 20 22  1  0
 21 27  1  0
 22 23  1  0
 22 24  1  0
 23 28  1  0
 24 25  1  0
 25 29  1  0
 29 30  1  0
 30 31  1  0
  5  6  1  0
  5  7  1  0
  6 11  1  0
  7  8  1  0
  7  9  1  0
  8 12  1  0
  9 10  1  0
 10 13  1  0
M  END
> <minimizedAffinity>
-4.89420

> <CNNscore>
0.4533938169

> <CNNaffinity>
2.8599283695

> <CNN_VS>
1.2966738939

> <CNNaffinity_variance>
0.7888925672

$$$$



 31 32  0  0  0  0  0  0  0  0999 V2000
  -11.7471   -0.4583   14.1247 O   0  0  0  0  0  0  0  0  0  0  0  0
  -13.4874   -3.5809   14.4805 C   0  0  0  0  0  0  0  0  0  0  0  0
  -12.8531   -2.3306   14.7758 O   0  0  0  0  0  0  0  0  0  0  0  0
  -12.3014   -1.6814   13.6227 C   0  0  0  0  0  0  0  0  0  0  0  0
  -11.2260   -2.5804   12.9559 C   0  0  0  0  0  0  0  0  0  0  0  0
  -10.8108   -2.0679   11.6683 O   0  0  0  0  0  0  0  0  0  0  0  0
  -11.7159   -4.0255   12.7848 C   0  0  0  0  0  0  0  0  0  0  0  0
  -10.6171   -4.8665   12.4062 O   0  0  0  0  0  0  0  0  0  0  0  0
  -12.4145   -4.5743   14.0319 C   0  0  0  0  0  0  0  0  0  0  0  0
  -12.9781   -5.8618   13.7746 O   0  0  0  0  0  0  0  0  0  0  0  0
  -11.2773   -2.5805   10.9800 H   0  0  0  0  0  0  0  0  0  0  0  0
   -9.9847   -4.8956   13.1492 H   0  0  0  0  0  0  0  0  0  0  0  0
  -13.3425   -5.8755   12.8716 H   0  0  0  0  0  0  0  0  0  0  0  0
  -13.4129   -3.8715   16.8938 O   0  0  0  0  0  0  0  0  0  0  0  0
  -14.2136   -4.0985   15.7320 C   0  0  0  0  0  0  0  0  0  0  0  0
  -13.8709   -4.3017   17.6347 H   0  0  0  0  0  0  0  0  0  0  0  0
  -12.2498    0.7889   13.6225 C   0  0  0  0  0  0  0  0  0  0  0  0
  -12.3341    0.8164   12.0770 C   0  0  0  0  0  0  0  0  0  0  0  0
  -11.0273    0.9330   11.4934 O   0  0  0  0  0  0  0  0  0  0  0  0
  -13.1982    1.9777   11.5695 C   0  0  0  0  0  0  0  0  0  0  0  0
  -13.3805    1.8875   10.1513 O   0  0  0  0  0  0  0  0  0  0  0  0
  -14.5446    2.0181   12.3063 C   0  0  0  0  0  0  0  0  0  0  0  0
  -15.4050    0.9350   11.9651 O   0  0  0  0  0  0  0  0  0  0  0  0
  -14.3484    2.1001   13.7110 O   0  0  0  0  0  0  0  0  0  0  0  0
  -13.6491    0.9823   14.2607 C   0  0  0  0  0  0  0  0  0  0  0  0
  -10.5664    1.6603   11.9571 H   0  0  0  0  0  0  0  0  0  0  0  0
  -13.8420    1.0540    9.9548 H   0  0  0  0  0  0  0  0  0  0  0  0
  -14.9077    0.1096   11.9594 H   0  0  0  0  0  0  0  0  0  0  0  0
  -13.5322    1.2011   15.7841 C   0  0  0  0  0  0  0  0  0  0  0  0
  -12.1944    1.1525   16.2680 O   0  0  0  0  0  0  0  0  0  0  0  0
  -11.5913    1.3613   15.5254 H   0  0  0  0  0  0  0  0  0  0  0  0
 14 15  1  0
 14 16  1  0
  2  3  1  0
  2  9  1  0
  2 15  1  0
  3  4  1  0
  4  5  1  0
  4  1  1  0
  1 17  1  0
 17 18  1  0
 17 25  1  0
 18 19  1  0
 18 20  1  0
 19 26  1  0
 20 21  1  0
 20 22  1  0
 21 27  1  0
 22 23  1  0
 22 24  1  0
 23 28  1  0
 24 25  1  0
 25 29  1  0
 29 30  1  0
 30 31  1  0
  5  6  1  0
  5  7  1  0
  6 11  1  0
  7  8  1  0
  7  9  1  0
  8 12  1  0
  9 10  1  0
 10 13  1  0
M  END
> <minimizedAffinity>
-5.67681

> <CNNscore>
0.4298039079

> <CNNaffinity>
2.8585550785

> <CNN_VS>
1.2286181450

> <CNNaffinity_variance>
0.4970034063

$$$$



 31 32  0  0  0  0  0  0  0  0999 V2000
  -11.5472   -0.1306   11.2806 O   0  0  0  0  0  0  0  0  0  0  0  0
  -12.0696    3.2795   12.2825 C   0  0  0  0  0  0  0  0  0  0  0  0
  -11.8886    2.1044   11.4831 O   0  0  0  0  0  0  0  0  0  0  0  0
  -11.6771    0.9140   12.2538 C   0  0  0  0  0  0  0  0  0  0  0  0
  -10.4060    1.0552   13.1333 C   0  0  0  0  0  0  0  0  0  0  0  0
  -10.2842   -0.0229   14.0904 O   0  0  0  0  0  0  0  0  0  0  0  0
  -10.3759    2.3951   13.8826 C   0  0  0  0  0  0  0  0  0  0  0  0
   -9.0830    2.5896   14.4728 O   0  0  0  0  0  0  0  0  0  0  0  0
  -10.7531    3.5864   12.9977 C   0  0  0  0  0  0  0  0  0  0  0  0
  -10.8525    4.7836   13.7711 O   0  0  0  0  0  0  0  0  0  0  0  0
  -10.5909    0.3116   14.9554 H   0  0  0  0  0  0  0  0  0  0  0  0
   -8.4297    2.6824   13.7536 H   0  0  0  0  0  0  0  0  0  0  0  0
  -11.2513    4.5733   14.6343 H   0  0  0  0  0  0  0  0  0  0  0  0
  -11.5032    4.6629   10.3644 O   0  0  0  0  0  0  0  0  0  0  0  0
  -12.4832    4.4553   11.3836 C   0  0  0  0  0  0  0  0  0  0  0  0
  -11.7622    5.4706    9.8909 H   0  0  0  0  0  0  0  0  0  0  0  0
  -12.2450   -1.3670   11.4925 C   0  0  0  0  0  0  0  0  0  0  0  0
  -11.5162   -2.2968   12.4927 C   0  0  0  0  0  0  0  0  0  0  0  0
  -10.3493   -2.8814   11.8940 O   0  0  0  0  0  0  0  0  0  0  0  0
  -12.4242   -3.4276   12.9921 C   0  0  0  0  0  0  0  0  0  0  0  0
  -11.7734   -4.1772   14.0253 O   0  0  0  0  0  0  0  0  0  0  0  0
  -13.7745   -2.8729   13.4678 C   0  0  0  0  0  0  0  0  0  0  0  0
  -13.6791   -2.1164   14.6713 O   0  0  0  0  0  0  0  0  0  0  0  0
  -14.4046   -2.1263   12.4362 O   0  0  0  0  0  0  0  0  0  0  0  0
  -13.6555   -0.9868   12.0108 C   0  0  0  0  0  0  0  0  0  0  0  0
  -10.6174   -3.2372   11.0234 H   0  0  0  0  0  0  0  0  0  0  0  0
  -11.5929   -3.5781   14.7701 H   0  0  0  0  0  0  0  0  0  0  0  0
  -12.9259   -1.5171   14.6239 H   0  0  0  0  0  0  0  0  0  0  0  0
  -14.4693   -0.2701   10.9124 C   0  0  0  0  0  0  0  0  0  0  0  0
  -13.6933    0.1084    9.7806 O   0  0  0  0  0  0  0  0  0  0  0  0
  -12.9033   -0.4689    9.7428 H   0  0  0  0  0  0  0  0  0  0  0  0
 14 15  1  0
 14 16  1  0
  2  3  1  0
  2  9  1  0
  2 15  1  0
  3  4  1  0
  4  5  1  0
  4  1  1  0
  1 17  1  0
 17 18  1  0
 17 25  1  0
 18 19  1  0
 18 20  1  0
 19 26  1  0
 20 21  1  0
 20 22  1  0
 21 27  1  0
 22 23  1  0
 22 24  1  0
 23 28  1  0
 24 25  1  0
 25 29  1  0
 29 30  1  0
 30 31  1  0
  5  6  1  0
  5  7  1  0
  6 11  1  0
  7  8  1  0
  7  9  1  0
  8 12  1  0
  9 10  1  0
 10 13  1  0
M  END
> <minimizedAffinity>
-6.88643

> <CNNscore>
0.4226495028

> <CNNaffinity>
2.6968250275

> <CNN_VS>
1.1398117542

> <CNNaffinity_variance>
0.8292462230

$$$$



 31 32  0  0  0  0  0  0  0  0999 V2000
  -13.6201    0.8419   12.0238 O   0  0  0  0  0  0  0  0  0  0  0  0
  -11.9164   -2.1911   12.9207 C   0  0  0  0  0  0  0  0  0  0  0  0
  -12.6138   -1.1874   12.1731 O   0  0  0  0  0  0  0  0  0  0  0  0
  -12.9657   -0.0350   12.9502 C   0  0  0  0  0  0  0  0  0  0  0  0
  -13.8922   -0.4372   14.1288 C   0  0  0  0  0  0  0  0  0  0  0  0
  -14.0839    0.6489   15.0651 O   0  0  0  0  0  0  0  0  0  0  0  0
  -13.3553   -1.6608   14.8852 C   0  0  0  0  0  0  0  0  0  0  0  0
  -14.3563   -2.1462   15.7909 O   0  0  0  0  0  0  0  0  0  0  0  0
  -12.8770   -2.7793   13.9553 C   0  0  0  0  0  0  0  0  0  0  0  0
  -12.2552   -3.8287   14.6992 O   0  0  0  0  0  0  0  0  0  0  0  0
  -13.4953    0.4906   15.8284 H   0  0  0  0  0  0  0  0  0  0  0  0
  -15.1086   -2.4786   15.2652 H   0  0  0  0  0  0  0  0  0  0  0  0
  -11.7380   -3.4402   15.4271 H   0  0  0  0  0  0  0  0  0  0  0  0
  -10.1189   -3.7359   12.3766 O   0  0  0  0  0  0  0  0  0  0  0  0
  -11.4121   -3.2860   11.9676 C   0  0  0  0  0  0  0  0  0  0  0  0
   -9.8091   -4.3501   11.6907 H   0  0  0  0  0  0  0  0  0  0  0  0
  -12.8188    1.6595   11.1579 C   0  0  0  0  0  0  0  0  0  0  0  0
  -13.6259    2.2337    9.9682 C   0  0  0  0  0  0  0  0  0  0  0  0
  -13.9062    1.2133    8.9976 O   0  0  0  0  0  0  0  0  0  0  0  0
  -12.8821    3.3784    9.2688 C   0  0  0  0  0  0  0  0  0  0  0  0
  -13.7147    3.9863    8.2738 O   0  0  0  0  0  0  0  0  0  0  0  0
  -12.3852    4.4107   10.2909 C   0  0  0  0  0  0  0  0  0  0  0  0
  -13.4380    5.1620   10.8885 O   0  0  0  0  0  0  0  0  0  0  0  0
  -11.5675    3.7929   11.2748 O   0  0  0  0  0  0  0  0  0  0  0  0
  -12.2440    2.7957   12.0419 C   0  0  0  0  0  0  0  0  0  0  0  0
  -13.0669    0.7437    8.8198 H   0  0  0  0  0  0  0  0  0  0  0  0
  -14.4989    4.3555    8.7154 H   0  0  0  0  0  0  0  0  0  0  0  0
  -14.1588    4.5742   11.1408 H   0  0  0  0  0  0  0  0  0  0  0  0
  -11.2435    2.2349   13.0747 C   0  0  0  0  0  0  0  0  0  0  0  0
  -10.3585    3.2158   13.6048 O   0  0  0  0  0  0  0  0  0  0  0  0
  -10.7795    4.0945   13.5067 H   0  0  0  0  0  0  0  0  0  0  0  0
 14 15  1  0
 14 16  1  0
  2  3  1  0
  2  9  1  0
  2 15  1  0
  3  4  1  0
  4  5  1  0
  4  1  1  0
  1 17  1  0
 17 18  1  0
 17 25  1  0
 18 19  1  0
 18 20  1  0
 19 26  1  0
 20 21  1  0
 20 22  1  0
 21 27  1  0
 22 23  1  0
 22 24  1  0
 23 28  1  0
 24 25  1  0
 25 29  1  0
 29 30  1  0
 30 31  1  0
  5  6  1  0
  5  7  1  0
  6 11  1  0
  7  8  1  0
  7  9  1  0
  8 12  1  0
  9 10  1  0
 10 13  1  0
M  END
> <minimizedAffinity>
-5.19910

> <CNNscore>
0.3975767791

> <CNNaffinity>
2.5605411530

> <CNN_VS>
1.0180116892

> <CNNaffinity_variance>
0.7278479934

$$$$



 31 32  0  0  0  0  0  0  0  0999 V2000
  -13.5931    2.4455   12.1569 O   0  0  0  0  0  0  0  0  0  0  0  0
  -14.5360   -0.9712   11.5715 C   0  0  0  0  0  0  0  0  0  0  0  0
  -14.5300    0.3810   12.0451 O   0  0  0  0  0  0  0  0  0  0  0  0
  -13.3952    1.1378   11.6036 C   0  0  0  0  0  0  0  0  0  0  0  0
  -12.0789    0.4845   12.1036 C   0  0  0  0  0  0  0  0  0  0  0  0
  -10.9101    1.0804   11.4938 O   0  0  0  0  0  0  0  0  0  0  0  0
  -12.0598   -1.0293   11.8477 C   0  0  0  0  0  0  0  0  0  0  0  0
  -10.9551   -1.6231   12.5443 O   0  0  0  0  0  0  0  0  0  0  0  0
  -13.3735   -1.7189   12.2262 C   0  0  0  0  0  0  0  0  0  0  0  0
  -13.3580   -3.0931   11.8355 O   0  0  0  0  0  0  0  0  0  0  0  0
  -10.6143    0.4873   10.7762 H   0  0  0  0  0  0  0  0  0  0  0  0
  -11.1109   -1.5262   13.5029 H   0  0  0  0  0  0  0  0  0  0  0  0
  -12.9041   -3.1756   10.9779 H   0  0  0  0  0  0  0  0  0  0  0  0
  -16.7200   -1.6863   10.7761 O   0  0  0  0  0  0  0  0  0  0  0  0
  -15.8750   -1.6359   11.9276 C   0  0  0  0  0  0  0  0  0  0  0  0
  -17.5801   -2.0223   11.0778 H   0  0  0  0  0  0  0  0  0  0  0  0
  -13.7843    3.5543   11.2656 C   0  0  0  0  0  0  0  0  0  0  0  0
  -13.0881    3.3450    9.8989 C   0  0  0  0  0  0  0  0  0  0  0  0
  -11.6648    3.4908   10.0198 O   0  0  0  0  0  0  0  0  0  0  0  0
  -13.5899    4.3359    8.8410 C   0  0  0  0  0  0  0  0  0  0  0  0
  -13.0416    4.0206    7.5554 O   0  0  0  0  0  0  0  0  0  0  0  0
  -15.1245    4.3638    8.8043 C   0  0  0  0  0  0  0  0  0  0  0  0
  -15.6963    3.1693    8.2790 O   0  0  0  0  0  0  0  0  0  0  0  0
  -15.6540    4.6703   10.0866 O   0  0  0  0  0  0  0  0  0  0  0  0
  -15.3164    3.7136   11.0923 C   0  0  0  0  0  0  0  0  0  0  0  0
  -11.4990    4.3172   10.5158 H   0  0  0  0  0  0  0  0  0  0  0  0
  -13.3405    3.1292    7.3059 H   0  0  0  0  0  0  0  0  0  0  0  0
  -15.2586    2.4001    8.6606 H   0  0  0  0  0  0  0  0  0  0  0  0
  -15.9744    4.1652   12.4135 C   0  0  0  0  0  0  0  0  0  0  0  0
  -15.0707    4.7911   13.3178 O   0  0  0  0  0  0  0  0  0  0  0  0
  -14.3177    5.1470   12.8028 H   0  0  0  0  0  0  0  0  0  0  0  0
 14 15  1  0
 14 16  1  0
  2  3  1  0
  2  9  1  0
  2 15  1  0
  3  4  1  0
  4  5  1  0
  4  1  1  0
  1 17  1  0
 17 18  1  0
 17 25  1  0
 18 19  1  0
 18 20  1  0
 19 26  1  0
 20 21  1  0
 20 22  1  0
 21 27  1  0
 22 23  1  0
 22 24  1  0
 23 28  1  0
 24 25  1  0
 25 29  1  0
 29 30  1  0
 30 31  1  0
  5  6  1  0
  5  7  1  0
  6 11  1  0
  7  8  1  0
  7  9  1  0
  8 12  1  0
  9 10  1  0
 10 13  1  0
M  END
> <minimizedAffinity>
-5.51181

> <CNNscore>
0.3617339134

> <CNNaffinity>
2.9635610580

> <CNN_VS>
1.0720205307

> <CNNaffinity_variance>
0.4320650101

$$$$
