


 31 32  0  0  0  0  0  0  0  0999 V2000
   -9.4009   -7.0834  -14.9320 O   0  0  0  0  0  0  0  0  0  0  0  0
   -5.9162   -6.7296  -14.1338 C   0  0  0  0  0  0  0  0  0  0  0  0
   -7.1342   -7.0158  -14.8319 O   0  0  0  0  0  0  0  0  0  0  0  0
   -8.3127   -6.7631  -14.0554 C   0  0  0  0  0  0  0  0  0  0  0  0
   -8.3168   -7.6391  -12.7740 C   0  0  0  0  0  0  0  0  0  0  0  0
   -9.3647   -7.2528  -11.8543 O   0  0  0  0  0  0  0  0  0  0  0  0
   -6.9670   -7.5891  -12.0438 C   0  0  0  0  0  0  0  0  0  0  0  0
   -6.9322   -8.5968  -11.0234 O   0  0  0  0  0  0  0  0  0  0  0  0
   -5.7688   -7.7302  -12.9867 C   0  0  0  0  0  0  0  0  0  0  0  0
   -4.5412   -7.5318  -12.2829 O   0  0  0  0  0  0  0  0  0  0  0  0
   -8.9586   -6.7068  -11.1535 H   0  0  0  0  0  0  0  0  0  0  0  0
   -6.9580   -9.4711  -11.4566 H   0  0  0  0  0  0  0  0  0  0  0  0
   -4.6616   -6.8236  -11.6255 H   0  0  0  0  0  0  0  0  0  0  0  0
   -3.5102   -6.5286  -14.4245 O   0  0  0  0  0  0  0  0  0  0  0  0
   -4.7288   -6.8399  -15.1031 C   0  0  0  0  0  0  0  0  0  0  0  0
   -2.8118   -6.5177  -15.0997 H   0  0  0  0  0  0  0  0  0  0  0  0
   -9.1179   -7.7301  -16.1818 C   0  0  0  0  0  0  0  0  0  0  0  0
   -9.5504   -9.2164  -16.1931 C   0  0  0  0  0  0  0  0  0  0  0  0
   -8.6584  -10.0169  -15.4022 O   0  0  0  0  0  0  0  0  0  0  0  0
   -9.5894   -9.7924  -17.6141 C   0  0  0  0  0  0  0  0  0  0  0  0
  -10.1361  -11.1168  -17.6059 O   0  0  0  0  0  0  0  0  0  0  0  0
  -10.3741   -8.8680  -18.5559 C   0  0  0  0  0  0  0  0  0  0  0  0
  -11.7728   -8.8465  -18.2862 O   0  0  0  0  0  0  0  0  0  0  0  0
   -9.8256   -7.5574  -18.5483 O   0  0  0  0  0  0  0  0  0  0  0  0
   -9.8706   -6.9221  -17.2696 C   0  0  0  0  0  0  0  0  0  0  0  0
   -7.7467   -9.7854  -15.6696 H   0  0  0  0  0  0  0  0  0  0  0  0
  -11.0478  -11.0691  -17.2699 H   0  0  0  0  0  0  0  0  0  0  0  0
  -11.9234   -8.7723  -17.3372 H   0  0  0  0  0  0  0  0  0  0  0  0
   -9.2655   -5.5104  -17.4222 C   0  0  0  0  0  0  0  0  0  0  0  0
   -8.8329   -5.2134  -18.7454 O   0  0  0  0  0  0  0  0  0  0  0  0
   -9.3260   -5.7882  -19.3662 H   0  0  0  0  0  0  0  0  0  0  0  0
 14 15  1  0
 14 16  1  0
  2  3  1  0
  2  9  1  0
  2 15  1  0
  3  4  1  0
  4  5  1  0
  4  1  1  0
  1 17  1  0
 17 18  1  0
 17 25  1  0
 18 19  1  0
 18 20  1  0
 19 26  1  0
 20 21  1  0
 20 22  1  0
 21 27  1  0
 22 23  1  0
 22 24  1  0
 23 28  1  0
 24 25  1  0
 25 29  1  0
 29 30  1  0
 30 31  1  0
  5  6  1  0
  5  7  1  0
  6 11  1  0
  7  8  1  0
  7  9  1  0
  8 12  1  0
  9 10  1  0
 10 13  1  0
M  END
> <minimizedAffinity>
-4.36365

> <CNNscore>
0.9565719962

> <CNNaffinity>
3.2539100647

> <CNN_VS>
3.1125991344

> <CNNaffinity_variance>
0.3562641144

$$$$



 31 32  0  0  0  0  0  0  0  0999 V2000
   -9.5257   -6.7189  -14.6552 O   0  0  0  0  0  0  0  0  0  0  0  0
   -5.9510   -6.4213  -14.8522 C   0  0  0  0  0  0  0  0  0  0  0  0
   -7.3198   -6.6776  -15.1890 O   0  0  0  0  0  0  0  0  0  0  0  0
   -8.2313   -6.4315  -14.1101 C   0  0  0  0  0  0  0  0  0  0  0  0
   -7.8935   -7.3382  -12.8964 C   0  0  0  0  0  0  0  0  0  0  0  0
   -8.6375   -6.9634  -11.7136 O   0  0  0  0  0  0  0  0  0  0  0  0
   -6.3932   -7.3202  -12.5702 C   0  0  0  0  0  0  0  0  0  0  0  0
   -6.0929   -8.3527  -11.6206 O   0  0  0  0  0  0  0  0  0  0  0  0
   -5.5072   -7.4510  -13.8121 C   0  0  0  0  0  0  0  0  0  0  0  0
   -4.1292   -7.2826  -13.4742 O   0  0  0  0  0  0  0  0  0  0  0  0
   -8.0434   -6.4388  -11.1426 H   0  0  0  0  0  0  0  0  0  0  0  0
   -6.2530   -9.2159  -12.0471 H   0  0  0  0  0  0  0  0  0  0  0  0
   -4.0499   -6.5893  -12.7949 H   0  0  0  0  0  0  0  0  0  0  0  0
   -4.4336   -5.2718  -16.3654 O   0  0  0  0  0  0  0  0  0  0  0  0
   -5.0821   -6.5205  -16.1158 C   0  0  0  0  0  0  0  0  0  0  0  0
   -3.9808   -5.3604  -17.2203 H   0  0  0  0  0  0  0  0  0  0  0  0
  -10.3660   -5.6278  -15.0599 C   0  0  0  0  0  0  0  0  0  0  0  0
  -10.3800   -5.4260  -16.5946 C   0  0  0  0  0  0  0  0  0  0  0  0
   -9.1475   -4.8450  -17.0475 O   0  0  0  0  0  0  0  0  0  0  0  0
  -11.5364   -4.5246  -17.0449 C   0  0  0  0  0  0  0  0  0  0  0  0
  -11.6131   -4.4803  -18.4749 O   0  0  0  0  0  0  0  0  0  0  0  0
  -12.8627   -4.9894  -16.4266 C   0  0  0  0  0  0  0  0  0  0  0  0
  -13.3267   -6.2278  -16.9566 O   0  0  0  0  0  0  0  0  0  0  0  0
  -12.7697   -5.0355  -15.0097 O   0  0  0  0  0  0  0  0  0  0  0  0
  -11.7852   -5.9512  -14.5271 C   0  0  0  0  0  0  0  0  0  0  0  0
   -8.9581   -4.0792  -16.4694 H   0  0  0  0  0  0  0  0  0  0  0  0
  -11.7829   -5.3813  -18.8000 H   0  0  0  0  0  0  0  0  0  0  0  0
  -12.5980   -6.8562  -17.0094 H   0  0  0  0  0  0  0  0  0  0  0  0
  -11.8157   -5.9076  -12.9845 C   0  0  0  0  0  0  0  0  0  0  0  0
  -11.7698   -4.5897  -12.4485 O   0  0  0  0  0  0  0  0  0  0  0  0
  -12.0987   -3.9689  -13.1307 H   0  0  0  0  0  0  0  0  0  0  0  0
 14 15  1  0
 14 16  1  0
  2  3  1  0
  2  9  1  0
  2 15  1  0
  3  4  1  0
  4  5  1  0
  4  1  1  0
  1 17  1  0
 17 18  1  0
 17 25  1  0
 18 19  1  0
 18 20  1  0
 19 26  1  0
 20 21  1  0
 20 22  1  0
 21 27  1  0
 22 23  1  0
 22 24  1  0
 23 28  1  0
 24 25  1  0
 25 29  1  0
 29 30  1  0
 30 31  1  0
  5  6  1  0
  5  7  1  0
  6 11  1  0
  7  8  1  0
  7  9  1  0
  8 12  1  0
  9 10  1  0
 10 13  1  0
M  END
> <minimizedAffinity>
-4.95462

> <CNNscore>
0.9559649229

> <CNNaffinity>
2.9570178986

> <CNN_VS>
2.8268053532

> <CNNaffinity_variance>
0.6410839558

$$$$



 31 32  0  0  0  0  0  0  0  0999 V2000
   -7.0535   -5.6259  -15.9081 O   0  0  0  0  0  0  0  0  0  0  0  0
   -8.1265   -7.6135  -13.1146 C   0  0  0  0  0  0  0  0  0  0  0  0
   -8.0425   -6.5763  -14.0995 O   0  0  0  0  0  0  0  0  0  0  0  0
   -6.9418   -6.7334  -15.0047 C   0  0  0  0  0  0  0  0  0  0  0  0
   -5.5964   -6.7232  -14.2306 C   0  0  0  0  0  0  0  0  0  0  0  0
   -4.4826   -7.1061  -15.0707 O   0  0  0  0  0  0  0  0  0  0  0  0
   -5.6370   -7.6445  -13.0030 C   0  0  0  0  0  0  0  0  0  0  0  0
   -4.4808   -7.4121  -12.1862 O   0  0  0  0  0  0  0  0  0  0  0  0
   -6.9205   -7.4943  -12.1817 C   0  0  0  0  0  0  0  0  0  0  0  0
   -6.9752   -8.4705  -11.1397 O   0  0  0  0  0  0  0  0  0  0  0  0
   -4.2744   -8.0412  -14.8801 H   0  0  0  0  0  0  0  0  0  0  0  0
   -4.5363   -6.5054  -11.8291 H   0  0  0  0  0  0  0  0  0  0  0  0
   -6.6126   -9.3113  -11.4713 H   0  0  0  0  0  0  0  0  0  0  0  0
  -10.0420   -6.2050  -12.6041 O   0  0  0  0  0  0  0  0  0  0  0  0
   -9.4369   -7.4691  -12.3249 C   0  0  0  0  0  0  0  0  0  0  0  0
  -10.8069   -6.1264  -12.0103 H   0  0  0  0  0  0  0  0  0  0  0  0
   -7.4270   -5.8772  -17.2711 C   0  0  0  0  0  0  0  0  0  0  0  0
   -8.9420   -5.6773  -17.5185 C   0  0  0  0  0  0  0  0  0  0  0  0
   -9.7017   -6.7557  -16.9511 O   0  0  0  0  0  0  0  0  0  0  0  0
   -9.2725   -5.5840  -19.0134 C   0  0  0  0  0  0  0  0  0  0  0  0
  -10.6524   -5.2492  -19.2042 O   0  0  0  0  0  0  0  0  0  0  0  0
   -8.3492   -4.5772  -19.7142 C   0  0  0  0  0  0  0  0  0  0  0  0
   -8.6075   -3.2257  -19.3446 O   0  0  0  0  0  0  0  0  0  0  0  0
   -6.9849   -4.9175  -19.5104 O   0  0  0  0  0  0  0  0  0  0  0  0
   -6.5874   -4.9048  -18.1384 C   0  0  0  0  0  0  0  0  0  0  0  0
   -9.2796   -7.5900  -17.2377 H   0  0  0  0  0  0  0  0  0  0  0  0
  -10.8146   -4.3793  -18.8001 H   0  0  0  0  0  0  0  0  0  0  0  0
   -8.7182   -3.1617  -18.3894 H   0  0  0  0  0  0  0  0  0  0  0  0
   -5.0888   -5.2694  -18.0776 C   0  0  0  0  0  0  0  0  0  0  0  0
   -4.3675   -4.5595  -17.0766 O   0  0  0  0  0  0  0  0  0  0  0  0
   -5.0016   -4.2671  -16.3901 H   0  0  0  0  0  0  0  0  0  0  0  0
 14 15  1  0
 14 16  1  0
  2  3  1  0
  2  9  1  0
  2 15  1  0
  3  4  1  0
  4  5  1  0
  4  1  1  0
  1 17  1  0
 17 18  1  0
 17 25  1  0
 18 19  1  0
 18 20  1  0
 19 26  1  0
 20 21  1  0
 20 22  1  0
 21 27  1  0
 22 23  1  0
 22 24  1  0
 23 28  1  0
 24 25  1  0
 25 29  1  0
 29 30  1  0
 30 31  1  0
  5  6  1  0
  5  7  1  0
  6 11  1  0
  7  8  1  0
  7  9  1  0
  8 12  1  0
  9 10  1  0
 10 13  1  0
M  END
> <minimizedAffinity>
-4.72337

> <CNNscore>
0.9512729645

> <CNNaffinity>
2.8923213482

> <CNN_VS>
2.7513871193

> <CNNaffinity_variance>
0.6316986084

$$$$



 31 32  0  0  0  0  0  0  0  0999 V2000
   -7.8072   -5.4926  -16.3299 O   0  0  0  0  0  0  0  0  0  0  0  0
   -7.5280   -7.4223  -13.3126 C   0  0  0  0  0  0  0  0  0  0  0  0
   -7.9244   -6.4280  -14.2650 O   0  0  0  0  0  0  0  0  0  0  0  0
   -7.2575   -6.5467  -15.5286 C   0  0  0  0  0  0  0  0  0  0  0  0
   -5.7225   -6.4041  -15.3480 C   0  0  0  0  0  0  0  0  0  0  0  0
   -4.9990   -6.7438  -16.5539 O   0  0  0  0  0  0  0  0  0  0  0  0
   -5.2009   -7.2688  -14.1913 C   0  0  0  0  0  0  0  0  0  0  0  0
   -3.8411   -6.9165  -13.8999 O   0  0  0  0  0  0  0  0  0  0  0  0
   -6.0676   -7.1740  -12.9326 C   0  0  0  0  0  0  0  0  0  0  0  0
   -5.6271   -8.1027  -11.9402 O   0  0  0  0  0  0  0  0  0  0  0  0
   -4.6547   -7.6518  -16.4480 H   0  0  0  0  0  0  0  0  0  0  0  0
   -3.8285   -6.0008  -13.5624 H   0  0  0  0  0  0  0  0  0  0  0  0
   -5.3541   -8.9296  -12.3763 H   0  0  0  0  0  0  0  0  0  0  0  0
   -7.7453   -6.6708  -11.0101 O   0  0  0  0  0  0  0  0  0  0  0  0
   -8.4312   -7.3367  -12.0723 C   0  0  0  0  0  0  0  0  0  0  0  0
   -8.3190   -6.7312  -10.2285 H   0  0  0  0  0  0  0  0  0  0  0  0
   -9.0587   -5.7098  -16.9984 C   0  0  0  0  0  0  0  0  0  0  0  0
  -10.2204   -4.9110  -16.3588 C   0  0  0  0  0  0  0  0  0  0  0  0
  -10.6142   -5.4915  -15.1060 O   0  0  0  0  0  0  0  0  0  0  0  0
  -11.4494   -4.8519  -17.2747 C   0  0  0  0  0  0  0  0  0  0  0  0
  -12.4468   -3.9834  -16.7237 O   0  0  0  0  0  0  0  0  0  0  0  0
  -11.0519   -4.4202  -18.6935 C   0  0  0  0  0  0  0  0  0  0  0  0
  -10.6489   -3.0561  -18.7739 O   0  0  0  0  0  0  0  0  0  0  0  0
  -10.0577   -5.2855  -19.2239 O   0  0  0  0  0  0  0  0  0  0  0  0
   -8.8413   -5.2917  -18.4751 C   0  0  0  0  0  0  0  0  0  0  0  0
  -10.7227   -6.4523  -15.2529 H   0  0  0  0  0  0  0  0  0  0  0  0
  -12.0706   -3.0887  -16.6582 H   0  0  0  0  0  0  0  0  0  0  0  0
  -10.0547   -2.8455  -18.0450 H   0  0  0  0  0  0  0  0  0  0  0  0
   -7.8587   -6.2520  -19.1785 C   0  0  0  0  0  0  0  0  0  0  0  0
   -6.4893   -5.9399  -18.9470 O   0  0  0  0  0  0  0  0  0  0  0  0
   -6.4271   -5.4297  -18.1135 H   0  0  0  0  0  0  0  0  0  0  0  0
 14 15  1  0
 14 16  1  0
  2  3  1  0
  2  9  1  0
  2 15  1  0
  3  4  1  0
  4  5  1  0
  4  1  1  0
  1 17  1  0
 17 18  1  0
 17 25  1  0
 18 19  1  0
 18 20  1  0
 19 26  1  0
 20 21  1  0
 20 22  1  0
 21 27  1  0
 22 23  1  0
 22 24  1  0
 23 28  1  0
 24 25  1  0
 25 29  1  0
 29 30  1  0
 30 31  1  0
  5  6  1  0
  5  7  1  0
  6 11  1  0
  7  8  1  0
  7  9  1  0
  8 12  1  0
  9 10  1  0
 10 13  1  0
M  END
> <minimizedAffinity>
-4.57670

> <CNNscore>
0.9480441809

> <CNNaffinity>
2.9046332836

> <CNN_VS>
2.7537207603

> <CNNaffinity_variance>
0.6595226526

$$$$



 31 32  0  0  0  0  0  0  0  0999 V2000
   -7.2592   -5.6021  -15.9721 O   0  0  0  0  0  0  0  0  0  0  0  0
   -8.1219   -7.6048  -13.1171 C   0  0  0  0  0  0  0  0  0  0  0  0
   -8.1130   -6.5639  -14.1016 O   0  0  0  0  0  0  0  0  0  0  0  0
   -7.0783   -6.7121  -15.0830 C   0  0  0  0  0  0  0  0  0  0  0  0
   -5.6816   -6.6974  -14.4060 C   0  0  0  0  0  0  0  0  0  0  0  0
   -4.6281   -7.0715  -15.3242 O   0  0  0  0  0  0  0  0  0  0  0  0
   -5.6306   -7.6231  -13.1820 C   0  0  0  0  0  0  0  0  0  0  0  0
   -4.4207   -7.3874  -12.4483 O   0  0  0  0  0  0  0  0  0  0  0  0
   -6.8535   -7.4824  -12.2714 C   0  0  0  0  0  0  0  0  0  0  0  0
   -6.8294   -8.4624  -11.2319 O   0  0  0  0  0  0  0  0  0  0  0  0
   -4.4022   -8.0062  -15.1524 H   0  0  0  0  0  0  0  0  0  0  0  0
   -4.4553   -6.4822  -12.0848 H   0  0  0  0  0  0  0  0  0  0  0  0
   -6.4870   -9.3001  -11.5915 H   0  0  0  0  0  0  0  0  0  0  0  0
   -9.9584   -6.1774  -12.4077 O   0  0  0  0  0  0  0  0  0  0  0  0
   -9.3738   -7.4700  -12.2361 C   0  0  0  0  0  0  0  0  0  0  0  0
  -10.6808   -6.1117  -11.7615 H   0  0  0  0  0  0  0  0  0  0  0  0
   -7.6499   -5.8570  -17.3295 C   0  0  0  0  0  0  0  0  0  0  0  0
   -6.9380   -7.0932  -17.9306 C   0  0  0  0  0  0  0  0  0  0  0  0
   -5.5619   -6.8030  -18.2203 O   0  0  0  0  0  0  0  0  0  0  0  0
   -7.6148   -7.5752  -19.2200 C   0  0  0  0  0  0  0  0  0  0  0  0
   -7.0291   -8.8040  -19.6672 O   0  0  0  0  0  0  0  0  0  0  0  0
   -9.1305   -7.7168  -19.0202 C   0  0  0  0  0  0  0  0  0  0  0  0
   -9.4862   -8.7988  -18.1645 O   0  0  0  0  0  0  0  0  0  0  0  0
   -9.6961   -6.4937  -18.5701 O   0  0  0  0  0  0  0  0  0  0  0  0
   -9.1874   -6.0538  -17.3098 C   0  0  0  0  0  0  0  0  0  0  0  0
   -5.5409   -5.9574  -18.7112 H   0  0  0  0  0  0  0  0  0  0  0  0
   -7.1677   -9.4770  -18.9787 H   0  0  0  0  0  0  0  0  0  0  0  0
   -8.9168   -8.8038  -17.3870 H   0  0  0  0  0  0  0  0  0  0  0  0
   -9.9048   -4.7368  -16.9447 C   0  0  0  0  0  0  0  0  0  0  0  0
  -10.6320   -4.8013  -15.7227 O   0  0  0  0  0  0  0  0  0  0  0  0
  -10.2471   -5.5148  -15.1734 H   0  0  0  0  0  0  0  0  0  0  0  0
 14 15  1  0
 14 16  1  0
  2  3  1  0
  2  9  1  0
  2 15  1  0
  3  4  1  0
  4  5  1  0
  4  1  1  0
  1 17  1  0
 17 18  1  0
 17 25  1  0
 18 19  1  0
 18 20  1  0
 19 26  1  0
 20 21  1  0
 20 22  1  0
 21 27  1  0
 22 23  1  0
 22 24  1  0
 23 28  1  0
 24 25  1  0
 25 29  1  0
 29 30  1  0
 30 31  1  0
  5  6  1  0
  5  7  1  0
  6 11  1  0
  7  8  1  0
  7  9  1  0
  8 12  1  0
  9 10  1  0
 10 13  1  0
M  END
> <minimizedAffinity>
-4.54789

> <CNNscore>
0.9290679693

> <CNNaffinity>
2.9455583096

> <CNN_VS>
2.7366237640

> <CNNaffinity_variance>
0.6006899476

$$$$



 31 32  0  0  0  0  0  0  0  0999 V2000
   -6.1349   -8.2211  -15.1998 O   0  0  0  0  0  0  0  0  0  0  0  0
   -6.1755   -5.2091  -17.1573 C   0  0  0  0  0  0  0  0  0  0  0  0
   -6.4239   -6.5450  -16.7031 O   0  0  0  0  0  0  0  0  0  0  0  0
   -5.7366   -6.8746  -15.4888 C   0  0  0  0  0  0  0  0  0  0  0  0
   -4.2017   -6.7475  -15.6819 C   0  0  0  0  0  0  0  0  0  0  0  0
   -3.4858   -6.8467  -14.4286 O   0  0  0  0  0  0  0  0  0  0  0  0
   -3.8203   -5.4305  -16.3730 C   0  0  0  0  0  0  0  0  0  0  0  0
   -2.4384   -5.4688  -16.7564 O   0  0  0  0  0  0  0  0  0  0  0  0
   -4.7085   -5.1051  -17.5771 C   0  0  0  0  0  0  0  0  0  0  0  0
   -4.4100   -3.8069  -18.0937 O   0  0  0  0  0  0  0  0  0  0  0  0
   -3.2530   -5.9408  -14.1469 H   0  0  0  0  0  0  0  0  0  0  0  0
   -2.3298   -6.1582  -17.4387 H   0  0  0  0  0  0  0  0  0  0  0  0
   -4.2216   -3.2043  -17.3522 H   0  0  0  0  0  0  0  0  0  0  0  0
   -8.4655   -5.0804  -17.9653 O   0  0  0  0  0  0  0  0  0  0  0  0
   -7.1005   -4.8871  -18.3415 C   0  0  0  0  0  0  0  0  0  0  0  0
   -8.9950   -4.9595  -18.7708 H   0  0  0  0  0  0  0  0  0  0  0  0
   -6.8623   -8.4852  -13.9909 C   0  0  0  0  0  0  0  0  0  0  0  0
   -6.6318   -7.4014  -12.9099 C   0  0  0  0  0  0  0  0  0  0  0  0
   -5.3238   -7.5241  -12.3303 O   0  0  0  0  0  0  0  0  0  0  0  0
   -7.6713   -7.4821  -11.7849 C   0  0  0  0  0  0  0  0  0  0  0  0
   -7.5245   -6.3782  -10.8834 O   0  0  0  0  0  0  0  0  0  0  0  0
   -9.0932   -7.5509  -12.3600 C   0  0  0  0  0  0  0  0  0  0  0  0
   -9.5146   -6.3319  -12.9651 O   0  0  0  0  0  0  0  0  0  0  0  0
   -9.2218   -8.6451  -13.2571 O   0  0  0  0  0  0  0  0  0  0  0  0
   -8.3577   -8.5638  -14.3916 C   0  0  0  0  0  0  0  0  0  0  0  0
   -5.1983   -8.4648  -12.0942 H   0  0  0  0  0  0  0  0  0  0  0  0
   -7.6748   -5.5556  -11.3805 H   0  0  0  0  0  0  0  0  0  0  0  0
   -8.8098   -5.9797  -13.5201 H   0  0  0  0  0  0  0  0  0  0  0  0
   -8.6244   -9.7991  -15.2778 C   0  0  0  0  0  0  0  0  0  0  0  0
   -8.2686  -11.0323  -14.6622 O   0  0  0  0  0  0  0  0  0  0  0  0
   -8.2778  -10.9050  -13.6913 H   0  0  0  0  0  0  0  0  0  0  0  0
 14 15  1  0
 14 16  1  0
  2  3  1  0
  2  9  1  0
  2 15  1  0
  3  4  1  0
  4  5  1  0
  4  1  1  0
  1 17  1  0
 17 18  1  0
 17 25  1  0
 18 19  1  0
 18 20  1  0
 19 26  1  0
 20 21  1  0
 20 22  1  0
 21 27  1  0
 22 23  1  0
 22 24  1  0
 23 28  1  0
 24 25  1  0
 25 29  1  0
 29 30  1  0
 30 31  1  0
  5  6  1  0
  5  7  1  0
  6 11  1  0
  7  8  1  0
  7  9  1  0
  8 12  1  0
  9 10  1  0
 10 13  1  0
M  END
> <minimizedAffinity>
-4.67381

> <CNNscore>
0.9173264503

> <CNNaffinity>
2.8430805206

> <CNN_VS>
2.6080329418

> <CNNaffinity_variance>
0.7527599931

$$$$



 31 32  0  0  0  0  0  0  0  0999 V2000
   -9.2898   -5.9004  -15.0840 O   0  0  0  0  0  0  0  0  0  0  0  0
   -6.4791   -7.4671  -13.4868 C   0  0  0  0  0  0  0  0  0  0  0  0
   -7.6920   -6.7364  -13.7053 O   0  0  0  0  0  0  0  0  0  0  0  0
   -8.0571   -6.6322  -15.0879 C   0  0  0  0  0  0  0  0  0  0  0  0
   -6.9463   -5.9022  -15.8894 C   0  0  0  0  0  0  0  0  0  0  0  0
   -7.1666   -5.9779  -17.3172 O   0  0  0  0  0  0  0  0  0  0  0  0
   -5.5514   -6.4579  -15.5682 C   0  0  0  0  0  0  0  0  0  0  0  0
   -4.5484   -5.5983  -16.1277 O   0  0  0  0  0  0  0  0  0  0  0  0
   -5.3167   -6.6614  -14.0689 C   0  0  0  0  0  0  0  0  0  0  0  0
   -4.0673   -7.3132  -13.8331 O   0  0  0  0  0  0  0  0  0  0  0  0
   -6.5849   -6.6785  -17.6709 H   0  0  0  0  0  0  0  0  0  0  0  0
   -4.5939   -4.7375  -15.6698 H   0  0  0  0  0  0  0  0  0  0  0  0
   -3.9232   -7.9852  -14.5231 H   0  0  0  0  0  0  0  0  0  0  0  0
   -7.2638   -6.9711  -11.2392 O   0  0  0  0  0  0  0  0  0  0  0  0
   -6.2785   -7.6937  -11.9802 C   0  0  0  0  0  0  0  0  0  0  0  0
   -7.0325   -7.0695  -10.3008 H   0  0  0  0  0  0  0  0  0  0  0  0
  -10.4643   -6.5226  -14.5419 C   0  0  0  0  0  0  0  0  0  0  0  0
  -10.8862   -5.9132  -13.1829 C   0  0  0  0  0  0  0  0  0  0  0  0
   -9.9965   -6.3289  -12.1353 O   0  0  0  0  0  0  0  0  0  0  0  0
  -12.3152   -6.3118  -12.7934 C   0  0  0  0  0  0  0  0  0  0  0  0
  -12.7288   -5.6137  -11.6126 O   0  0  0  0  0  0  0  0  0  0  0  0
  -13.2859   -6.0679  -13.9577 C   0  0  0  0  0  0  0  0  0  0  0  0
  -13.5059   -4.6861  -14.2263 O   0  0  0  0  0  0  0  0  0  0  0  0
  -12.8596   -6.7598  -15.1231 O   0  0  0  0  0  0  0  0  0  0  0  0
  -11.5800   -6.3444  -15.6032 C   0  0  0  0  0  0  0  0  0  0  0  0
   -9.8939   -7.2986  -12.2097 H   0  0  0  0  0  0  0  0  0  0  0  0
  -12.7181   -4.6596  -11.8020 H   0  0  0  0  0  0  0  0  0  0  0  0
  -12.6667   -4.2124  -14.2193 H   0  0  0  0  0  0  0  0  0  0  0  0
  -11.2644   -7.1616  -16.8741 C   0  0  0  0  0  0  0  0  0  0  0  0
  -10.2617   -6.5752  -17.6969 O   0  0  0  0  0  0  0  0  0  0  0  0
   -9.7115   -5.9876  -17.1393 H   0  0  0  0  0  0  0  0  0  0  0  0
 14 15  1  0
 14 16  1  0
  2  3  1  0
  2  9  1  0
  2 15  1  0
  3  4  1  0
  4  5  1  0
  4  1  1  0
  1 17  1  0
 17 18  1  0
 17 25  1  0
 18 19  1  0
 18 20  1  0
 19 26  1  0
 20 21  1  0
 20 22  1  0
 21 27  1  0
 22 23  1  0
 22 24  1  0
 23 28  1  0
 24 25  1  0
 25 29  1  0
 29 30  1  0
 30 31  1  0
  5  6  1  0
  5  7  1  0
  6 11  1  0
  7  8  1  0
  7  9  1  0
  8 12  1  0
  9 10  1  0
 10 13  1  0
M  END
> <minimizedAffinity>
-4.79296

> <CNNscore>
0.9148901105

> <CNNaffinity>
3.0990400314

> <CNN_VS>
2.8352811337

> <CNNaffinity_variance>
0.5552223921

$$$$



 31 32  0  0  0  0  0  0  0  0999 V2000
   -7.9181   -5.8535  -15.5162 O   0  0  0  0  0  0  0  0  0  0  0  0
   -5.5781   -5.1239  -18.1425 C   0  0  0  0  0  0  0  0  0  0  0  0
   -6.1963   -5.2218  -16.8538 O   0  0  0  0  0  0  0  0  0  0  0  0
   -7.4947   -5.8290  -16.8857 C   0  0  0  0  0  0  0  0  0  0  0  0
   -8.4580   -5.0044  -17.7808 C   0  0  0  0  0  0  0  0  0  0  0  0
   -9.7032   -5.6995  -18.0245 O   0  0  0  0  0  0  0  0  0  0  0  0
   -7.8160   -4.6414  -19.1275 C   0  0  0  0  0  0  0  0  0  0  0  0
   -8.6325   -3.6779  -19.8079 O   0  0  0  0  0  0  0  0  0  0  0  0
   -6.3781   -4.1333  -18.9896 C   0  0  0  0  0  0  0  0  0  0  0  0
   -5.7781   -3.9490  -20.2732 O   0  0  0  0  0  0  0  0  0  0  0  0
   -9.6516   -6.0985  -18.9146 H   0  0  0  0  0  0  0  0  0  0  0  0
   -8.6261   -2.8513  -19.2889 H   0  0  0  0  0  0  0  0  0  0  0  0
   -6.0695   -4.6639  -20.8668 H   0  0  0  0  0  0  0  0  0  0  0  0
   -3.6798   -4.8732  -16.6435 O   0  0  0  0  0  0  0  0  0  0  0  0
   -4.1256   -4.6482  -17.9824 C   0  0  0  0  0  0  0  0  0  0  0  0
   -2.7994   -4.4686  -16.5726 H   0  0  0  0  0  0  0  0  0  0  0  0
   -7.5460   -6.9703  -14.6948 C   0  0  0  0  0  0  0  0  0  0  0  0
   -6.2595   -6.7033  -13.8762 C   0  0  0  0  0  0  0  0  0  0  0  0
   -5.0976   -6.7405  -14.7190 O   0  0  0  0  0  0  0  0  0  0  0  0
   -6.0742   -7.7257  -12.7479 C   0  0  0  0  0  0  0  0  0  0  0  0
   -4.9630   -7.3647  -11.9186 O   0  0  0  0  0  0  0  0  0  0  0  0
   -7.3631   -7.8706  -11.9262 C   0  0  0  0  0  0  0  0  0  0  0  0
   -7.6598   -6.7212  -11.1383 O   0  0  0  0  0  0  0  0  0  0  0  0
   -8.4571   -8.2213  -12.7620 O   0  0  0  0  0  0  0  0  0  0  0  0
   -8.7532   -7.2454  -13.7622 C   0  0  0  0  0  0  0  0  0  0  0  0
   -5.1568   -7.5537  -15.2590 H   0  0  0  0  0  0  0  0  0  0  0  0
   -5.1491   -6.4977  -11.5186 H   0  0  0  0  0  0  0  0  0  0  0  0
   -7.5353   -5.9223  -11.6627 H   0  0  0  0  0  0  0  0  0  0  0  0
   -9.9673   -7.7509  -14.5703 C   0  0  0  0  0  0  0  0  0  0  0  0
  -11.1586   -7.8675  -13.8001 O   0  0  0  0  0  0  0  0  0  0  0  0
  -11.0852   -7.2695  -13.0281 H   0  0  0  0  0  0  0  0  0  0  0  0
 14 15  1  0
 14 16  1  0
  2  3  1  0
  2  9  1  0
  2 15  1  0
  3  4  1  0
  4  5  1  0
  4  1  1  0
  1 17  1  0
 17 18  1  0
 17 25  1  0
 18 19  1  0
 18 20  1  0
 19 26  1  0
 20 21  1  0
 20 22  1  0
 21 27  1  0
 22 23  1  0
 22 24  1  0
 23 28  1  0
 24 25  1  0
 25 29  1  0
 29 30  1  0
 30 31  1  0
  5  6  1  0
  5  7  1  0
  6 11  1  0
  7  8  1  0
  7  9  1  0
  8 12  1  0
  9 10  1  0
 10 13  1  0
M  END
> <minimizedAffinity>
-4.37209

> <CNNscore>
0.9034712315

> <CNNaffinity>
3.1018753052

> <CNN_VS>
2.8024551868

> <CNNaffinity_variance>
0.4518171847

$$$$



 31 32  0  0  0  0  0  0  0  0999 V2000
   -5.0878   -6.4019  -14.8146 O   0  0  0  0  0  0  0  0  0  0  0  0
   -8.6585   -6.7121  -14.5710 C   0  0  0  0  0  0  0  0  0  0  0  0
   -7.3494   -6.2184  -14.8794 O   0  0  0  0  0  0  0  0  0  0  0  0
   -6.2918   -7.0496  -14.3832 C   0  0  0  0  0  0  0  0  0  0  0  0
   -6.3719   -7.1653  -12.8374 C   0  0  0  0  0  0  0  0  0  0  0  0
   -5.4703   -8.1714  -12.3198 O   0  0  0  0  0  0  0  0  0  0  0  0
   -7.7976   -7.4786  -12.3614 C   0  0  0  0  0  0  0  0  0  0  0  0
   -7.8759   -7.3256  -10.9371 O   0  0  0  0  0  0  0  0  0  0  0  0
   -8.8637   -6.6282  -13.0578 C   0  0  0  0  0  0  0  0  0  0  0  0
  -10.1763   -7.0562  -12.6901 O   0  0  0  0  0  0  0  0  0  0  0  0
   -5.9951   -8.9747  -12.1366 H   0  0  0  0  0  0  0  0  0  0  0  0
   -7.7344   -6.3839  -10.7229 H   0  0  0  0  0  0  0  0  0  0  0  0
  -10.1868   -8.0274  -12.6194 H   0  0  0  0  0  0  0  0  0  0  0  0
   -9.1415   -5.2790  -16.4754 O   0  0  0  0  0  0  0  0  0  0  0  0
   -9.7131   -5.8706  -15.3067 C   0  0  0  0  0  0  0  0  0  0  0  0
   -9.8165   -4.6855  -16.8441 H   0  0  0  0  0  0  0  0  0  0  0  0
   -4.5995   -6.6568  -16.1402 C   0  0  0  0  0  0  0  0  0  0  0  0
   -3.9135   -5.4196  -16.7688 C   0  0  0  0  0  0  0  0  0  0  0  0
   -4.8841   -4.4330  -17.1512 O   0  0  0  0  0  0  0  0  0  0  0  0
   -3.0834   -5.7891  -18.0046 C   0  0  0  0  0  0  0  0  0  0  0  0
   -2.3430   -4.6549  -18.4716 O   0  0  0  0  0  0  0  0  0  0  0  0
   -2.1587   -6.9775  -17.7049 C   0  0  0  0  0  0  0  0  0  0  0  0
   -1.0965   -6.6525  -16.8128 O   0  0  0  0  0  0  0  0  0  0  0  0
   -2.9052   -8.0917  -17.2362 O   0  0  0  0  0  0  0  0  0  0  0  0
   -3.6081   -7.8421  -16.0180 C   0  0  0  0  0  0  0  0  0  0  0  0
   -5.5843   -4.8947  -17.6542 H   0  0  0  0  0  0  0  0  0  0  0  0
   -1.7341   -4.3759  -17.7661 H   0  0  0  0  0  0  0  0  0  0  0  0
   -1.4349   -6.1346  -16.0739 H   0  0  0  0  0  0  0  0  0  0  0  0
   -4.3481   -9.1386  -15.6256 C   0  0  0  0  0  0  0  0  0  0  0  0
   -3.5115  -10.2899  -15.6018 O   0  0  0  0  0  0  0  0  0  0  0  0
   -2.5868   -9.9952  -15.4713 H   0  0  0  0  0  0  0  0  0  0  0  0
 14 15  1  0
 14 16  1  0
  2  3  1  0
  2  9  1  0
  2 15  1  0
  3  4  1  0
  4  5  1  0
  4  1  1  0
  1 17  1  0
 17 18  1  0
 17 25  1  0
 18 19  1  0
 18 20  1  0
 19 26  1  0
 20 21  1  0
 20 22  1  0
 21 27  1  0
 22 23  1  0
 22 24  1  0
 23 28  1  0
 24 25  1  0
 25 29  1  0
 29 30  1  0
 30 31  1  0
  5  6  1  0
  5  7  1  0
  6 11  1  0
  7  8  1  0
  7  9  1  0
  8 12  1  0
  9 10  1  0
 10 13  1  0
M  END
> <minimizedAffinity>
-4.76861

> <CNNscore>
0.8942960501

> <CNNaffinity>
3.1181392670

> <CNN_VS>
2.7885396481

> <CNNaffinity_variance>
0.3638774455

$$$$



 31 32  0  0  0  0  0  0  0  0999 V2000
   -5.0948   -6.0718  -15.1377 O   0  0  0  0  0  0  0  0  0  0  0  0
   -8.5690   -6.8750  -14.7015 C   0  0  0  0  0  0  0  0  0  0  0  0
   -7.3600   -6.2091  -15.0856 O   0  0  0  0  0  0  0  0  0  0  0  0
   -6.1720   -6.8727  -14.6341 C   0  0  0  0  0  0  0  0  0  0  0  0
   -6.1571   -6.9652  -13.0848 C   0  0  0  0  0  0  0  0  0  0  0  0
   -5.0975   -7.8234  -12.6013 O   0  0  0  0  0  0  0  0  0  0  0  0
   -7.4985   -7.4654  -12.5297 C   0  0  0  0  0  0  0  0  0  0  0  0
   -7.5259   -7.2943  -11.1057 O   0  0  0  0  0  0  0  0  0  0  0  0
   -8.7077   -6.7883  -13.1808 C   0  0  0  0  0  0  0  0  0  0  0  0
   -9.9265   -7.3883  -12.7383 O   0  0  0  0  0  0  0  0  0  0  0  0
   -5.4936   -8.6883  -12.3793 H   0  0  0  0  0  0  0  0  0  0  0  0
   -7.5083   -6.3377  -10.9125 H   0  0  0  0  0  0  0  0  0  0  0  0
   -9.7960   -8.3497  -12.6534 H   0  0  0  0  0  0  0  0  0  0  0  0
   -9.3145   -5.3562  -16.4482 O   0  0  0  0  0  0  0  0  0  0  0  0
   -9.7676   -6.2059  -15.3923 C   0  0  0  0  0  0  0  0  0  0  0  0
  -10.0972   -4.8879  -16.7827 H   0  0  0  0  0  0  0  0  0  0  0  0
   -4.2402   -6.6179  -16.1534 C   0  0  0  0  0  0  0  0  0  0  0  0
   -3.9984   -8.1363  -15.9734 C   0  0  0  0  0  0  0  0  0  0  0  0
   -3.1088   -8.3879  -14.8746 O   0  0  0  0  0  0  0  0  0  0  0  0
   -3.4060   -8.7771  -17.2347 C   0  0  0  0  0  0  0  0  0  0  0  0
   -3.3356  -10.2009  -17.0909 O   0  0  0  0  0  0  0  0  0  0  0  0
   -4.2123   -8.3786  -18.4790 C   0  0  0  0  0  0  0  0  0  0  0  0
   -5.5099   -8.9655  -18.5199 O   0  0  0  0  0  0  0  0  0  0  0  0
   -4.2798   -6.9650  -18.6048 O   0  0  0  0  0  0  0  0  0  0  0  0
   -4.9308   -6.3202  -17.5089 C   0  0  0  0  0  0  0  0  0  0  0  0
   -2.3395   -7.7938  -14.9824 H   0  0  0  0  0  0  0  0  0  0  0  0
   -4.2390  -10.5409  -16.9702 H   0  0  0  0  0  0  0  0  0  0  0  0
   -5.9305   -8.8932  -17.6559 H   0  0  0  0  0  0  0  0  0  0  0  0
   -4.9470   -4.8036  -17.7954 C   0  0  0  0  0  0  0  0  0  0  0  0
   -4.0310   -4.0610  -16.9981 O   0  0  0  0  0  0  0  0  0  0  0  0
   -3.3213   -4.6667  -16.7008 H   0  0  0  0  0  0  0  0  0  0  0  0
 14 15  1  0
 14 16  1  0
  2  3  1  0
  2  9  1  0
  2 15  1  0
  3  4  1  0
  4  5  1  0
  4  1  1  0
  1 17  1  0
 17 18  1  0
 17 25  1  0
 18 19  1  0
 18 20  1  0
 19 26  1  0
 20 21  1  0
 20 22  1  0
 21 27  1  0
 22 23  1  0
 22 24  1  0
 23 28  1  0
 24 25  1  0
 25 29  1  0
 29 30  1  0
 30 31  1  0
  5  6  1  0
  5  7  1  0
  6 11  1  0
  7  8  1  0
  7  9  1  0
  8 12  1  0
  9 10  1  0
 10 13  1  0
M  END
> <minimizedAffinity>
-4.34283

> <CNNscore>
0.8936583996

> <CNNaffinity>
2.8365724087

> <CNN_VS>
2.5349266529

> <CNNaffinity_variance>
0.6415144801

$$$$



 31 32  0  0  0  0  0  0  0  0999 V2000
   -9.5924   -6.9473  -14.6075 O   0  0  0  0  0  0  0  0  0  0  0  0
   -6.0442   -6.4534  -14.8752 C   0  0  0  0  0  0  0  0  0  0  0  0
   -7.4011   -6.7973  -15.1805 O   0  0  0  0  0  0  0  0  0  0  0  0
   -8.3082   -6.5702  -14.0937 C   0  0  0  0  0  0  0  0  0  0  0  0
   -7.9002   -7.4184  -12.8595 C   0  0  0  0  0  0  0  0  0  0  0  0
   -8.6459   -7.0502  -11.6757 O   0  0  0  0  0  0  0  0  0  0  0  0
   -6.3985   -7.3053  -12.5600 C   0  0  0  0  0  0  0  0  0  0  0  0
   -6.0248   -8.2893  -11.5854 O   0  0  0  0  0  0  0  0  0  0  0  0
   -5.5259   -7.4237  -13.8127 C   0  0  0  0  0  0  0  0  0  0  0  0
   -4.1547   -7.1671  -13.5039 O   0  0  0  0  0  0  0  0  0  0  0  0
   -8.0740   -6.4754  -11.1310 H   0  0  0  0  0  0  0  0  0  0  0  0
   -6.1418   -9.1729  -11.9831 H   0  0  0  0  0  0  0  0  0  0  0  0
   -4.1047   -6.4497  -12.8471 H   0  0  0  0  0  0  0  0  0  0  0  0
   -4.4871   -5.3155  -16.3565 O   0  0  0  0  0  0  0  0  0  0  0  0
   -5.1909   -6.5420  -16.1501 C   0  0  0  0  0  0  0  0  0  0  0  0
   -4.0457   -5.3907  -17.2187 H   0  0  0  0  0  0  0  0  0  0  0  0
  -10.3368   -7.9715  -13.9313 C   0  0  0  0  0  0  0  0  0  0  0  0
  -11.6541   -7.4405  -13.3157 C   0  0  0  0  0  0  0  0  0  0  0  0
  -11.3922   -6.6469  -12.1481 O   0  0  0  0  0  0  0  0  0  0  0  0
  -12.6058   -8.5786  -12.9261 C   0  0  0  0  0  0  0  0  0  0  0  0
  -13.8703   -8.0550  -12.5024 O   0  0  0  0  0  0  0  0  0  0  0  0
  -12.7704   -9.5726  -14.0847 C   0  0  0  0  0  0  0  0  0  0  0  0
  -13.5015   -9.0381  -15.1844 O   0  0  0  0  0  0  0  0  0  0  0  0
  -11.5087  -10.0776  -14.4988 O   0  0  0  0  0  0  0  0  0  0  0  0
  -10.6180   -9.0725  -14.9856 C   0  0  0  0  0  0  0  0  0  0  0  0
  -10.7754   -7.1550  -11.5844 H   0  0  0  0  0  0  0  0  0  0  0  0
  -14.2643   -7.5679  -13.2466 H   0  0  0  0  0  0  0  0  0  0  0  0
  -13.1925   -8.1470  -15.3825 H   0  0  0  0  0  0  0  0  0  0  0  0
   -9.3092   -9.7690  -15.4147 C   0  0  0  0  0  0  0  0  0  0  0  0
   -8.6273   -9.1037  -16.4723 O   0  0  0  0  0  0  0  0  0  0  0  0
   -8.9030   -8.1640  -16.4725 H   0  0  0  0  0  0  0  0  0  0  0  0
 14 15  1  0
 14 16  1  0
  2  3  1  0
  2  9  1  0
  2 15  1  0
  3  4  1  0
  4  5  1  0
  4  1  1  0
  1 17  1  0
 17 18  1  0
 17 25  1  0
 18 19  1  0
 18 20  1  0
 19 26  1  0
 20 21  1  0
 20 22  1  0
 21 27  1  0
 22 23  1  0
 22 24  1  0
 23 28  1  0
 24 25  1  0
 25 29  1  0
 29 30  1  0
 30 31  1  0
  5  6  1  0
  5  7  1  0
  6 11  1  0
  7  8  1  0
  7  9  1  0
  8 12  1  0
  9 10  1  0
 10 13  1  0
M  END
> <minimizedAffinity>
-4.73379

> <CNNscore>
0.8879095912

> <CNNaffinity>
2.9207422733

> <CNN_VS>
2.5933551788

> <CNNaffinity_variance>
0.5891051888

$$$$



 31 32  0  0  0  0  0  0  0  0999 V2000
   -7.3812   -6.1187  -16.4417 O   0  0  0  0  0  0  0  0  0  0  0  0
   -7.9794   -7.6892  -13.2666 C   0  0  0  0  0  0  0  0  0  0  0  0
   -8.0723   -6.8078  -14.3922 O   0  0  0  0  0  0  0  0  0  0  0  0
   -7.1033   -7.0786  -15.4137 C   0  0  0  0  0  0  0  0  0  0  0  0
   -5.6646   -6.9317  -14.8500 C   0  0  0  0  0  0  0  0  0  0  0  0
   -4.6651   -7.4159  -15.7770 O   0  0  0  0  0  0  0  0  0  0  0  0
   -5.4992   -7.6620  -13.5095 C   0  0  0  0  0  0  0  0  0  0  0  0
   -4.2500   -7.2922  -12.9089 O   0  0  0  0  0  0  0  0  0  0  0  0
   -6.6605   -7.4134  -12.5430 C   0  0  0  0  0  0  0  0  0  0  0  0
   -6.5329   -8.2256  -11.3745 O   0  0  0  0  0  0  0  0  0  0  0  0
   -4.3974   -8.3090  -15.4857 H   0  0  0  0  0  0  0  0  0  0  0  0
   -4.2892   -6.3437  -12.6818 H   0  0  0  0  0  0  0  0  0  0  0  0
   -6.1888   -9.1000  -11.6301 H   0  0  0  0  0  0  0  0  0  0  0  0
   -9.9344   -6.3293  -12.7743 O   0  0  0  0  0  0  0  0  0  0  0  0
   -9.1715   -7.4516  -12.3263 C   0  0  0  0  0  0  0  0  0  0  0  0
  -10.6107   -6.1653  -12.0965 H   0  0  0  0  0  0  0  0  0  0  0  0
   -7.6244   -6.5838  -17.7777 C   0  0  0  0  0  0  0  0  0  0  0  0
   -6.5242   -7.5500  -18.2801 C   0  0  0  0  0  0  0  0  0  0  0  0
   -5.3152   -6.8377  -18.5847 O   0  0  0  0  0  0  0  0  0  0  0  0
   -6.9635   -8.3193  -19.5323 C   0  0  0  0  0  0  0  0  0  0  0  0
   -5.9893   -9.3099  -19.8824 O   0  0  0  0  0  0  0  0  0  0  0  0
   -8.3509   -8.9447  -19.3293 C   0  0  0  0  0  0  0  0  0  0  0  0
   -8.3514  -10.0208  -18.3956 O   0  0  0  0  0  0  0  0  0  0  0  0
   -9.3044   -7.9526  -18.9757 O   0  0  0  0  0  0  0  0  0  0  0  0
   -9.0086   -7.2810  -17.7501 C   0  0  0  0  0  0  0  0  0  0  0  0
   -5.5623   -6.0702  -19.1381 H   0  0  0  0  0  0  0  0  0  0  0  0
   -5.9163   -9.9407  -19.1455 H   0  0  0  0  0  0  0  0  0  0  0  0
   -7.8361   -9.7809  -17.6174 H   0  0  0  0  0  0  0  0  0  0  0  0
  -10.1339   -6.2573  -17.4892 C   0  0  0  0  0  0  0  0  0  0  0  0
  -11.0992   -6.1899  -18.5331 O   0  0  0  0  0  0  0  0  0  0  0  0
  -11.0819   -7.0376  -19.0228 H   0  0  0  0  0  0  0  0  0  0  0  0
 14 15  1  0
 14 16  1  0
  2  3  1  0
  2  9  1  0
  2 15  1  0
  3  4  1  0
  4  5  1  0
  4  1  1  0
  1 17  1  0
 17 18  1  0
 17 25  1  0
 18 19  1  0
 18 20  1  0
 19 26  1  0
 20 21  1  0
 20 22  1  0
 21 27  1  0
 22 23  1  0
 22 24  1  0
 23 28  1  0
 24 25  1  0
 25 29  1  0
 29 30  1  0
 30 31  1  0
  5  6  1  0
  5  7  1  0
  6 11  1  0
  7  8  1  0
  7  9  1  0
  8 12  1  0
  9 10  1  0
 10 13  1  0
M  END
> <minimizedAffinity>
-3.72448

> <CNNscore>
0.8827587366

> <CNNaffinity>
3.0776090622

> <CNN_VS>
2.7167863846

> <CNNaffinity_variance>
0.5270841122

$$$$



 31 32  0  0  0  0  0  0  0  0999 V2000
   -8.3508   -8.3219  -13.1184 O   0  0  0  0  0  0  0  0  0  0  0  0
   -6.9599   -6.0674  -15.5450 C   0  0  0  0  0  0  0  0  0  0  0  0
   -7.7383   -7.1026  -14.9325 O   0  0  0  0  0  0  0  0  0  0  0  0
   -7.4643   -7.2753  -13.5358 C   0  0  0  0  0  0  0  0  0  0  0  0
   -5.9739   -7.6495  -13.3170 C   0  0  0  0  0  0  0  0  0  0  0  0
   -5.6022   -7.6081  -11.9195 O   0  0  0  0  0  0  0  0  0  0  0  0
   -5.0325   -6.7336  -14.1124 C   0  0  0  0  0  0  0  0  0  0  0  0
   -3.7013   -7.2673  -14.0838 O   0  0  0  0  0  0  0  0  0  0  0  0
   -5.4943   -6.5045  -15.5541 C   0  0  0  0  0  0  0  0  0  0  0  0
   -4.6704   -5.5351  -16.2045 O   0  0  0  0  0  0  0  0  0  0  0  0
   -5.1334   -6.7658  -11.7615 H   0  0  0  0  0  0  0  0  0  0  0  0
   -3.7021   -8.1161  -14.5657 H   0  0  0  0  0  0  0  0  0  0  0  0
   -4.4388   -4.8352  -15.5682 H   0  0  0  0  0  0  0  0  0  0  0  0
   -8.6251   -4.9975  -16.9578 O   0  0  0  0  0  0  0  0  0  0  0  0
   -7.4606   -5.8256  -16.9776 C   0  0  0  0  0  0  0  0  0  0  0  0
   -8.9532   -4.9584  -17.8714 H   0  0  0  0  0  0  0  0  0  0  0  0
   -9.4541   -7.9955  -12.2601 C   0  0  0  0  0  0  0  0  0  0  0  0
  -10.6219   -7.3240  -13.0229 C   0  0  0  0  0  0  0  0  0  0  0  0
  -10.2957   -5.9702  -13.3729 O   0  0  0  0  0  0  0  0  0  0  0  0
  -11.9158   -7.3147  -12.1992 C   0  0  0  0  0  0  0  0  0  0  0  0
  -13.0097   -6.8267  -12.9854 O   0  0  0  0  0  0  0  0  0  0  0  0
  -12.2116   -8.7106  -11.6325 C   0  0  0  0  0  0  0  0  0  0  0  0
  -12.5902   -9.6540  -12.6306 O   0  0  0  0  0  0  0  0  0  0  0  0
  -11.1161   -9.1844  -10.8618 O   0  0  0  0  0  0  0  0  0  0  0  0
   -9.9064   -9.3270  -11.6081 C   0  0  0  0  0  0  0  0  0  0  0  0
   -9.9436   -5.5395  -12.5685 H   0  0  0  0  0  0  0  0  0  0  0  0
  -13.1331   -7.4251  -13.7423 H   0  0  0  0  0  0  0  0  0  0  0  0
  -12.0033   -9.5808  -13.3915 H   0  0  0  0  0  0  0  0  0  0  0  0
   -8.8220   -9.8660  -10.6511 C   0  0  0  0  0  0  0  0  0  0  0  0
   -7.6405   -9.0726  -10.6205 O   0  0  0  0  0  0  0  0  0  0  0  0
   -7.8719   -8.1657  -10.9084 H   0  0  0  0  0  0  0  0  0  0  0  0
 14 15  1  0
 14 16  1  0
  2  3  1  0
  2  9  1  0
  2 15  1  0
  3  4  1  0
  4  5  1  0
  4  1  1  0
  1 17  1  0
 17 18  1  0
 17 25  1  0
 18 19  1  0
 18 20  1  0
 19 26  1  0
 20 21  1  0
 20 22  1  0
 21 27  1  0
 22 23  1  0
 22 24  1  0
 23 28  1  0
 24 25  1  0
 25 29  1  0
 29 30  1  0
 30 31  1  0
  5  6  1  0
  5  7  1  0
  6 11  1  0
  7  8  1  0
  7  9  1  0
  8 12  1  0
  9 10  1  0
 10 13  1  0
M  END
> <minimizedAffinity>
-5.30540

> <CNNscore>
0.8631573915

> <CNNaffinity>
2.8459618092

> <CNN_VS>
2.4565129280

> <CNNaffinity_variance>
0.5325710773

$$$$



 31 32  0  0  0  0  0  0  0  0999 V2000
   -8.5494   -6.5578  -15.8319 O   0  0  0  0  0  0  0  0  0  0  0  0
  -11.3403   -4.5799  -14.7343 C   0  0  0  0  0  0  0  0  0  0  0  0
  -10.2751   -5.5376  -14.7671 O   0  0  0  0  0  0  0  0  0  0  0  0
   -9.5721   -5.5702  -16.0163 C   0  0  0  0  0  0  0  0  0  0  0  0
  -10.5385   -5.9384  -17.1738 C   0  0  0  0  0  0  0  0  0  0  0  0
   -9.9256   -5.7591  -18.4719 O   0  0  0  0  0  0  0  0  0  0  0  0
  -11.8364   -5.1200  -17.1162 C   0  0  0  0  0  0  0  0  0  0  0  0
  -12.7919   -5.6642  -18.0374 O   0  0  0  0  0  0  0  0  0  0  0  0
  -12.4296   -5.0335  -15.7072 C   0  0  0  0  0  0  0  0  0  0  0  0
  -13.5488   -4.1457  -15.6798 O   0  0  0  0  0  0  0  0  0  0  0  0
  -10.2445   -4.9109  -18.8366 H   0  0  0  0  0  0  0  0  0  0  0  0
  -13.0374   -6.5577  -17.7305 H   0  0  0  0  0  0  0  0  0  0  0  0
  -13.3685   -3.3875  -16.2636 H   0  0  0  0  0  0  0  0  0  0  0  0
  -11.2847   -5.4607  -12.4683 O   0  0  0  0  0  0  0  0  0  0  0  0
  -11.8989   -4.4794  -13.3062 C   0  0  0  0  0  0  0  0  0  0  0  0
  -11.7406   -5.4183  -11.6115 H   0  0  0  0  0  0  0  0  0  0  0  0
   -7.4779   -6.2845  -14.9167 C   0  0  0  0  0  0  0  0  0  0  0  0
   -7.5297   -7.1816  -13.6562 C   0  0  0  0  0  0  0  0  0  0  0  0
   -8.5887   -6.7719  -12.7773 O   0  0  0  0  0  0  0  0  0  0  0  0
   -6.2103   -7.1507  -12.8746 C   0  0  0  0  0  0  0  0  0  0  0  0
   -6.2367   -8.1024  -11.8039 O   0  0  0  0  0  0  0  0  0  0  0  0
   -5.0167   -7.3919  -13.8097 C   0  0  0  0  0  0  0  0  0  0  0  0
   -4.9507   -8.7262  -14.3045 O   0  0  0  0  0  0  0  0  0  0  0  0
   -5.0075   -6.4460  -14.8698 O   0  0  0  0  0  0  0  0  0  0  0  0
   -6.1633   -6.5086  -15.7069 C   0  0  0  0  0  0  0  0  0  0  0  0
   -8.5163   -5.8028  -12.6680 H   0  0  0  0  0  0  0  0  0  0  0  0
   -6.3449   -8.9901  -12.1867 H   0  0  0  0  0  0  0  0  0  0  0  0
   -5.8249   -9.0145  -14.5898 H   0  0  0  0  0  0  0  0  0  0  0  0
   -6.0014   -5.4470  -16.8155 C   0  0  0  0  0  0  0  0  0  0  0  0
   -4.7185   -4.8305  -16.8342 O   0  0  0  0  0  0  0  0  0  0  0  0
   -4.0799   -5.4369  -16.4059 H   0  0  0  0  0  0  0  0  0  0  0  0
 14 15  1  0
 14 16  1  0
  2  3  1  0
  2  9  1  0
  2 15  1  0
  3  4  1  0
  4  5  1  0
  4  1  1  0
  1 17  1  0
 17 18  1  0
 17 25  1  0
 18 19  1  0
 18 20  1  0
 19 26  1  0
 20 21  1  0
 20 22  1  0
 21 27  1  0
 22 23  1  0
 22 24  1  0
 23 28  1  0
 24 25  1  0
 25 29  1  0
 29 30  1  0
 30 31  1  0
  5  6  1  0
  5  7  1  0
  6 11  1  0
  7  8  1  0
  7  9  1  0
  8 12  1  0
  9 10  1  0
 10 13  1  0
M  END
> <minimizedAffinity>
-4.50509

> <CNNscore>
0.8581289649

> <CNNaffinity>
2.8671705723

> <CNN_VS>
2.4604020119

> <CNNaffinity_variance>
0.6287115216

$$$$



 31 32  0  0  0  0  0  0  0  0999 V2000
   -6.8906   -7.0772  -14.7143 O   0  0  0  0  0  0  0  0  0  0  0  0
   -4.7948   -5.3002  -17.0286 C   0  0  0  0  0  0  0  0  0  0  0  0
   -5.8728   -6.0614  -16.4708 O   0  0  0  0  0  0  0  0  0  0  0  0
   -5.7130   -6.3429  -15.0741 C   0  0  0  0  0  0  0  0  0  0  0  0
   -4.4166   -7.1608  -14.8299 C   0  0  0  0  0  0  0  0  0  0  0  0
   -4.0983   -7.2686  -13.4227 O   0  0  0  0  0  0  0  0  0  0  0  0
   -3.2136   -6.5588  -15.5701 C   0  0  0  0  0  0  0  0  0  0  0  0
   -2.1109   -7.4752  -15.5254 O   0  0  0  0  0  0  0  0  0  0  0  0
   -3.5334   -6.1649  -17.0148 C   0  0  0  0  0  0  0  0  0  0  0  0
   -2.4309   -5.4794  -17.6114 O   0  0  0  0  0  0  0  0  0  0  0  0
   -3.4003   -6.6145  -13.2250 H   0  0  0  0  0  0  0  0  0  0  0  0
   -2.3544   -8.2712  -16.0351 H   0  0  0  0  0  0  0  0  0  0  0  0
   -2.0186   -4.8995  -16.9465 H   0  0  0  0  0  0  0  0  0  0  0  0
   -4.7255   -5.8891  -19.3870 O   0  0  0  0  0  0  0  0  0  0  0  0
   -5.1480   -4.8825  -18.4647 C   0  0  0  0  0  0  0  0  0  0  0  0
   -4.8827   -5.5331  -20.2771 H   0  0  0  0  0  0  0  0  0  0  0  0
   -8.0049   -6.3688  -14.1514 C   0  0  0  0  0  0  0  0  0  0  0  0
   -9.2179   -6.3099  -15.1115 C   0  0  0  0  0  0  0  0  0  0  0  0
   -8.9783   -5.3877  -16.1857 O   0  0  0  0  0  0  0  0  0  0  0  0
  -10.5033   -5.8896  -14.3878 C   0  0  0  0  0  0  0  0  0  0  0  0
  -11.6314   -5.9908  -15.2652 O   0  0  0  0  0  0  0  0  0  0  0  0
  -10.7082   -6.7206  -13.1132 C   0  0  0  0  0  0  0  0  0  0  0  0
  -11.0361   -8.0819  -13.3762 O   0  0  0  0  0  0  0  0  0  0  0  0
   -9.5795   -6.6166  -12.2566 O   0  0  0  0  0  0  0  0  0  0  0  0
   -8.3694   -7.1055  -12.8372 C   0  0  0  0  0  0  0  0  0  0  0  0
   -8.6470   -4.5582  -15.7873 H   0  0  0  0  0  0  0  0  0  0  0  0
  -11.7238   -6.9198  -15.5384 H   0  0  0  0  0  0  0  0  0  0  0  0
  -10.4609   -8.4311  -14.0661 H   0  0  0  0  0  0  0  0  0  0  0  0
   -7.2462   -6.9486  -11.7902 C   0  0  0  0  0  0  0  0  0  0  0  0
   -6.4036   -8.0905  -11.6796 O   0  0  0  0  0  0  0  0  0  0  0  0
   -6.4551   -8.5927  -12.5187 H   0  0  0  0  0  0  0  0  0  0  0  0
 14 15  1  0
 14 16  1  0
  2  3  1  0
  2  9  1  0
  2 15  1  0
  3  4  1  0
  4  5  1  0
  4  1  1  0
  1 17  1  0
 17 18  1  0
 17 25  1  0
 18 19  1  0
 18 20  1  0
 19 26  1  0
 20 21  1  0
 20 22  1  0
 21 27  1  0
 22 23  1  0
 22 24  1  0
 23 28  1  0
 24 25  1  0
 25 29  1  0
 29 30  1  0
 30 31  1  0
  5  6  1  0
  5  7  1  0
  6 11  1  0
  7  8  1  0
  7  9  1  0
  8 12  1  0
  9 10  1  0
 10 13  1  0
M  END
> <minimizedAffinity>
-4.71662

> <CNNscore>
0.8552513719

> <CNNaffinity>
3.0187969208

> <CNN_VS>
2.5818302631

> <CNNaffinity_variance>
0.4629170895

$$$$



 31 32  0  0  0  0  0  0  0  0999 V2000
   -9.4865   -6.1065  -15.0548 O   0  0  0  0  0  0  0  0  0  0  0  0
   -6.5952   -7.4906  -13.4329 C   0  0  0  0  0  0  0  0  0  0  0  0
   -7.8457   -6.8303  -13.6632 O   0  0  0  0  0  0  0  0  0  0  0  0
   -8.2161   -6.7708  -15.0470 C   0  0  0  0  0  0  0  0  0  0  0  0
   -7.1463   -5.9965  -15.8626 C   0  0  0  0  0  0  0  0  0  0  0  0
   -7.3624   -6.1097  -17.2886 O   0  0  0  0  0  0  0  0  0  0  0  0
   -5.7235   -6.4705  -15.5331 C   0  0  0  0  0  0  0  0  0  0  0  0
   -4.7683   -5.5684  -16.1089 O   0  0  0  0  0  0  0  0  0  0  0  0
   -5.4780   -6.6340  -14.0306 C   0  0  0  0  0  0  0  0  0  0  0  0
   -4.1953   -7.2133  -13.7845 O   0  0  0  0  0  0  0  0  0  0  0  0
   -6.7439   -6.7842  -17.6303 H   0  0  0  0  0  0  0  0  0  0  0  0
   -4.8600   -4.7032  -15.6665 H   0  0  0  0  0  0  0  0  0  0  0  0
   -4.0153   -7.8888  -14.4625 H   0  0  0  0  0  0  0  0  0  0  0  0
   -7.6069   -7.4509  -11.2219 O   0  0  0  0  0  0  0  0  0  0  0  0
   -6.3825   -7.6790  -11.9227 C   0  0  0  0  0  0  0  0  0  0  0  0
   -7.3949   -7.4859  -10.2745 H   0  0  0  0  0  0  0  0  0  0  0  0
  -10.6321   -6.7938  -14.5298 C   0  0  0  0  0  0  0  0  0  0  0  0
  -10.3838   -8.3111  -14.3498 C   0  0  0  0  0  0  0  0  0  0  0  0
  -10.3712   -8.9836  -15.6185 O   0  0  0  0  0  0  0  0  0  0  0  0
  -11.4502   -8.9664  -13.4632 C   0  0  0  0  0  0  0  0  0  0  0  0
  -11.1107  -10.3317  -13.1925 O   0  0  0  0  0  0  0  0  0  0  0  0
  -11.6454   -8.1694  -12.1655 C   0  0  0  0  0  0  0  0  0  0  0  0
  -10.5339   -8.2580  -11.2787 O   0  0  0  0  0  0  0  0  0  0  0  0
  -11.9743   -6.8167  -12.4492 O   0  0  0  0  0  0  0  0  0  0  0  0
  -10.9610   -6.1179  -13.1742 C   0  0  0  0  0  0  0  0  0  0  0  0
  -11.1616   -8.6868  -16.1119 H   0  0  0  0  0  0  0  0  0  0  0  0
  -10.2636  -10.3470  -12.7144 H   0  0  0  0  0  0  0  0  0  0  0  0
   -9.7122   -8.1449  -11.7694 H   0  0  0  0  0  0  0  0  0  0  0  0
  -11.4471   -4.6685  -13.3869 C   0  0  0  0  0  0  0  0  0  0  0  0
  -11.6019   -3.9337  -12.1776 O   0  0  0  0  0  0  0  0  0  0  0  0
  -11.0318   -4.3427  -11.4945 H   0  0  0  0  0  0  0  0  0  0  0  0
 14 15  1  0
 14 16  1  0
  2  3  1  0
  2  9  1  0
  2 15  1  0
  3  4  1  0
  4  5  1  0
  4  1  1  0
  1 17  1  0
 17 18  1  0
 17 25  1  0
 18 19  1  0
 18 20  1  0
 19 26  1  0
 20 21  1  0
 20 22  1  0
 21 27  1  0
 22 23  1  0
 22 24  1  0
 23 28  1  0
 24 25  1  0
 25 29  1  0
 29 30  1  0
 30 31  1  0
  5  6  1  0
  5  7  1  0
  6 11  1  0
  7  8  1  0
  7  9  1  0
  8 12  1  0
  9 10  1  0
 10 13  1  0
M  END
> <minimizedAffinity>
-4.90369

> <CNNscore>
0.8407534957

> <CNNaffinity>
2.9029045105

> <CNN_VS>
2.4406270981

> <CNNaffinity_variance>
0.8191771507

$$$$



 31 32  0  0  0  0  0  0  0  0999 V2000
   -9.9043   -7.5297  -14.5015 O   0  0  0  0  0  0  0  0  0  0  0  0
   -6.4458   -6.5785  -14.7011 C   0  0  0  0  0  0  0  0  0  0  0  0
   -7.7442   -7.0824  -15.0370 O   0  0  0  0  0  0  0  0  0  0  0  0
   -8.6845   -7.0089  -13.9572 C   0  0  0  0  0  0  0  0  0  0  0  0
   -8.1844   -7.8384  -12.7442 C   0  0  0  0  0  0  0  0  0  0  0  0
   -8.9837   -7.6075  -11.5607 O   0  0  0  0  0  0  0  0  0  0  0  0
   -6.7129   -7.5444  -12.4193 C   0  0  0  0  0  0  0  0  0  0  0  0
   -6.2266   -8.5043  -11.4705 O   0  0  0  0  0  0  0  0  0  0  0  0
   -5.8190   -7.5092  -13.6619 C   0  0  0  0  0  0  0  0  0  0  0  0
   -4.4953   -7.0900  -13.3250 O   0  0  0  0  0  0  0  0  0  0  0  0
   -8.4959   -6.9827  -10.9899 H   0  0  0  0  0  0  0  0  0  0  0  0
   -6.2253   -9.3820  -11.8973 H   0  0  0  0  0  0  0  0  0  0  0  0
   -4.5445   -6.3942  -12.6454 H   0  0  0  0  0  0  0  0  0  0  0  0
   -4.4154   -5.7154  -15.7239 O   0  0  0  0  0  0  0  0  0  0  0  0
   -5.5746   -6.5155  -15.9654 C   0  0  0  0  0  0  0  0  0  0  0  0
   -3.9556   -5.6292  -16.5753 H   0  0  0  0  0  0  0  0  0  0  0  0
  -11.1122   -6.7693  -14.3494 C   0  0  0  0  0  0  0  0  0  0  0  0
  -11.6867   -6.8474  -12.9140 C   0  0  0  0  0  0  0  0  0  0  0  0
  -12.2826   -8.1305  -12.6684 O   0  0  0  0  0  0  0  0  0  0  0  0
  -12.7424   -5.7644  -12.6582 C   0  0  0  0  0  0  0  0  0  0  0  0
  -13.1428   -5.7663  -11.2825 O   0  0  0  0  0  0  0  0  0  0  0  0
  -12.2241   -4.3850  -13.0892 C   0  0  0  0  0  0  0  0  0  0  0  0
  -11.1864   -3.8867  -12.2497 O   0  0  0  0  0  0  0  0  0  0  0  0
  -11.8242   -4.4000  -14.4524 O   0  0  0  0  0  0  0  0  0  0  0  0
  -10.7575   -5.3090  -14.7293 C   0  0  0  0  0  0  0  0  0  0  0  0
  -12.8687   -8.3280  -13.4260 H   0  0  0  0  0  0  0  0  0  0  0  0
  -12.3623   -5.5680  -10.7367 H   0  0  0  0  0  0  0  0  0  0  0  0
  -10.5458   -4.5839  -12.0701 H   0  0  0  0  0  0  0  0  0  0  0  0
  -10.4212   -5.1988  -16.2316 C   0  0  0  0  0  0  0  0  0  0  0  0
  -10.6906   -6.3876  -16.9668 O   0  0  0  0  0  0  0  0  0  0  0  0
  -11.3657   -6.9035  -16.4801 H   0  0  0  0  0  0  0  0  0  0  0  0
 14 15  1  0
 14 16  1  0
  2  3  1  0
  2  9  1  0
  2 15  1  0
  3  4  1  0
  4  5  1  0
  4  1  1  0
  1 17  1  0
 17 18  1  0
 17 25  1  0
 18 19  1  0
 18 20  1  0
 19 26  1  0
 20 21  1  0
 20 22  1  0
 21 27  1  0
 22 23  1  0
 22 24  1  0
 23 28  1  0
 24 25  1  0
 25 29  1  0
 29 30  1  0
 30 31  1  0
  5  6  1  0
  5  7  1  0
  6 11  1  0
  7  8  1  0
  7  9  1  0
  8 12  1  0
  9 10  1  0
 10 13  1  0
M  END
> <minimizedAffinity>
-5.20222

> <CNNscore>
0.8369286656

> <CNNaffinity>
2.7140560150

> <CNN_VS>
2.2714712620

> <CNNaffinity_variance>
0.9265422821

$$$$



 31 32  0  0  0  0  0  0  0  0999 V2000
   -8.8940   -8.5922  -13.1653 O   0  0  0  0  0  0  0  0  0  0  0  0
   -9.5450  -10.5921  -10.2529 C   0  0  0  0  0  0  0  0  0  0  0  0
   -9.0688  -10.1602  -11.5333 O   0  0  0  0  0  0  0  0  0  0  0  0
   -9.4888   -8.8349  -11.8837 C   0  0  0  0  0  0  0  0  0  0  0  0
  -11.0380   -8.7513  -11.9327 C   0  0  0  0  0  0  0  0  0  0  0  0
  -11.5055   -7.3878  -12.0558 O   0  0  0  0  0  0  0  0  0  0  0  0
  -11.6838   -9.3919  -10.6957 C   0  0  0  0  0  0  0  0  0  0  0  0
  -13.0979   -9.5193  -10.9005 O   0  0  0  0  0  0  0  0  0  0  0  0
  -11.0651  -10.7431  -10.3271 C   0  0  0  0  0  0  0  0  0  0  0  0
  -11.5970  -11.2266   -9.0923 O   0  0  0  0  0  0  0  0  0  0  0  0
  -11.7873   -7.0891  -11.1695 H   0  0  0  0  0  0  0  0  0  0  0  0
  -13.2454  -10.1553  -11.6260 H   0  0  0  0  0  0  0  0  0  0  0  0
  -11.7195  -10.4770   -8.4828 H   0  0  0  0  0  0  0  0  0  0  0  0
   -7.7163  -11.7010   -9.0953 O   0  0  0  0  0  0  0  0  0  0  0  0
   -8.8865  -11.9304   -9.8829 C   0  0  0  0  0  0  0  0  0  0  0  0
   -7.2897  -12.5653   -8.9740 H   0  0  0  0  0  0  0  0  0  0  0  0
   -7.9658   -7.5063  -13.3050 C   0  0  0  0  0  0  0  0  0  0  0  0
   -6.4972   -7.9494  -13.0974 C   0  0  0  0  0  0  0  0  0  0  0  0
   -6.2282   -8.2018  -11.7096 O   0  0  0  0  0  0  0  0  0  0  0  0
   -5.5027   -6.8959  -13.6012 C   0  0  0  0  0  0  0  0  0  0  0  0
   -4.1619   -7.3966  -13.5350 O   0  0  0  0  0  0  0  0  0  0  0  0
   -5.8622   -6.4428  -15.0234 C   0  0  0  0  0  0  0  0  0  0  0  0
   -5.6383   -7.4484  -16.0074 O   0  0  0  0  0  0  0  0  0  0  0  0
   -7.1959   -5.9559  -15.0755 O   0  0  0  0  0  0  0  0  0  0  0  0
   -8.1790   -6.9326  -14.7292 C   0  0  0  0  0  0  0  0  0  0  0  0
   -6.5698   -7.4373  -11.2043 H   0  0  0  0  0  0  0  0  0  0  0  0
   -4.0985   -8.1777  -14.1113 H   0  0  0  0  0  0  0  0  0  0  0  0
   -5.9761   -8.2951  -15.6947 H   0  0  0  0  0  0  0  0  0  0  0  0
   -9.5673   -6.2692  -14.8517 C   0  0  0  0  0  0  0  0  0  0  0  0
  -10.3748   -6.8193  -15.8869 O   0  0  0  0  0  0  0  0  0  0  0  0
  -10.0621   -7.7291  -16.0698 H   0  0  0  0  0  0  0  0  0  0  0  0
 14 15  1  0
 14 16  1  0
  2  3  1  0
  2  9  1  0
  2 15  1  0
  3  4  1  0
  4  5  1  0
  4  1  1  0
  1 17  1  0
 17 18  1  0
 17 25  1  0
 18 19  1  0
 18 20  1  0
 19 26  1  0
 20 21  1  0
 20 22  1  0
 21 27  1  0
 22 23  1  0
 22 24  1  0
 23 28  1  0
 24 25  1  0
 25 29  1  0
 29 30  1  0
 30 31  1  0
  5  6  1  0
  5  7  1  0
  6 11  1  0
  7  8  1  0
  7  9  1  0
  8 12  1  0
  9 10  1  0
 10 13  1  0
M  END
> <minimizedAffinity>
-5.31617

> <CNNscore>
0.8324584961

> <CNNaffinity>
2.7861452103

> <CNN_VS>
2.3193502426

> <CNNaffinity_variance>
0.5489790440

$$$$



 31 32  0  0  0  0  0  0  0  0999 V2000
   -9.4621   -6.9901  -15.7567 O   0  0  0  0  0  0  0  0  0  0  0  0
   -7.3187   -7.9144  -13.0260 C   0  0  0  0  0  0  0  0  0  0  0  0
   -8.4266   -7.4086  -13.7806 O   0  0  0  0  0  0  0  0  0  0  0  0
   -8.2519   -7.5192  -15.1993 C   0  0  0  0  0  0  0  0  0  0  0  0
   -7.0005   -6.7226  -15.6561 C   0  0  0  0  0  0  0  0  0  0  0  0
   -6.6573   -6.9927  -17.0353 O   0  0  0  0  0  0  0  0  0  0  0  0
   -5.7814   -7.0171  -14.7703 C   0  0  0  0  0  0  0  0  0  0  0  0
   -4.7336   -6.0825  -15.0643 O   0  0  0  0  0  0  0  0  0  0  0  0
   -6.1102   -7.0107  -13.2748 C   0  0  0  0  0  0  0  0  0  0  0  0
   -4.9832   -7.4317  -12.5041 O   0  0  0  0  0  0  0  0  0  0  0  0
   -5.9178   -7.6309  -17.0380 H   0  0  0  0  0  0  0  0  0  0  0  0
   -5.0348   -5.1926  -14.7995 H   0  0  0  0  0  0  0  0  0  0  0  0
   -4.5226   -8.1473  -12.9775 H   0  0  0  0  0  0  0  0  0  0  0  0
   -6.9400   -8.9587  -10.8627 O   0  0  0  0  0  0  0  0  0  0  0  0
   -7.6793   -7.9353  -11.5323 C   0  0  0  0  0  0  0  0  0  0  0  0
   -7.2757   -8.9924   -9.9517 H   0  0  0  0  0  0  0  0  0  0  0  0
   -9.7094   -5.5791  -15.6649 C   0  0  0  0  0  0  0  0  0  0  0  0
   -9.7682   -4.8947  -17.0521 C   0  0  0  0  0  0  0  0  0  0  0  0
   -8.4565   -4.7822  -17.6254 O   0  0  0  0  0  0  0  0  0  0  0  0
  -10.3867   -3.4931  -16.9753 C   0  0  0  0  0  0  0  0  0  0  0  0
  -10.5659   -2.9490  -18.2886 O   0  0  0  0  0  0  0  0  0  0  0  0
  -11.7089   -3.5225  -16.1955 C   0  0  0  0  0  0  0  0  0  0  0  0
  -12.7574   -4.1903  -16.8914 O   0  0  0  0  0  0  0  0  0  0  0  0
  -11.5174   -4.0708  -14.8988 O   0  0  0  0  0  0  0  0  0  0  0  0
  -11.0529   -5.4216  -14.9080 C   0  0  0  0  0  0  0  0  0  0  0  0
   -7.8699   -4.4106  -16.9368 H   0  0  0  0  0  0  0  0  0  0  0  0
  -11.1767   -3.5266  -18.7780 H   0  0  0  0  0  0  0  0  0  0  0  0
  -12.4282   -5.0127  -17.2709 H   0  0  0  0  0  0  0  0  0  0  0  0
  -10.9144   -5.8832  -13.4417 C   0  0  0  0  0  0  0  0  0  0  0  0
  -11.2862   -4.8904  -12.4919 O   0  0  0  0  0  0  0  0  0  0  0  0
  -11.8960   -4.2606  -12.9283 H   0  0  0  0  0  0  0  0  0  0  0  0
 14 15  1  0
 14 16  1  0
  2  3  1  0
  2  9  1  0
  2 15  1  0
  3  4  1  0
  4  5  1  0
  4  1  1  0
  1 17  1  0
 17 18  1  0
 17 25  1  0
 18 19  1  0
 18 20  1  0
 19 26  1  0
 20 21  1  0
 20 22  1  0
 21 27  1  0
 22 23  1  0
 22 24  1  0
 23 28  1  0
 24 25  1  0
 25 29  1  0
 29 30  1  0
 30 31  1  0
  5  6  1  0
  5  7  1  0
  6 11  1  0
  7  8  1  0
  7  9  1  0
  8 12  1  0
  9 10  1  0
 10 13  1  0
M  END
> <minimizedAffinity>
-4.42488

> <CNNscore>
0.8311681747

> <CNNaffinity>
2.7884657383

> <CNN_VS>
2.3176839352

> <CNNaffinity_variance>
0.6860420108

$$$$



 31 32  0  0  0  0  0  0  0  0999 V2000
  -10.1291   -6.9495  -13.9250 O   0  0  0  0  0  0  0  0  0  0  0  0
   -6.5707   -7.4424  -13.8976 C   0  0  0  0  0  0  0  0  0  0  0  0
   -7.9121   -7.1559  -13.4835 O   0  0  0  0  0  0  0  0  0  0  0  0
   -8.8705   -7.2410  -14.5465 C   0  0  0  0  0  0  0  0  0  0  0  0
   -8.5253   -6.2286  -15.6712 C   0  0  0  0  0  0  0  0  0  0  0  0
   -9.3268   -6.4388  -16.8571 O   0  0  0  0  0  0  0  0  0  0  0  0
   -7.0396   -6.2859  -16.0548 C   0  0  0  0  0  0  0  0  0  0  0  0
   -6.7164   -5.1747  -16.9026 O   0  0  0  0  0  0  0  0  0  0  0  0
   -6.1074   -6.3314  -14.8410 C   0  0  0  0  0  0  0  0  0  0  0  0
   -4.7522   -6.5308  -15.2473 O   0  0  0  0  0  0  0  0  0  0  0  0
   -8.7805   -6.9285  -17.5020 H   0  0  0  0  0  0  0  0  0  0  0  0
   -6.8163   -4.3547  -16.3826 H   0  0  0  0  0  0  0  0  0  0  0  0
   -4.7323   -7.1513  -15.9976 H   0  0  0  0  0  0  0  0  0  0  0  0
   -6.2885   -8.2798  -11.6320 O   0  0  0  0  0  0  0  0  0  0  0  0
   -5.6566   -7.5206  -12.6648 C   0  0  0  0  0  0  0  0  0  0  0  0
   -5.7157   -8.2148  -10.8500 H   0  0  0  0  0  0  0  0  0  0  0  0
  -10.9273   -8.0356  -13.4315 C   0  0  0  0  0  0  0  0  0  0  0  0
  -10.6988   -8.3038  -11.9241 C   0  0  0  0  0  0  0  0  0  0  0  0
   -9.4285   -8.9351  -11.7015 O   0  0  0  0  0  0  0  0  0  0  0  0
  -11.7953   -9.1944  -11.3265 C   0  0  0  0  0  0  0  0  0  0  0  0
  -11.6405   -9.2993   -9.9060 O   0  0  0  0  0  0  0  0  0  0  0  0
  -13.1887   -8.6696  -11.7013 C   0  0  0  0  0  0  0  0  0  0  0  0
  -13.5206   -7.4442  -11.0548 O   0  0  0  0  0  0  0  0  0  0  0  0
  -13.3251   -8.5640  -13.1115 O   0  0  0  0  0  0  0  0  0  0  0  0
  -12.4030   -7.6533  -13.7123 C   0  0  0  0  0  0  0  0  0  0  0  0
   -9.3601   -9.6794  -12.3322 H   0  0  0  0  0  0  0  0  0  0  0  0
  -11.7263   -8.4093   -9.5226 H   0  0  0  0  0  0  0  0  0  0  0  0
  -12.7732   -6.8374  -11.0972 H   0  0  0  0  0  0  0  0  0  0  0  0
  -12.6845   -7.6287  -15.2297 C   0  0  0  0  0  0  0  0  0  0  0  0
  -12.1399   -6.4938  -15.8942 O   0  0  0  0  0  0  0  0  0  0  0  0
  -11.3956   -6.1514  -15.3577 H   0  0  0  0  0  0  0  0  0  0  0  0
 14 15  1  0
 14 16  1  0
  2  3  1  0
  2  9  1  0
  2 15  1  0
  3  4  1  0
  4  5  1  0
  4  1  1  0
  1 17  1  0
 17 18  1  0
 17 25  1  0
 18 19  1  0
 18 20  1  0
 19 26  1  0
 20 21  1  0
 20 22  1  0
 21 27  1  0
 22 23  1  0
 22 24  1  0
 23 28  1  0
 24 25  1  0
 25 29  1  0
 29 30  1  0
 30 31  1  0
  5  6  1  0
  5  7  1  0
  6 11  1  0
  7  8  1  0
  7  9  1  0
  8 12  1  0
  9 10  1  0
 10 13  1  0
M  END
> <minimizedAffinity>
-4.27836

> <CNNscore>
0.8200213909

> <CNNaffinity>
2.7978286743

> <CNN_VS>
2.2942793369

> <CNNaffinity_variance>
0.4448069036

$$$$
