


 31 32  0  0  0  0  0  0  0  0999 V2000
    0.6373   19.3305    0.4483 O   0  0  0  0  0  0  0  0  0  0  0  0
    1.6366   16.0107   -0.4932 C   0  0  0  0  0  0  0  0  0  0  0  0
    1.6757   17.3908   -0.1105 O   0  0  0  0  0  0  0  0  0  0  0  0
    0.3777   17.9793    0.0453 C   0  0  0  0  0  0  0  0  0  0  0  0
   -0.4141   17.9087   -1.2878 C   0  0  0  0  0  0  0  0  0  0  0  0
   -1.8019   18.2802   -1.1166 O   0  0  0  0  0  0  0  0  0  0  0  0
   -0.3447   16.5111   -1.9198 C   0  0  0  0  0  0  0  0  0  0  0  0
   -0.8662   16.5584   -3.2554 O   0  0  0  0  0  0  0  0  0  0  0  0
    1.0664   15.9168   -1.9092 C   0  0  0  0  0  0  0  0  0  0  0  0
    1.0528   14.5650   -2.3718 O   0  0  0  0  0  0  0  0  0  0  0  0
   -2.3267   17.4574   -1.0749 H   0  0  0  0  0  0  0  0  0  0  0  0
   -0.2731   17.1146   -3.7953 H   0  0  0  0  0  0  0  0  0  0  0  0
    0.2516   14.1224   -2.0394 H   0  0  0  0  0  0  0  0  0  0  0  0
    4.0038   16.4494   -0.1501 O   0  0  0  0  0  0  0  0  0  0  0  0
    3.0549   15.4213   -0.4416 C   0  0  0  0  0  0  0  0  0  0  0  0
    4.8835   16.0444   -0.2261 H   0  0  0  0  0  0  0  0  0  0  0  0
    0.1466   19.7819    1.7194 C   0  0  0  0  0  0  0  0  0  0  0  0
   -1.3580   19.4765    1.9180 C   0  0  0  0  0  0  0  0  0  0  0  0
   -2.1695   20.3533    1.1214 O   0  0  0  0  0  0  0  0  0  0  0  0
   -1.7843   19.6186    3.3845 C   0  0  0  0  0  0  0  0  0  0  0  0
   -3.1385   19.1847    3.5597 O   0  0  0  0  0  0  0  0  0  0  0  0
   -0.8262   18.8522    4.3076 C   0  0  0  0  0  0  0  0  0  0  0  0
   -0.9347   17.4373    4.1806 O   0  0  0  0  0  0  0  0  0  0  0  0
    0.5128   19.2874    4.1178 O   0  0  0  0  0  0  0  0  0  0  0  0
    1.0065   19.0704    2.7951 C   0  0  0  0  0  0  0  0  0  0  0  0
   -1.8458   21.2639    1.2712 H   0  0  0  0  0  0  0  0  0  0  0  0
   -3.1924   18.2448    3.3150 H   0  0  0  0  0  0  0  0  0  0  0  0
   -0.9709   17.1928    3.2491 H   0  0  0  0  0  0  0  0  0  0  0  0
    2.4666   19.5687    2.7484 C   0  0  0  0  0  0  0  0  0  0  0  0
    2.6611   20.6911    1.8948 O   0  0  0  0  0  0  0  0  0  0  0  0
    1.8043   21.1552    1.7976 H   0  0  0  0  0  0  0  0  0  0  0  0
 14 15  1  0
 14 16  1  0
  2  3  1  0
  2  9  1  0
  2 15  1  0
  3  4  1  0
  4  5  1  0
  4  1  1  0
  1 17  1  0
 17 18  1  0
 17 25  1  0
 18 19  1  0
 18 20  1  0
 19 26  1  0
 20 21  1  0
 20 22  1  0
 21 27  1  0
 22 23  1  0
 22 24  1  0
 23 28  1  0
 24 25  1  0
 25 29  1  0
 29 30  1  0
 30 31  1  0
  5  6  1  0
  5  7  1  0
  6 11  1  0
  7  8  1  0
  7  9  1  0
  8 12  1  0
  9 10  1  0
 10 13  1  0
M  END
> <minimizedAffinity>
-4.43423

> <CNNscore>
0.8881988525

> <CNNaffinity>
2.9145717621

> <CNN_VS>
2.5887193680

> <CNNaffinity_variance>
0.6893772483

$$$$



 31 32  0  0  0  0  0  0  0  0999 V2000
    0.7589   16.7015    0.0732 O   0  0  0  0  0  0  0  0  0  0  0  0
    1.5381   17.9830   -3.1912 C   0  0  0  0  0  0  0  0  0  0  0  0
    0.8924   17.7560   -1.9325 O   0  0  0  0  0  0  0  0  0  0  0  0
    1.5337   16.7543   -1.1319 C   0  0  0  0  0  0  0  0  0  0  0  0
    1.5502   15.3925   -1.8765 C   0  0  0  0  0  0  0  0  0  0  0  0
    2.3842   14.4173   -1.2084 O   0  0  0  0  0  0  0  0  0  0  0  0
    2.0219   15.5422   -3.3300 C   0  0  0  0  0  0  0  0  0  0  0  0
    1.7814   14.3215   -4.0441 O   0  0  0  0  0  0  0  0  0  0  0  0
    1.3770   16.7288   -4.0514 C   0  0  0  0  0  0  0  0  0  0  0  0
    1.9541   16.9126   -5.3455 O   0  0  0  0  0  0  0  0  0  0  0  0
    3.2370   14.3804   -1.6833 H   0  0  0  0  0  0  0  0  0  0  0  0
    0.8164   14.1852   -4.0996 H   0  0  0  0  0  0  0  0  0  0  0  0
    2.9101   16.7340   -5.2964 H   0  0  0  0  0  0  0  0  0  0  0  0
    1.4648   20.4073   -3.3681 O   0  0  0  0  0  0  0  0  0  0  0  0
    0.9030   19.1988   -3.8841 C   0  0  0  0  0  0  0  0  0  0  0  0
    0.9631   21.1381   -3.7655 H   0  0  0  0  0  0  0  0  0  0  0  0
    0.8159   17.8096    0.9838 C   0  0  0  0  0  0  0  0  0  0  0  0
   -0.5535   18.5116    1.1520 C   0  0  0  0  0  0  0  0  0  0  0  0
   -0.8793   19.2874   -0.0116 O   0  0  0  0  0  0  0  0  0  0  0  0
   -0.5784   19.4365    2.3753 C   0  0  0  0  0  0  0  0  0  0  0  0
   -1.8980   19.9515    2.5906 O   0  0  0  0  0  0  0  0  0  0  0  0
   -0.0508   18.7088    3.6200 C   0  0  0  0  0  0  0  0  0  0  0  0
   -0.9302   17.6922    4.0920 O   0  0  0  0  0  0  0  0  0  0  0  0
    1.2546   18.1975    3.3897 O   0  0  0  0  0  0  0  0  0  0  0  0
    1.3187   17.2374    2.3339 C   0  0  0  0  0  0  0  0  0  0  0  0
   -0.0929   19.8262   -0.2304 H   0  0  0  0  0  0  0  0  0  0  0  0
   -2.4945   19.2023    2.7612 H   0  0  0  0  0  0  0  0  0  0  0  0
   -1.2506   17.1650    3.3516 H   0  0  0  0  0  0  0  0  0  0  0  0
    2.7820   16.7607    2.2173 C   0  0  0  0  0  0  0  0  0  0  0  0
    3.6604   17.7387    1.6711 O   0  0  0  0  0  0  0  0  0  0  0  0
    3.2666   18.6228    1.8199 H   0  0  0  0  0  0  0  0  0  0  0  0
 14 15  1  0
 14 16  1  0
  2  3  1  0
  2  9  1  0
  2 15  1  0
  3  4  1  0
  4  5  1  0
  4  1  1  0
  1 17  1  0
 17 18  1  0
 17 25  1  0
 18 19  1  0
 18 20  1  0
 19 26  1  0
 20 21  1  0
 20 22  1  0
 21 27  1  0
 22 23  1  0
 22 24  1  0
 23 28  1  0
 24 25  1  0
 25 29  1  0
 29 30  1  0
 30 31  1  0
  5  6  1  0
  5  7  1  0
  6 11  1  0
  7  8  1  0
  7  9  1  0
  8 12  1  0
  9 10  1  0
 10 13  1  0
M  END
> <minimizedAffinity>
-4.94618

> <CNNscore>
0.8498667479

> <CNNaffinity>
3.4002211094

> <CNN_VS>
2.8897347450

> <CNNaffinity_variance>
0.6009965539

$$$$



 31 32  0  0  0  0  0  0  0  0999 V2000
    0.8682   15.9131   -3.2864 O   0  0  0  0  0  0  0  0  0  0  0  0
    4.3651   16.4993   -3.8644 C   0  0  0  0  0  0  0  0  0  0  0  0
    2.9864   16.6932   -3.5264 O   0  0  0  0  0  0  0  0  0  0  0  0
    2.1837   15.5175   -3.6965 C   0  0  0  0  0  0  0  0  0  0  0  0
    2.2181   15.0457   -5.1749 C   0  0  0  0  0  0  0  0  0  0  0  0
    1.6133   13.7425   -5.3443 O   0  0  0  0  0  0  0  0  0  0  0  0
    3.6495   15.0088   -5.7293 C   0  0  0  0  0  0  0  0  0  0  0  0
    3.6123   14.8174   -7.1505 O   0  0  0  0  0  0  0  0  0  0  0  0
    4.4646   16.2545   -5.3708 C   0  0  0  0  0  0  0  0  0  0  0  0
    5.8252   16.1079   -5.7814 O   0  0  0  0  0  0  0  0  0  0  0  0
    2.3339   13.0855   -5.4007 H   0  0  0  0  0  0  0  0  0  0  0  0
    3.2005   15.6049   -7.5541 H   0  0  0  0  0  0  0  0  0  0  0  0
    6.1060   15.1876   -5.6317 H   0  0  0  0  0  0  0  0  0  0  0  0
    5.6438   17.6130   -2.1215 O   0  0  0  0  0  0  0  0  0  0  0  0
    5.1735   17.7434   -3.4646 C   0  0  0  0  0  0  0  0  0  0  0  0
    6.0598   18.4598   -1.8897 H   0  0  0  0  0  0  0  0  0  0  0  0
    0.5518   15.9240   -1.8863 C   0  0  0  0  0  0  0  0  0  0  0  0
    1.7794   15.6091   -0.9973 C   0  0  0  0  0  0  0  0  0  0  0  0
    2.1191   14.2156   -1.0657 O   0  0  0  0  0  0  0  0  0  0  0  0
    1.5348   15.9781    0.4712 C   0  0  0  0  0  0  0  0  0  0  0  0
    2.7347   15.8175    1.2375 O   0  0  0  0  0  0  0  0  0  0  0  0
    0.9805   17.4050    0.5900 C   0  0  0  0  0  0  0  0  0  0  0  0
    1.9378   18.4088    0.2650 O   0  0  0  0  0  0  0  0  0  0  0  0
   -0.2043   17.5514   -0.1802 O   0  0  0  0  0  0  0  0  0  0  0  0
   -0.0119   17.3349   -1.5790 C   0  0  0  0  0  0  0  0  0  0  0  0
    1.2933   13.7089   -0.9322 H   0  0  0  0  0  0  0  0  0  0  0  0
    3.4093   16.4197    0.8789 H   0  0  0  0  0  0  0  0  0  0  0  0
    2.4110   18.1639   -0.5380 H   0  0  0  0  0  0  0  0  0  0  0  0
   -1.3698   17.5485   -2.2810 C   0  0  0  0  0  0  0  0  0  0  0  0
   -1.7662   16.4568   -3.1041 O   0  0  0  0  0  0  0  0  0  0  0  0
   -1.3095   15.6509   -2.7865 H   0  0  0  0  0  0  0  0  0  0  0  0
 14 15  1  0
 14 16  1  0
  2  3  1  0
  2  9  1  0
  2 15  1  0
  3  4  1  0
  4  5  1  0
  4  1  1  0
  1 17  1  0
 17 18  1  0
 17 25  1  0
 18 19  1  0
 18 20  1  0
 19 26  1  0
 20 21  1  0
 20 22  1  0
 21 27  1  0
 22 23  1  0
 22 24  1  0
 23 28  1  0
 24 25  1  0
 25 29  1  0
 29 30  1  0
 30 31  1  0
  5  6  1  0
  5  7  1  0
  6 11  1  0
  7  8  1  0
  7  9  1  0
  8 12  1  0
  9 10  1  0
 10 13  1  0
M  END
> <minimizedAffinity>
-5.98478

> <CNNscore>
0.8160744309

> <CNNaffinity>
2.8590629101

> <CNN_VS>
2.3332080841

> <CNNaffinity_variance>
0.7406007648

$$$$



 31 32  0  0  0  0  0  0  0  0999 V2000
   -1.3528   17.0652   -2.3032 O   0  0  0  0  0  0  0  0  0  0  0  0
    1.9839   15.8504   -2.8478 C   0  0  0  0  0  0  0  0  0  0  0  0
    0.5651   16.0293   -2.9366 O   0  0  0  0  0  0  0  0  0  0  0  0
    0.0560   17.0259   -2.0404 C   0  0  0  0  0  0  0  0  0  0  0  0
    0.3657   16.6418   -0.5687 C   0  0  0  0  0  0  0  0  0  0  0  0
    0.0753   17.7226    0.3482 O   0  0  0  0  0  0  0  0  0  0  0  0
    1.8281   16.2107   -0.3867 C   0  0  0  0  0  0  0  0  0  0  0  0
    2.0021   15.6292    0.9131 O   0  0  0  0  0  0  0  0  0  0  0  0
    2.3120   15.2528   -1.4788 C   0  0  0  0  0  0  0  0  0  0  0  0
    3.7118   14.9980   -1.3487 O   0  0  0  0  0  0  0  0  0  0  0  0
    0.9203   18.1603    0.5687 H   0  0  0  0  0  0  0  0  0  0  0  0
    1.4839   14.8028    0.9498 H   0  0  0  0  0  0  0  0  0  0  0  0
    4.1613   15.8184   -1.0780 H   0  0  0  0  0  0  0  0  0  0  0  0
    1.3502   14.5358   -4.7930 O   0  0  0  0  0  0  0  0  0  0  0  0
    2.4568   14.9163   -3.9727 C   0  0  0  0  0  0  0  0  0  0  0  0
    1.6851   13.8747   -5.4212 H   0  0  0  0  0  0  0  0  0  0  0  0
   -1.8300   17.8392   -3.4139 C   0  0  0  0  0  0  0  0  0  0  0  0
   -2.2296   16.9595   -4.6233 C   0  0  0  0  0  0  0  0  0  0  0  0
   -1.0670   16.4409   -5.2876 O   0  0  0  0  0  0  0  0  0  0  0  0
   -3.0679   17.7360   -5.6464 C   0  0  0  0  0  0  0  0  0  0  0  0
   -3.5477   16.8599   -6.6735 O   0  0  0  0  0  0  0  0  0  0  0  0
   -4.2228   18.4759   -4.9562 C   0  0  0  0  0  0  0  0  0  0  0  0
   -5.2324   17.6025   -4.4586 O   0  0  0  0  0  0  0  0  0  0  0  0
   -3.7331   19.3349   -3.9360 O   0  0  0  0  0  0  0  0  0  0  0  0
   -3.0425   18.6502   -2.8896 C   0  0  0  0  0  0  0  0  0  0  0  0
   -0.4543   17.1902   -5.4271 H   0  0  0  0  0  0  0  0  0  0  0  0
   -4.1155   16.1867   -6.2604 H   0  0  0  0  0  0  0  0  0  0  0  0
   -4.8263   16.8562   -4.0037 H   0  0  0  0  0  0  0  0  0  0  0  0
   -2.5928   19.7022   -1.8536 C   0  0  0  0  0  0  0  0  0  0  0  0
   -3.3486   20.9077   -1.8973 O   0  0  0  0  0  0  0  0  0  0  0  0
   -4.2199   20.7097   -2.2978 H   0  0  0  0  0  0  0  0  0  0  0  0
 14 15  1  0
 14 16  1  0
  2  3  1  0
  2  9  1  0
  2 15  1  0
  3  4  1  0
  4  5  1  0
  4  1  1  0
  1 17  1  0
 17 18  1  0
 17 25  1  0
 18 19  1  0
 18 20  1  0
 19 26  1  0
 20 21  1  0
 20 22  1  0
 21 27  1  0
 22 23  1  0
 22 24  1  0
 23 28  1  0
 24 25  1  0
 25 29  1  0
 29 30  1  0
 30 31  1  0
  5  6  1  0
  5  7  1  0
  6 11  1  0
  7  8  1  0
  7  9  1  0
  8 12  1  0
  9 10  1  0
 10 13  1  0
M  END
> <minimizedAffinity>
-4.36118

> <CNNscore>
0.7690121531

> <CNNaffinity>
2.8530237675

> <CNN_VS>
2.1940100193

> <CNNaffinity_variance>
0.6558187008

$$$$



 31 32  0  0  0  0  0  0  0  0999 V2000
    2.2575   18.9675   -0.1594 O   0  0  0  0  0  0  0  0  0  0  0  0
    0.1363   19.7939    2.6198 C   0  0  0  0  0  0  0  0  0  0  0  0
    0.6780   19.1487    1.4608 O   0  0  0  0  0  0  0  0  0  0  0  0
    1.8723   19.7684    0.9656 C   0  0  0  0  0  0  0  0  0  0  0  0
    1.5939   21.2423    0.5662 C   0  0  0  0  0  0  0  0  0  0  0  0
    2.8124   21.9677    0.2799 O   0  0  0  0  0  0  0  0  0  0  0  0
    0.8103   21.9904    1.6542 C   0  0  0  0  0  0  0  0  0  0  0  0
    0.3594   23.2527    1.1432 O   0  0  0  0  0  0  0  0  0  0  0  0
   -0.3632   21.1809    2.2130 C   0  0  0  0  0  0  0  0  0  0  0  0
   -0.9675   21.8566    3.3174 O   0  0  0  0  0  0  0  0  0  0  0  0
    3.0298   22.5054    1.0658 H   0  0  0  0  0  0  0  0  0  0  0  0
   -0.2873   23.0811    0.4325 H   0  0  0  0  0  0  0  0  0  0  0  0
   -0.2722   22.2830    3.8493 H   0  0  0  0  0  0  0  0  0  0  0  0
   -0.5086   17.7280    3.7288 O   0  0  0  0  0  0  0  0  0  0  0  0
   -1.0153   18.9500    3.1882 C   0  0  0  0  0  0  0  0  0  0  0  0
   -1.2806   17.1957    3.9824 H   0  0  0  0  0  0  0  0  0  0  0  0
    2.2263   17.5378   -0.0364 C   0  0  0  0  0  0  0  0  0  0  0  0
    1.1842   16.8832   -0.9756 C   0  0  0  0  0  0  0  0  0  0  0  0
   -0.1508   17.1062   -0.4963 O   0  0  0  0  0  0  0  0  0  0  0  0
    1.4048   15.3715   -1.1134 C   0  0  0  0  0  0  0  0  0  0  0  0
    0.5246   14.8221   -2.1015 O   0  0  0  0  0  0  0  0  0  0  0  0
    2.8734   15.0619   -1.4366 C   0  0  0  0  0  0  0  0  0  0  0  0
    3.2570   15.4630   -2.7488 O   0  0  0  0  0  0  0  0  0  0  0  0
    3.7344   15.6186   -0.4531 O   0  0  0  0  0  0  0  0  0  0  0  0
    3.6586   17.0421   -0.3612 C   0  0  0  0  0  0  0  0  0  0  0  0
   -0.1594   16.8787    0.4548 H   0  0  0  0  0  0  0  0  0  0  0  0
    0.7261   15.2400   -2.9565 H   0  0  0  0  0  0  0  0  0  0  0  0
    2.9214   16.3474   -2.9333 H   0  0  0  0  0  0  0  0  0  0  0  0
    4.6569   17.4990    0.7237 C   0  0  0  0  0  0  0  0  0  0  0  0
    5.4723   16.4478    1.2300 O   0  0  0  0  0  0  0  0  0  0  0  0
    5.5123   15.7383    0.5563 H   0  0  0  0  0  0  0  0  0  0  0  0
 14 15  1  0
 14 16  1  0
  2  3  1  0
  2  9  1  0
  2 15  1  0
  3  4  1  0
  4  5  1  0
  4  1  1  0
  1 17  1  0
 17 18  1  0
 17 25  1  0
 18 19  1  0
 18 20  1  0
 19 26  1  0
 20 21  1  0
 20 22  1  0
 21 27  1  0
 22 23  1  0
 22 24  1  0
 23 28  1  0
 24 25  1  0
 25 29  1  0
 29 30  1  0
 30 31  1  0
  5  6  1  0
  5  7  1  0
  6 11  1  0
  7  8  1  0
  7  9  1  0
  8 12  1  0
  9 10  1  0
 10 13  1  0
M  END
> <minimizedAffinity>
-4.41849

> <CNNscore>
0.7017342448

> <CNNaffinity>
3.5854094028

> <CNN_VS>
2.5160045624

> <CNNaffinity_variance>
0.2244860381

$$$$



 31 32  0  0  0  0  0  0  0  0999 V2000
    2.1590   16.6450   -3.0709 O   0  0  0  0  0  0  0  0  0  0  0  0
    0.0582   17.6493   -0.3353 C   0  0  0  0  0  0  0  0  0  0  0  0
    0.8246   17.6676   -1.5457 O   0  0  0  0  0  0  0  0  0  0  0  0
    1.4814   16.4245   -1.8269 C   0  0  0  0  0  0  0  0  0  0  0  0
    2.4641   16.0585   -0.6826 C   0  0  0  0  0  0  0  0  0  0  0  0
    2.9734   14.7107   -0.8132 O   0  0  0  0  0  0  0  0  0  0  0  0
    1.8148   16.2161    0.6999 C   0  0  0  0  0  0  0  0  0  0  0  0
    2.8191   16.1164    1.7194 O   0  0  0  0  0  0  0  0  0  0  0  0
    1.0211   17.5174    0.8456 C   0  0  0  0  0  0  0  0  0  0  0  0
    0.3195   17.5490    2.0899 O   0  0  0  0  0  0  0  0  0  0  0  0
    2.4708   14.1422   -0.1981 H   0  0  0  0  0  0  0  0  0  0  0  0
    3.4218   16.8789    1.6300 H   0  0  0  0  0  0  0  0  0  0  0  0
   -0.0175   16.6572    2.2886 H   0  0  0  0  0  0  0  0  0  0  0  0
   -0.0645   19.8966    0.5858 O   0  0  0  0  0  0  0  0  0  0  0  0
   -0.7594   18.9456   -0.2236 C   0  0  0  0  0  0  0  0  0  0  0  0
   -0.6641   20.6519    0.7029 H   0  0  0  0  0  0  0  0  0  0  0  0
    1.8432   15.8053   -4.1914 C   0  0  0  0  0  0  0  0  0  0  0  0
    0.7264   16.3999   -5.0833 C   0  0  0  0  0  0  0  0  0  0  0  0
   -0.5548   16.2892   -4.4444 O   0  0  0  0  0  0  0  0  0  0  0  0
    0.6502   15.7045   -6.4484 C   0  0  0  0  0  0  0  0  0  0  0  0
   -0.2856   16.3731   -7.3027 O   0  0  0  0  0  0  0  0  0  0  0  0
    2.0397   15.6206   -7.0960 C   0  0  0  0  0  0  0  0  0  0  0  0
    2.5404   16.8857   -7.5186 O   0  0  0  0  0  0  0  0  0  0  0  0
    2.9583   14.9621   -6.2351 O   0  0  0  0  0  0  0  0  0  0  0  0
    3.1607   15.6313   -4.9894 C   0  0  0  0  0  0  0  0  0  0  0  0
   -0.6411   15.3688   -4.1252 H   0  0  0  0  0  0  0  0  0  0  0  0
    0.0239   17.2850   -7.4407 H   0  0  0  0  0  0  0  0  0  0  0  0
    2.3918   17.5443   -6.8309 H   0  0  0  0  0  0  0  0  0  0  0  0
    4.1907   14.8172   -4.1778 C   0  0  0  0  0  0  0  0  0  0  0  0
    4.3517   13.4793   -4.6365 O   0  0  0  0  0  0  0  0  0  0  0  0
    4.0752   13.4408   -5.5751 H   0  0  0  0  0  0  0  0  0  0  0  0
 14 15  1  0
 14 16  1  0
  2  3  1  0
  2  9  1  0
  2 15  1  0
  3  4  1  0
  4  5  1  0
  4  1  1  0
  1 17  1  0
 17 18  1  0
 17 25  1  0
 18 19  1  0
 18 20  1  0
 19 26  1  0
 20 21  1  0
 20 22  1  0
 21 27  1  0
 22 23  1  0
 22 24  1  0
 23 28  1  0
 24 25  1  0
 25 29  1  0
 29 30  1  0
 30 31  1  0
  5  6  1  0
  5  7  1  0
  6 11  1  0
  7  8  1  0
  7  9  1  0
  8 12  1  0
  9 10  1  0
 10 13  1  0
M  END
> <minimizedAffinity>
-5.38918

> <CNNscore>
0.6738077998

> <CNNaffinity>
2.8659183979

> <CNN_VS>
1.9310781956

> <CNNaffinity_variance>
0.5813382268

$$$$



 31 32  0  0  0  0  0  0  0  0999 V2000
    0.5798   15.7413   -3.2464 O   0  0  0  0  0  0  0  0  0  0  0  0
    2.2502   18.0865   -5.3948 C   0  0  0  0  0  0  0  0  0  0  0  0
    1.2321   17.3780   -4.6777 O   0  0  0  0  0  0  0  0  0  0  0  0
    1.7364   16.2903   -3.8914 C   0  0  0  0  0  0  0  0  0  0  0  0
    2.4496   15.2506   -4.7969 C   0  0  0  0  0  0  0  0  0  0  0  0
    3.1679   14.2596   -4.0257 O   0  0  0  0  0  0  0  0  0  0  0  0
    3.4209   15.9202   -5.7796 C   0  0  0  0  0  0  0  0  0  0  0  0
    3.8592   14.9626   -6.7537 O   0  0  0  0  0  0  0  0  0  0  0  0
    2.8276   17.1558   -6.4622 C   0  0  0  0  0  0  0  0  0  0  0  0
    3.8136   17.8240   -7.2514 O   0  0  0  0  0  0  0  0  0  0  0  0
    4.1126   14.5081   -4.0288 H   0  0  0  0  0  0  0  0  0  0  0  0
    3.0886   14.7003   -7.2923 H   0  0  0  0  0  0  0  0  0  0  0  0
    4.6689   17.7921   -6.7868 H   0  0  0  0  0  0  0  0  0  0  0  0
    2.6600   20.3276   -6.2450 O   0  0  0  0  0  0  0  0  0  0  0  0
    1.6453   19.3419   -6.0424 C   0  0  0  0  0  0  0  0  0  0  0  0
    2.2099   21.1279   -6.5623 H   0  0  0  0  0  0  0  0  0  0  0  0
    0.4364   15.8994   -1.8269 C   0  0  0  0  0  0  0  0  0  0  0  0
    1.7721   15.7035   -1.0693 C   0  0  0  0  0  0  0  0  0  0  0  0
    2.1425   14.3167   -1.0314 O   0  0  0  0  0  0  0  0  0  0  0  0
    1.6976   16.2260    0.3708 C   0  0  0  0  0  0  0  0  0  0  0  0
    2.9863   16.1698    0.9944 O   0  0  0  0  0  0  0  0  0  0  0  0
    1.1196   17.6480    0.4058 C   0  0  0  0  0  0  0  0  0  0  0  0
    1.9996   18.6262   -0.1404 O   0  0  0  0  0  0  0  0  0  0  0  0
   -0.1542   17.6900   -0.2220 O   0  0  0  0  0  0  0  0  0  0  0  0
   -0.1276   17.3258   -1.6030 C   0  0  0  0  0  0  0  0  0  0  0  0
    1.3547   13.8139   -0.7432 H   0  0  0  0  0  0  0  0  0  0  0  0
    3.5938   16.7405    0.4928 H   0  0  0  0  0  0  0  0  0  0  0  0
    2.3784   18.3033   -0.9656 H   0  0  0  0  0  0  0  0  0  0  0  0
   -1.5667   17.4391   -2.1491 C   0  0  0  0  0  0  0  0  0  0  0  0
   -1.8515   16.5273   -3.2044 O   0  0  0  0  0  0  0  0  0  0  0  0
   -1.2327   15.7717   -3.1331 H   0  0  0  0  0  0  0  0  0  0  0  0
 14 15  1  0
 14 16  1  0
  2  3  1  0
  2  9  1  0
  2 15  1  0
  3  4  1  0
  4  5  1  0
  4  1  1  0
  1 17  1  0
 17 18  1  0
 17 25  1  0
 18 19  1  0
 18 20  1  0
 19 26  1  0
 20 21  1  0
 20 22  1  0
 21 27  1  0
 22 23  1  0
 22 24  1  0
 23 28  1  0
 24 25  1  0
 25 29  1  0
 29 30  1  0
 30 31  1  0
  5  6  1  0
  5  7  1  0
  6 11  1  0
  7  8  1  0
  7  9  1  0
  8 12  1  0
  9 10  1  0
 10 13  1  0
M  END
> <minimizedAffinity>
-5.10159

> <CNNscore>
0.6425807476

> <CNNaffinity>
2.7731826305

> <CNN_VS>
1.7819937468

> <CNNaffinity_variance>
0.5733772516

$$$$



 31 32  0  0  0  0  0  0  0  0999 V2000
    2.5043   17.4035   -2.1940 O   0  0  0  0  0  0  0  0  0  0  0  0
    0.3047   18.1681    0.5416 C   0  0  0  0  0  0  0  0  0  0  0  0
    1.1545   18.3002   -0.6044 O   0  0  0  0  0  0  0  0  0  0  0  0
    1.7233   17.0590   -1.0421 C   0  0  0  0  0  0  0  0  0  0  0  0
    2.5877   16.4309    0.0838 C   0  0  0  0  0  0  0  0  0  0  0  0
    2.9904   15.0774   -0.2306 O   0  0  0  0  0  0  0  0  0  0  0  0
    1.8567   16.4344    1.4341 C   0  0  0  0  0  0  0  0  0  0  0  0
    2.7736   16.0853    2.4806 O   0  0  0  0  0  0  0  0  0  0  0  0
    1.1663   17.7665    1.7396 C   0  0  0  0  0  0  0  0  0  0  0  0
    0.3827   17.6722    2.9307 O   0  0  0  0  0  0  0  0  0  0  0  0
    2.3994   14.4708    0.2560 H   0  0  0  0  0  0  0  0  0  0  0  0
    3.4430   16.7925    2.5487 H   0  0  0  0  0  0  0  0  0  0  0  0
   -0.0411   16.7961    2.9649 H   0  0  0  0  0  0  0  0  0  0  0  0
   -1.4935   19.3055    1.7190 O   0  0  0  0  0  0  0  0  0  0  0  0
   -0.4074   19.5029    0.8114 C   0  0  0  0  0  0  0  0  0  0  0  0
   -1.9642   20.1533    1.7769 H   0  0  0  0  0  0  0  0  0  0  0  0
    3.1176   16.3529   -2.9559 C   0  0  0  0  0  0  0  0  0  0  0  0
    2.0792   15.4353   -3.6459 C   0  0  0  0  0  0  0  0  0  0  0  0
    1.4379   14.5761   -2.6907 O   0  0  0  0  0  0  0  0  0  0  0  0
    2.7173   14.5620   -4.7334 C   0  0  0  0  0  0  0  0  0  0  0  0
    1.7116   13.8386   -5.4531 O   0  0  0  0  0  0  0  0  0  0  0  0
    3.5809   15.4107   -5.6774 C   0  0  0  0  0  0  0  0  0  0  0  0
    2.8174   16.2793   -6.5095 O   0  0  0  0  0  0  0  0  0  0  0  0
    4.5684   16.1274   -4.9497 O   0  0  0  0  0  0  0  0  0  0  0  0
    4.0285   17.0478   -3.9999 C   0  0  0  0  0  0  0  0  0  0  0  0
    2.1422   14.1711   -2.1462 H   0  0  0  0  0  0  0  0  0  0  0  0
    1.1219   14.4815   -5.8837 H   0  0  0  0  0  0  0  0  0  0  0  0
    2.1364   16.7189   -5.9882 H   0  0  0  0  0  0  0  0  0  0  0  0
    5.2102   17.7611   -3.3092 C   0  0  0  0  0  0  0  0  0  0  0  0
    5.3522   17.4302   -1.9321 O   0  0  0  0  0  0  0  0  0  0  0  0
    4.9294   16.5601   -1.7800 H   0  0  0  0  0  0  0  0  0  0  0  0
 14 15  1  0
 14 16  1  0
  2  3  1  0
  2  9  1  0
  2 15  1  0
  3  4  1  0
  4  5  1  0
  4  1  1  0
  1 17  1  0
 17 18  1  0
 17 25  1  0
 18 19  1  0
 18 20  1  0
 19 26  1  0
 20 21  1  0
 20 22  1  0
 21 27  1  0
 22 23  1  0
 22 24  1  0
 23 28  1  0
 24 25  1  0
 25 29  1  0
 29 30  1  0
 30 31  1  0
  5  6  1  0
  5  7  1  0
  6 11  1  0
  7  8  1  0
  7  9  1  0
  8 12  1  0
  9 10  1  0
 10 13  1  0
M  END
> <minimizedAffinity>
-5.39559

> <CNNscore>
0.6201792359

> <CNNaffinity>
2.8393008709

> <CNN_VS>
1.7608754635

> <CNNaffinity_variance>
0.5598343015

$$$$



 31 32  0  0  0  0  0  0  0  0999 V2000
   -0.3241   17.2600   -0.6011 O   0  0  0  0  0  0  0  0  0  0  0  0
   -0.7342   20.3639   -2.3628 C   0  0  0  0  0  0  0  0  0  0  0  0
   -0.5855   19.3992   -1.3140 O   0  0  0  0  0  0  0  0  0  0  0  0
   -0.4912   18.0489   -1.7865 C   0  0  0  0  0  0  0  0  0  0  0  0
   -1.7709   17.6582   -2.5733 C   0  0  0  0  0  0  0  0  0  0  0  0
   -1.6230   16.3928   -3.2587 O   0  0  0  0  0  0  0  0  0  0  0  0
   -2.1656   18.7363   -3.5929 C   0  0  0  0  0  0  0  0  0  0  0  0
   -3.4749   18.4573   -4.1084 O   0  0  0  0  0  0  0  0  0  0  0  0
   -2.0982   20.1556   -3.0225 C   0  0  0  0  0  0  0  0  0  0  0  0
   -2.3310   21.1265   -4.0446 O   0  0  0  0  0  0  0  0  0  0  0  0
   -1.4309   16.5838   -4.1972 H   0  0  0  0  0  0  0  0  0  0  0  0
   -4.1162   18.5470   -3.3781 H   0  0  0  0  0  0  0  0  0  0  0  0
   -1.9071   20.8291   -4.8693 H   0  0  0  0  0  0  0  0  0  0  0  0
   -0.0740   21.7291   -0.4617 O   0  0  0  0  0  0  0  0  0  0  0  0
   -0.6274   21.7811   -1.7783 C   0  0  0  0  0  0  0  0  0  0  0  0
   -0.1201   22.6317   -0.1056 H   0  0  0  0  0  0  0  0  0  0  0  0
    0.9053   16.5438   -0.4118 C   0  0  0  0  0  0  0  0  0  0  0  0
    1.3695   15.8109   -1.6939 C   0  0  0  0  0  0  0  0  0  0  0  0
    0.5571   14.6543   -1.9470 O   0  0  0  0  0  0  0  0  0  0  0  0
    2.8343   15.3652   -1.6023 C   0  0  0  0  0  0  0  0  0  0  0  0
    3.2766   14.8280   -2.8547 O   0  0  0  0  0  0  0  0  0  0  0  0
    3.7294   16.5247   -1.1422 C   0  0  0  0  0  0  0  0  0  0  0  0
    3.8698   17.5495   -2.1219 O   0  0  0  0  0  0  0  0  0  0  0  0
    3.2749   17.0518    0.0964 O   0  0  0  0  0  0  0  0  0  0  0  0
    1.9536   17.5918    0.0418 C   0  0  0  0  0  0  0  0  0  0  0  0
    0.4964   14.1536   -1.1092 H   0  0  0  0  0  0  0  0  0  0  0  0
    3.2111   15.5275   -3.5276 H   0  0  0  0  0  0  0  0  0  0  0  0
    3.0108   17.7557   -2.5071 H   0  0  0  0  0  0  0  0  0  0  0  0
    1.6098   18.1413    1.4426 C   0  0  0  0  0  0  0  0  0  0  0  0
    0.5910   17.4058    2.1114 O   0  0  0  0  0  0  0  0  0  0  0  0
    0.5674   16.5019    1.7355 H   0  0  0  0  0  0  0  0  0  0  0  0
 14 15  1  0
 14 16  1  0
  2  3  1  0
  2  9  1  0
  2 15  1  0
  3  4  1  0
  4  5  1  0
  4  1  1  0
  1 17  1  0
 17 18  1  0
 17 25  1  0
 18 19  1  0
 18 20  1  0
 19 26  1  0
 20 21  1  0
 20 22  1  0
 21 27  1  0
 22 23  1  0
 22 24  1  0
 23 28  1  0
 24 25  1  0
 25 29  1  0
 29 30  1  0
 30 31  1  0
  5  6  1  0
  5  7  1  0
  6 11  1  0
  7  8  1  0
  7  9  1  0
  8 12  1  0
  9 10  1  0
 10 13  1  0
M  END
> <minimizedAffinity>
-4.29567

> <CNNscore>
0.5670479536

> <CNNaffinity>
3.0685789585

> <CNN_VS>
1.7400313616

> <CNNaffinity_variance>
0.4421013296

$$$$



 31 32  0  0  0  0  0  0  0  0999 V2000
    1.2753   17.1352   -0.7587 O   0  0  0  0  0  0  0  0  0  0  0  0
    3.7653   17.9939    1.6842 C   0  0  0  0  0  0  0  0  0  0  0  0
    2.9988   17.2727    0.7121 O   0  0  0  0  0  0  0  0  0  0  0  0
    1.8816   18.0114    0.2004 C   0  0  0  0  0  0  0  0  0  0  0  0
    0.9065   18.3860    1.3486 C   0  0  0  0  0  0  0  0  0  0  0  0
   -0.1090   19.3214    0.9164 O   0  0  0  0  0  0  0  0  0  0  0  0
    1.6473   18.9751    2.5575 C   0  0  0  0  0  0  0  0  0  0  0  0
    0.7521   19.0674    3.6746 O   0  0  0  0  0  0  0  0  0  0  0  0
    2.9048   18.1865    2.9338 C   0  0  0  0  0  0  0  0  0  0  0  0
    3.6343   18.8537    3.9654 O   0  0  0  0  0  0  0  0  0  0  0  0
    0.1590   20.2111    1.2178 H   0  0  0  0  0  0  0  0  0  0  0  0
    0.5028   18.1624    3.9419 H   0  0  0  0  0  0  0  0  0  0  0  0
    3.5955   19.8147    3.8127 H   0  0  0  0  0  0  0  0  0  0  0  0
    5.3623   16.3107    0.9562 O   0  0  0  0  0  0  0  0  0  0  0  0
    5.0406   17.2060    2.0226 C   0  0  0  0  0  0  0  0  0  0  0  0
    6.1118   15.7734    1.2617 H   0  0  0  0  0  0  0  0  0  0  0  0
    1.8969   16.9753   -2.0426 C   0  0  0  0  0  0  0  0  0  0  0  0
    1.8619   15.5103   -2.5415 C   0  0  0  0  0  0  0  0  0  0  0  0
    2.7987   14.6985   -1.8167 O   0  0  0  0  0  0  0  0  0  0  0  0
    2.1835   15.4051   -4.0375 C   0  0  0  0  0  0  0  0  0  0  0  0
    1.9954   14.0622   -4.5000 O   0  0  0  0  0  0  0  0  0  0  0  0
    1.3405   16.4002   -4.8478 C   0  0  0  0  0  0  0  0  0  0  0  0
   -0.0421   16.0596   -4.8931 O   0  0  0  0  0  0  0  0  0  0  0  0
    1.5314   17.7259   -4.3738 O   0  0  0  0  0  0  0  0  0  0  0  0
    1.1358   17.9134   -3.0140 C   0  0  0  0  0  0  0  0  0  0  0  0
    3.6515   15.1772   -1.8081 H   0  0  0  0  0  0  0  0  0  0  0  0
    1.0617   13.8221   -4.3700 H   0  0  0  0  0  0  0  0  0  0  0  0
   -0.3470   15.8059   -4.0148 H   0  0  0  0  0  0  0  0  0  0  0  0
    1.3793   19.3938   -2.6513 C   0  0  0  0  0  0  0  0  0  0  0  0
    0.9989   20.3041   -3.6773 O   0  0  0  0  0  0  0  0  0  0  0  0
    0.3299   19.8671   -4.2434 H   0  0  0  0  0  0  0  0  0  0  0  0
 14 15  1  0
 14 16  1  0
  2  3  1  0
  2  9  1  0
  2 15  1  0
  3  4  1  0
  4  5  1  0
  4  1  1  0
  1 17  1  0
 17 18  1  0
 17 25  1  0
 18 19  1  0
 18 20  1  0
 19 26  1  0
 20 21  1  0
 20 22  1  0
 21 27  1  0
 22 23  1  0
 22 24  1  0
 23 28  1  0
 24 25  1  0
 25 29  1  0
 29 30  1  0
 30 31  1  0
  5  6  1  0
  5  7  1  0
  6 11  1  0
  7  8  1  0
  7  9  1  0
  8 12  1  0
  9 10  1  0
 10 13  1  0
M  END
> <minimizedAffinity>
-4.46044

> <CNNscore>
0.5572056174

> <CNNaffinity>
3.3016707897

> <CNN_VS>
1.8397095203

> <CNNaffinity_variance>
0.4562654197

$$$$



 31 32  0  0  0  0  0  0  0  0999 V2000
    2.0300   17.6798   -3.8034 O   0  0  0  0  0  0  0  0  0  0  0  0
    2.0344   17.1934   -0.2440 C   0  0  0  0  0  0  0  0  0  0  0  0
    2.1710   16.9685   -1.6524 O   0  0  0  0  0  0  0  0  0  0  0  0
    1.7985   18.0987   -2.4520 C   0  0  0  0  0  0  0  0  0  0  0  0
    0.3133   18.4746   -2.2026 C   0  0  0  0  0  0  0  0  0  0  0  0
   -0.0372   19.7397   -2.8106 O   0  0  0  0  0  0  0  0  0  0  0  0
   -0.0175   18.5309   -0.7043 C   0  0  0  0  0  0  0  0  0  0  0  0
   -1.4377   18.6282   -0.5265 O   0  0  0  0  0  0  0  0  0  0  0  0
    0.5474   17.3437    0.0805 C   0  0  0  0  0  0  0  0  0  0  0  0
    0.3398   17.5159    1.4836 O   0  0  0  0  0  0  0  0  0  0  0  0
   -0.0289   20.4191   -2.1088 H   0  0  0  0  0  0  0  0  0  0  0  0
   -1.8432   17.8007   -0.8484 H   0  0  0  0  0  0  0  0  0  0  0  0
    0.4658   18.4543    1.7116 H   0  0  0  0  0  0  0  0  0  0  0  0
    2.7921   14.8847   -0.3396 O   0  0  0  0  0  0  0  0  0  0  0  0
    2.6390   16.0101    0.5278 C   0  0  0  0  0  0  0  0  0  0  0  0
    3.0827   14.1432    0.2168 H   0  0  0  0  0  0  0  0  0  0  0  0
    2.9677   16.6216   -4.0508 C   0  0  0  0  0  0  0  0  0  0  0  0
    2.2737   15.2791   -4.3864 C   0  0  0  0  0  0  0  0  0  0  0  0
    1.6909   14.6944   -3.2115 O   0  0  0  0  0  0  0  0  0  0  0  0
    3.2483   14.2665   -5.0006 C   0  0  0  0  0  0  0  0  0  0  0  0
    2.5486   13.0952   -5.4379 O   0  0  0  0  0  0  0  0  0  0  0  0
    4.0459   14.9038   -6.1474 C   0  0  0  0  0  0  0  0  0  0  0  0
    3.2535   15.1768   -7.2995 O   0  0  0  0  0  0  0  0  0  0  0  0
    4.7282   16.0673   -5.7013 O   0  0  0  0  0  0  0  0  0  0  0  0
    3.8598   17.0970   -5.2259 C   0  0  0  0  0  0  0  0  0  0  0  0
    2.3713   14.7150   -2.5093 H   0  0  0  0  0  0  0  0  0  0  0  0
    1.9094   13.3587   -6.1222 H   0  0  0  0  0  0  0  0  0  0  0  0
    2.4203   15.5833   -7.0365 H   0  0  0  0  0  0  0  0  0  0  0  0
    4.7358   18.2945   -4.8004 C   0  0  0  0  0  0  0  0  0  0  0  0
    5.0917   18.2819   -3.4222 O   0  0  0  0  0  0  0  0  0  0  0  0
    5.0376   17.3590   -3.0994 H   0  0  0  0  0  0  0  0  0  0  0  0
 14 15  1  0
 14 16  1  0
  2  3  1  0
  2  9  1  0
  2 15  1  0
  3  4  1  0
  4  5  1  0
  4  1  1  0
  1 17  1  0
 17 18  1  0
 17 25  1  0
 18 19  1  0
 18 20  1  0
 19 26  1  0
 20 21  1  0
 20 22  1  0
 21 27  1  0
 22 23  1  0
 22 24  1  0
 23 28  1  0
 24 25  1  0
 25 29  1  0
 29 30  1  0
 30 31  1  0
  5  6  1  0
  5  7  1  0
  6 11  1  0
  7  8  1  0
  7  9  1  0
  8 12  1  0
  9 10  1  0
 10 13  1  0
M  END
> <minimizedAffinity>
-4.78354

> <CNNscore>
0.5548567176

> <CNNaffinity>
3.5464251041

> <CNN_VS>
1.9677578211

> <CNNaffinity_variance>
0.0837440714

$$$$



 31 32  0  0  0  0  0  0  0  0999 V2000
    0.5721   15.4205   -2.3083 O   0  0  0  0  0  0  0  0  0  0  0  0
    1.5656   15.8918   -5.7284 C   0  0  0  0  0  0  0  0  0  0  0  0
    0.7892   15.5965   -4.5610 O   0  0  0  0  0  0  0  0  0  0  0  0
    1.5225   15.7297   -3.3362 C   0  0  0  0  0  0  0  0  0  0  0  0
    2.7355   14.7613   -3.3215 C   0  0  0  0  0  0  0  0  0  0  0  0
    3.6275   15.0235   -2.2132 O   0  0  0  0  0  0  0  0  0  0  0  0
    3.5333   14.8256   -4.6318 C   0  0  0  0  0  0  0  0  0  0  0  0
    4.4788   13.7475   -4.6751 O   0  0  0  0  0  0  0  0  0  0  0  0
    2.6434   14.8170   -5.8778 C   0  0  0  0  0  0  0  0  0  0  0  0
    3.4196   15.0249   -7.0592 O   0  0  0  0  0  0  0  0  0  0  0  0
    4.3852   15.5357   -2.5563 H   0  0  0  0  0  0  0  0  0  0  0  0
    3.9828   12.9079   -4.7170 H   0  0  0  0  0  0  0  0  0  0  0  0
    4.1197   15.6749   -6.8703 H   0  0  0  0  0  0  0  0  0  0  0  0
   -0.6871   15.5802   -6.5897 O   0  0  0  0  0  0  0  0  0  0  0  0
    0.6510   15.9152   -6.9631 C   0  0  0  0  0  0  0  0  0  0  0  0
   -1.1968   15.5142   -7.4141 H   0  0  0  0  0  0  0  0  0  0  0  0
    0.3321   16.3848   -1.2725 C   0  0  0  0  0  0  0  0  0  0  0  0
    1.6151   16.7399   -0.4824 C   0  0  0  0  0  0  0  0  0  0  0  0
    1.9926   15.6665    0.3934 O   0  0  0  0  0  0  0  0  0  0  0  0
    1.4396   18.0123    0.3560 C   0  0  0  0  0  0  0  0  0  0  0  0
    2.6837   18.3976    0.9531 O   0  0  0  0  0  0  0  0  0  0  0  0
    0.8498   19.1476   -0.4928 C   0  0  0  0  0  0  0  0  0  0  0  0
    1.7572   19.6488   -1.4701 O   0  0  0  0  0  0  0  0  0  0  0  0
   -0.3791   18.7491   -1.0840 O   0  0  0  0  0  0  0  0  0  0  0  0
   -0.2565   17.6367   -1.9718 C   0  0  0  0  0  0  0  0  0  0  0  0
    1.1910   15.3979    0.8851 H   0  0  0  0  0  0  0  0  0  0  0  0
    3.3193   18.5856    0.2410 H   0  0  0  0  0  0  0  0  0  0  0  0
    2.1933   18.9164   -1.9197 H   0  0  0  0  0  0  0  0  0  0  0  0
   -1.6563   17.3362   -2.5484 C   0  0  0  0  0  0  0  0  0  0  0  0
   -1.6261   16.6635   -3.8025 O   0  0  0  0  0  0  0  0  0  0  0  0
   -0.7687   16.1969   -3.8803 H   0  0  0  0  0  0  0  0  0  0  0  0
 14 15  1  0
 14 16  1  0
  2  3  1  0
  2  9  1  0
  2 15  1  0
  3  4  1  0
  4  5  1  0
  4  1  1  0
  1 17  1  0
 17 18  1  0
 17 25  1  0
 18 19  1  0
 18 20  1  0
 19 26  1  0
 20 21  1  0
 20 22  1  0
 21 27  1  0
 22 23  1  0
 22 24  1  0
 23 28  1  0
 24 25  1  0
 25 29  1  0
 29 30  1  0
 30 31  1  0
  5  6  1  0
  5  7  1  0
  6 11  1  0
  7  8  1  0
  7  9  1  0
  8 12  1  0
  9 10  1  0
 10 13  1  0
M  END
> <minimizedAffinity>
-5.30225

> <CNNscore>
0.5475850701

> <CNNaffinity>
2.6785316467

> <CNN_VS>
1.4667239189

> <CNNaffinity_variance>
0.8533741832

$$$$



 31 32  0  0  0  0  0  0  0  0999 V2000
    2.9846   17.4278   -1.3758 O   0  0  0  0  0  0  0  0  0  0  0  0
   -0.0758   19.2092   -1.9811 C   0  0  0  0  0  0  0  0  0  0  0  0
    1.3086   18.8403   -1.9662 O   0  0  0  0  0  0  0  0  0  0  0  0
    1.5706   17.6268   -1.2489 C   0  0  0  0  0  0  0  0  0  0  0  0
    1.1304   17.7662    0.2330 C   0  0  0  0  0  0  0  0  0  0  0  0
    1.1638   16.4998    0.9318 O   0  0  0  0  0  0  0  0  0  0  0  0
   -0.2764   18.3687    0.3565 C   0  0  0  0  0  0  0  0  0  0  0  0
   -0.5364   18.7121    1.7249 O   0  0  0  0  0  0  0  0  0  0  0  0
   -0.4940   19.5781   -0.5570 C   0  0  0  0  0  0  0  0  0  0  0  0
   -1.8552   20.0101   -0.5141 O   0  0  0  0  0  0  0  0  0  0  0  0
    0.2491   16.1596    0.9742 H   0  0  0  0  0  0  0  0  0  0  0  0
    0.0739   19.4294    1.9811 H   0  0  0  0  0  0  0  0  0  0  0  0
   -2.4358   19.2299   -0.4630 H   0  0  0  0  0  0  0  0  0  0  0  0
   -1.6195   20.4032   -3.4318 O   0  0  0  0  0  0  0  0  0  0  0  0
   -0.2814   20.4002   -2.9303 C   0  0  0  0  0  0  0  0  0  0  0  0
   -1.6654   21.1113   -4.0954 H   0  0  0  0  0  0  0  0  0  0  0  0
    3.4694   16.5004   -2.3583 C   0  0  0  0  0  0  0  0  0  0  0  0
    2.3462   15.6047   -2.9351 C   0  0  0  0  0  0  0  0  0  0  0  0
    1.9375   14.6141   -1.9794 O   0  0  0  0  0  0  0  0  0  0  0  0
    2.7845   14.8893   -4.2191 C   0  0  0  0  0  0  0  0  0  0  0  0
    1.6808   14.1914   -4.8087 O   0  0  0  0  0  0  0  0  0  0  0  0
    3.4136   15.8808   -5.2083 C   0  0  0  0  0  0  0  0  0  0  0  0
    2.4706   16.7889   -5.7705 O   0  0  0  0  0  0  0  0  0  0  0  0
    4.5012   16.5703   -4.6081 O   0  0  0  0  0  0  0  0  0  0  0  0
    4.1301   17.3525   -3.4719 C   0  0  0  0  0  0  0  0  0  0  0  0
    2.7494   14.1936   -1.6323 H   0  0  0  0  0  0  0  0  0  0  0  0
    0.9957   14.8424   -5.0396 H   0  0  0  0  0  0  0  0  0  0  0  0
    1.8924   17.1316   -5.0799 H   0  0  0  0  0  0  0  0  0  0  0  0
    5.4007   18.0534   -2.9459 C   0  0  0  0  0  0  0  0  0  0  0  0
    6.5754   17.2552   -3.0412 O   0  0  0  0  0  0  0  0  0  0  0  0
    6.4359   16.5857   -3.7421 H   0  0  0  0  0  0  0  0  0  0  0  0
 14 15  1  0
 14 16  1  0
  2  3  1  0
  2  9  1  0
  2 15  1  0
  3  4  1  0
  4  5  1  0
  4  1  1  0
  1 17  1  0
 17 18  1  0
 17 25  1  0
 18 19  1  0
 18 20  1  0
 19 26  1  0
 20 21  1  0
 20 22  1  0
 21 27  1  0
 22 23  1  0
 22 24  1  0
 23 28  1  0
 24 25  1  0
 25 29  1  0
 29 30  1  0
 30 31  1  0
  5  6  1  0
  5  7  1  0
  6 11  1  0
  7  8  1  0
  7  9  1  0
  8 12  1  0
  9 10  1  0
 10 13  1  0
M  END
> <minimizedAffinity>
-4.24673

> <CNNscore>
0.5094642639

> <CNNaffinity>
3.4542438984

> <CNN_VS>
1.7598137856

> <CNNaffinity_variance>
0.5233573914

$$$$



 31 32  0  0  0  0  0  0  0  0999 V2000
    1.3067   16.6060   -0.1651 O   0  0  0  0  0  0  0  0  0  0  0  0
    0.9334   17.8271   -3.5229 C   0  0  0  0  0  0  0  0  0  0  0  0
    0.6929   17.5431   -2.1394 O   0  0  0  0  0  0  0  0  0  0  0  0
    1.7209   16.7510   -1.5299 C   0  0  0  0  0  0  0  0  0  0  0  0
    1.8505   15.3821   -2.2501 C   0  0  0  0  0  0  0  0  0  0  0  0
    3.0207   14.6491   -1.8186 O   0  0  0  0  0  0  0  0  0  0  0  0
    1.8951   15.5420   -3.7766 C   0  0  0  0  0  0  0  0  0  0  0  0
    1.7590   14.2577   -4.4010 O   0  0  0  0  0  0  0  0  0  0  0  0
    0.8426   16.5184   -4.3090 C   0  0  0  0  0  0  0  0  0  0  0  0
    1.0192   16.7435   -5.7089 O   0  0  0  0  0  0  0  0  0  0  0  0
    3.7124   14.7667   -2.4982 H   0  0  0  0  0  0  0  0  0  0  0  0
    0.8662   13.9155   -4.2042 H   0  0  0  0  0  0  0  0  0  0  0  0
    1.9717   16.7763   -5.9088 H   0  0  0  0  0  0  0  0  0  0  0  0
    0.4102   19.5578   -5.1492 O   0  0  0  0  0  0  0  0  0  0  0  0
   -0.1090   18.8358   -4.0306 C   0  0  0  0  0  0  0  0  0  0  0  0
   -0.2444   20.2422   -5.3656 H   0  0  0  0  0  0  0  0  0  0  0  0
    2.1196   17.1770    0.8710 C   0  0  0  0  0  0  0  0  0  0  0  0
    3.5983   17.3417    0.4434 C   0  0  0  0  0  0  0  0  0  0  0  0
    4.2671   16.0716    0.4077 O   0  0  0  0  0  0  0  0  0  0  0  0
    4.3697   18.2707    1.3892 C   0  0  0  0  0  0  0  0  0  0  0  0
    5.6867   18.5226    0.8845 O   0  0  0  0  0  0  0  0  0  0  0  0
    3.5979   19.5779    1.6190 C   0  0  0  0  0  0  0  0  0  0  0  0
    3.5571   20.4166    0.4680 O   0  0  0  0  0  0  0  0  0  0  0  0
    2.2922   19.3126    2.1123 O   0  0  0  0  0  0  0  0  0  0  0  0
    1.4834   18.5475    1.2173 C   0  0  0  0  0  0  0  0  0  0  0  0
    4.0636   15.6130    1.2472 H   0  0  0  0  0  0  0  0  0  0  0  0
    5.6041   18.9643    0.0217 H   0  0  0  0  0  0  0  0  0  0  0  0
    3.3517   19.8918   -0.3137 H   0  0  0  0  0  0  0  0  0  0  0  0
    0.0995   18.3599    1.8746 C   0  0  0  0  0  0  0  0  0  0  0  0
    0.1473   17.6803    3.1244 O   0  0  0  0  0  0  0  0  0  0  0  0
    1.0444   17.7917    3.5007 H   0  0  0  0  0  0  0  0  0  0  0  0
 14 15  1  0
 14 16  1  0
  2  3  1  0
  2  9  1  0
  2 15  1  0
  3  4  1  0
  4  5  1  0
  4  1  1  0
  1 17  1  0
 17 18  1  0
 17 25  1  0
 18 19  1  0
 18 20  1  0
 19 26  1  0
 20 21  1  0
 20 22  1  0
 21 27  1  0
 22 23  1  0
 22 24  1  0
 23 28  1  0
 24 25  1  0
 25 29  1  0
 29 30  1  0
 30 31  1  0
  5  6  1  0
  5  7  1  0
  6 11  1  0
  7  8  1  0
  7  9  1  0
  8 12  1  0
  9 10  1  0
 10 13  1  0
M  END
> <minimizedAffinity>
-4.59435

> <CNNscore>
0.4916956425

> <CNNaffinity>
3.2835788727

> <CNN_VS>
1.6145213842

> <CNNaffinity_variance>
0.6810548902

$$$$



 31 32  0  0  0  0  0  0  0  0999 V2000
    0.9323   15.2666   -2.4818 O   0  0  0  0  0  0  0  0  0  0  0  0
   -0.2015   18.1837   -0.7179 C   0  0  0  0  0  0  0  0  0  0  0  0
    0.2820   16.8667   -1.0088 O   0  0  0  0  0  0  0  0  0  0  0  0
    0.4207   16.6040   -2.4115 C   0  0  0  0  0  0  0  0  0  0  0  0
   -0.9489   16.7446   -3.1282 C   0  0  0  0  0  0  0  0  0  0  0  0
   -0.8148   16.7142   -4.5684 O   0  0  0  0  0  0  0  0  0  0  0  0
   -1.6770   18.0335   -2.7207 C   0  0  0  0  0  0  0  0  0  0  0  0
   -3.0280   17.9978   -3.2018 O   0  0  0  0  0  0  0  0  0  0  0  0
   -1.6451   18.2896   -1.2115 C   0  0  0  0  0  0  0  0  0  0  0  0
   -2.2050   19.5667   -0.9000 O   0  0  0  0  0  0  0  0  0  0  0  0
   -0.8570   17.6355   -4.8903 H   0  0  0  0  0  0  0  0  0  0  0  0
   -3.4985   17.2792   -2.7381 H   0  0  0  0  0  0  0  0  0  0  0  0
   -1.9426   20.2057   -1.5864 H   0  0  0  0  0  0  0  0  0  0  0  0
   -0.0061   19.8368    1.0548 O   0  0  0  0  0  0  0  0  0  0  0  0
   -0.1281   18.4367    0.7961 C   0  0  0  0  0  0  0  0  0  0  0  0
    0.1341   19.9309    2.0115 H   0  0  0  0  0  0  0  0  0  0  0  0
    2.2449   15.0534   -3.0222 C   0  0  0  0  0  0  0  0  0  0  0  0
    2.2798   15.1780   -4.5648 C   0  0  0  0  0  0  0  0  0  0  0  0
    1.6719   14.0352   -5.1863 O   0  0  0  0  0  0  0  0  0  0  0  0
    3.7114   15.3167   -5.0976 C   0  0  0  0  0  0  0  0  0  0  0  0
    3.7015   15.5811   -6.5057 O   0  0  0  0  0  0  0  0  0  0  0  0
    4.4767   16.4031   -4.3286 C   0  0  0  0  0  0  0  0  0  0  0  0
    4.0090   17.7208   -4.6023 O   0  0  0  0  0  0  0  0  0  0  0  0
    4.4721   16.1318   -2.9340 O   0  0  0  0  0  0  0  0  0  0  0  0
    3.1657   16.1079   -2.3567 C   0  0  0  0  0  0  0  0  0  0  0  0
    2.0531   13.2391   -4.7652 H   0  0  0  0  0  0  0  0  0  0  0  0
    3.2364   16.4223   -6.6554 H   0  0  0  0  0  0  0  0  0  0  0  0
    3.0456   17.7374   -4.5865 H   0  0  0  0  0  0  0  0  0  0  0  0
    3.3216   15.8261   -0.8472 C   0  0  0  0  0  0  0  0  0  0  0  0
    2.6272   14.6639   -0.4075 O   0  0  0  0  0  0  0  0  0  0  0  0
    2.5002   14.0722   -1.1774 H   0  0  0  0  0  0  0  0  0  0  0  0
 14 15  1  0
 14 16  1  0
  2  3  1  0
  2  9  1  0
  2 15  1  0
  3  4  1  0
  4  5  1  0
  4  1  1  0
  1 17  1  0
 17 18  1  0
 17 25  1  0
 18 19  1  0
 18 20  1  0
 19 26  1  0
 20 21  1  0
 20 22  1  0
 21 27  1  0
 22 23  1  0
 22 24  1  0
 23 28  1  0
 24 25  1  0
 25 29  1  0
 29 30  1  0
 30 31  1  0
  5  6  1  0
  5  7  1  0
  6 11  1  0
  7  8  1  0
  7  9  1  0
  8 12  1  0
  9 10  1  0
 10 13  1  0
M  END
> <minimizedAffinity>
-4.96407

> <CNNscore>
0.3476967216

> <CNNaffinity>
2.4703013897

> <CNN_VS>
0.8589156866

> <CNNaffinity_variance>
0.9494359493

$$$$



 31 32  0  0  0  0  0  0  0  0999 V2000
   -0.2531   16.6176   -3.7042 O   0  0  0  0  0  0  0  0  0  0  0  0
    2.4625   15.0161   -5.4264 C   0  0  0  0  0  0  0  0  0  0  0  0
    1.2600   15.2344   -4.6787 O   0  0  0  0  0  0  0  0  0  0  0  0
    0.9835   16.6189   -4.4294 C   0  0  0  0  0  0  0  0  0  0  0  0
    2.1373   17.2652   -3.6167 C   0  0  0  0  0  0  0  0  0  0  0  0
    2.0097   18.7044   -3.5412 O   0  0  0  0  0  0  0  0  0  0  0  0
    3.5133   16.9149   -4.2010 C   0  0  0  0  0  0  0  0  0  0  0  0
    4.5428   17.3144   -3.2853 O   0  0  0  0  0  0  0  0  0  0  0  0
    3.6529   15.4334   -4.5616 C   0  0  0  0  0  0  0  0  0  0  0  0
    4.8901   15.1874   -5.2327 O   0  0  0  0  0  0  0  0  0  0  0  0
    2.6188   19.0916   -4.1994 H   0  0  0  0  0  0  0  0  0  0  0  0
    4.4607   16.7721   -2.4779 H   0  0  0  0  0  0  0  0  0  0  0  0
    5.0839   15.9336   -5.8276 H   0  0  0  0  0  0  0  0  0  0  0  0
    3.3187   13.3896   -7.0186 O   0  0  0  0  0  0  0  0  0  0  0  0
    2.5679   13.5320   -5.8110 C   0  0  0  0  0  0  0  0  0  0  0  0
    3.2708   12.4514   -7.2659 H   0  0  0  0  0  0  0  0  0  0  0  0
   -0.2225   16.4362   -2.2806 C   0  0  0  0  0  0  0  0  0  0  0  0
    1.0765   15.7466   -1.7973 C   0  0  0  0  0  0  0  0  0  0  0  0
    1.0701   14.3495   -2.1286 O   0  0  0  0  0  0  0  0  0  0  0  0
    1.2712   15.8858   -0.2823 C   0  0  0  0  0  0  0  0  0  0  0  0
    2.5499   15.3725    0.1105 O   0  0  0  0  0  0  0  0  0  0  0  0
    1.0939   17.3458    0.1585 C   0  0  0  0  0  0  0  0  0  0  0  0
    2.1482   18.1976   -0.2804 O   0  0  0  0  0  0  0  0  0  0  0  0
   -0.1746   17.8435   -0.2438 O   0  0  0  0  0  0  0  0  0  0  0  0
   -0.3682   17.8488   -1.6591 C   0  0  0  0  0  0  0  0  0  0  0  0
    0.2067   13.9881   -1.8451 H   0  0  0  0  0  0  0  0  0  0  0  0
    3.2390   15.8942   -0.3358 H   0  0  0  0  0  0  0  0  0  0  0  0
    2.3533   18.0172   -1.2046 H   0  0  0  0  0  0  0  0  0  0  0  0
   -1.7695   18.4310   -1.9417 C   0  0  0  0  0  0  0  0  0  0  0  0
   -2.5796   17.5984   -2.7643 O   0  0  0  0  0  0  0  0  0  0  0  0
   -2.2531   16.6785   -2.6865 H   0  0  0  0  0  0  0  0  0  0  0  0
 14 15  1  0
 14 16  1  0
  2  3  1  0
  2  9  1  0
  2 15  1  0
  3  4  1  0
  4  5  1  0
  4  1  1  0
  1 17  1  0
 17 18  1  0
 17 25  1  0
 18 19  1  0
 18 20  1  0
 19 26  1  0
 20 21  1  0
 20 22  1  0
 21 27  1  0
 22 23  1  0
 22 24  1  0
 23 28  1  0
 24 25  1  0
 25 29  1  0
 29 30  1  0
 30 31  1  0
  5  6  1  0
  5  7  1  0
  6 11  1  0
  7  8  1  0
  7  9  1  0
  8 12  1  0
  9 10  1  0
 10 13  1  0
M  END
> <minimizedAffinity>
-5.98887

> <CNNscore>
0.3436880112

> <CNNaffinity>
2.3251640797

> <CNN_VS>
0.7991310358

> <CNNaffinity_variance>
1.3962402344

$$$$



 31 32  0  0  0  0  0  0  0  0999 V2000
    0.4469   15.6974   -2.6532 O   0  0  0  0  0  0  0  0  0  0  0  0
    0.7162   17.7093    0.3109 C   0  0  0  0  0  0  0  0  0  0  0  0
    0.4734   17.2923   -1.0382 O   0  0  0  0  0  0  0  0  0  0  0  0
    0.7791   15.9117   -1.2751 C   0  0  0  0  0  0  0  0  0  0  0  0
    2.2774   15.6296   -0.9841 C   0  0  0  0  0  0  0  0  0  0  0  0
    2.5752   14.2138   -0.9884 O   0  0  0  0  0  0  0  0  0  0  0  0
    2.7214   16.2300    0.3575 C   0  0  0  0  0  0  0  0  0  0  0  0
    4.1506   16.1682    0.4651 O   0  0  0  0  0  0  0  0  0  0  0  0
    2.2230   17.6623    0.5686 C   0  0  0  0  0  0  0  0  0  0  0  0
    2.5363   18.1215    1.8848 O   0  0  0  0  0  0  0  0  0  0  0  0
    2.6176   13.9162   -0.0590 H   0  0  0  0  0  0  0  0  0  0  0  0
    4.5337   16.7516   -0.2171 H   0  0  0  0  0  0  0  0  0  0  0  0
    2.4242   17.3866    2.5139 H   0  0  0  0  0  0  0  0  0  0  0  0
   -0.9950   19.1034    1.3317 O   0  0  0  0  0  0  0  0  0  0  0  0
    0.1772   19.1338    0.5148 C   0  0  0  0  0  0  0  0  0  0  0  0
   -1.3463   20.0090    1.3466 H   0  0  0  0  0  0  0  0  0  0  0  0
    1.3063   16.2404   -3.6666 C   0  0  0  0  0  0  0  0  0  0  0  0
    2.0988   15.1464   -4.4224 C   0  0  0  0  0  0  0  0  0  0  0  0
    3.1495   14.6135   -3.6015 O   0  0  0  0  0  0  0  0  0  0  0  0
    2.7191   15.6795   -5.7200 C   0  0  0  0  0  0  0  0  0  0  0  0
    3.3145   14.6130   -6.4690 O   0  0  0  0  0  0  0  0  0  0  0  0
    1.6742   16.4347   -6.5538 C   0  0  0  0  0  0  0  0  0  0  0  0
    0.6806   15.5825   -7.1161 O   0  0  0  0  0  0  0  0  0  0  0  0
    1.0875   17.4839   -5.7965 O   0  0  0  0  0  0  0  0  0  0  0  0
    0.3909   17.0342   -4.6334 C   0  0  0  0  0  0  0  0  0  0  0  0
    3.6335   15.3732   -3.2206 H   0  0  0  0  0  0  0  0  0  0  0  0
    2.6167   13.9766   -6.7022 H   0  0  0  0  0  0  0  0  0  0  0  0
    0.3739   14.9535   -6.4534 H   0  0  0  0  0  0  0  0  0  0  0  0
   -0.2057   18.2728   -3.9318 C   0  0  0  0  0  0  0  0  0  0  0  0
    0.7320   18.9836   -3.1308 O   0  0  0  0  0  0  0  0  0  0  0  0
    1.6319   18.7850   -3.4620 H   0  0  0  0  0  0  0  0  0  0  0  0
 14 15  1  0
 14 16  1  0
  2  3  1  0
  2  9  1  0
  2 15  1  0
  3  4  1  0
  4  5  1  0
  4  1  1  0
  1 17  1  0
 17 18  1  0
 17 25  1  0
 18 19  1  0
 18 20  1  0
 19 26  1  0
 20 21  1  0
 20 22  1  0
 21 27  1  0
 22 23  1  0
 22 24  1  0
 23 28  1  0
 24 25  1  0
 25 29  1  0
 29 30  1  0
 30 31  1  0
  5  6  1  0
  5  7  1  0
  6 11  1  0
  7  8  1  0
  7  9  1  0
  8 12  1  0
  9 10  1  0
 10 13  1  0
M  END
> <minimizedAffinity>
-5.19655

> <CNNscore>
0.3378182650

> <CNNaffinity>
2.4830739498

> <CNN_VS>
0.8388277292

> <CNNaffinity_variance>
0.8172853589

$$$$



 31 32  0  0  0  0  0  0  0  0999 V2000
    1.1081   16.1862   -2.4985 O   0  0  0  0  0  0  0  0  0  0  0  0
    0.5941   16.1080   -6.0531 C   0  0  0  0  0  0  0  0  0  0  0  0
    0.3582   16.1209   -4.6400 O   0  0  0  0  0  0  0  0  0  0  0  0
    1.5599   16.1517   -3.8586 C   0  0  0  0  0  0  0  0  0  0  0  0
    2.4316   14.9018   -4.1536 C   0  0  0  0  0  0  0  0  0  0  0  0
    3.7486   15.0056   -3.5640 O   0  0  0  0  0  0  0  0  0  0  0  0
    2.5769   14.6499   -5.6613 C   0  0  0  0  0  0  0  0  0  0  0  0
    3.1662   13.3606   -5.8811 O   0  0  0  0  0  0  0  0  0  0  0  0
    1.2542   14.7785   -6.4218 C   0  0  0  0  0  0  0  0  0  0  0  0
    1.4659   14.6805   -7.8314 O   0  0  0  0  0  0  0  0  0  0  0  0
    4.3700   15.2710   -4.2695 H   0  0  0  0  0  0  0  0  0  0  0  0
    2.5404   12.6810   -5.5660 H   0  0  0  0  0  0  0  0  0  0  0  0
    2.2956   15.1355   -8.0615 H   0  0  0  0  0  0  0  0  0  0  0  0
   -1.7713   16.6467   -5.8841 O   0  0  0  0  0  0  0  0  0  0  0  0
   -0.7388   16.2748   -6.7995 C   0  0  0  0  0  0  0  0  0  0  0  0
   -2.6025   16.6424   -6.3869 H   0  0  0  0  0  0  0  0  0  0  0  0
    1.5373   17.2630   -1.6519 C   0  0  0  0  0  0  0  0  0  0  0  0
    0.4876   18.3965   -1.5539 C   0  0  0  0  0  0  0  0  0  0  0  0
    0.4456   19.1639   -2.7667 O   0  0  0  0  0  0  0  0  0  0  0  0
    0.7773   19.3482   -0.3864 C   0  0  0  0  0  0  0  0  0  0  0  0
   -0.2891   20.2922   -0.2296 O   0  0  0  0  0  0  0  0  0  0  0  0
    1.0255   18.5625    0.9091 C   0  0  0  0  0  0  0  0  0  0  0  0
   -0.1473   17.9351    1.4196 O   0  0  0  0  0  0  0  0  0  0  0  0
    2.0799   17.6260    0.7366 O   0  0  0  0  0  0  0  0  0  0  0  0
    1.8148   16.6382   -0.2607 C   0  0  0  0  0  0  0  0  0  0  0  0
    1.3683   19.3898   -2.9991 H   0  0  0  0  0  0  0  0  0  0  0  0
   -1.1047   19.8014   -0.0291 H   0  0  0  0  0  0  0  0  0  0  0  0
   -0.6270   17.5034    0.7038 H   0  0  0  0  0  0  0  0  0  0  0  0
    3.0294   15.6876   -0.3182 C   0  0  0  0  0  0  0  0  0  0  0  0
    2.7178   14.3907   -0.8154 O   0  0  0  0  0  0  0  0  0  0  0  0
    1.9085   14.4577   -1.3628 H   0  0  0  0  0  0  0  0  0  0  0  0
 14 15  1  0
 14 16  1  0
  2  3  1  0
  2  9  1  0
  2 15  1  0
  3  4  1  0
  4  5  1  0
  4  1  1  0
  1 17  1  0
 17 18  1  0
 17 25  1  0
 18 19  1  0
 18 20  1  0
 19 26  1  0
 20 21  1  0
 20 22  1  0
 21 27  1  0
 22 23  1  0
 22 24  1  0
 23 28  1  0
 24 25  1  0
 25 29  1  0
 29 30  1  0
 30 31  1  0
  5  6  1  0
  5  7  1  0
  6 11  1  0
  7  8  1  0
  7  9  1  0
  8 12  1  0
  9 10  1  0
 10 13  1  0
M  END
> <minimizedAffinity>
-5.04717

> <CNNscore>
0.3360814452

> <CNNaffinity>
2.8042297363

> <CNN_VS>
0.9424495697

> <CNNaffinity_variance>
0.3982973099

$$$$



 31 32  0  0  0  0  0  0  0  0999 V2000
    1.1924   16.8662   -3.2387 O   0  0  0  0  0  0  0  0  0  0  0  0
   -2.3840   16.9937   -3.5526 C   0  0  0  0  0  0  0  0  0  0  0  0
   -0.9862   16.9773   -3.8664 O   0  0  0  0  0  0  0  0  0  0  0  0
   -0.1405   16.8957   -2.7116 C   0  0  0  0  0  0  0  0  0  0  0  0
   -0.3740   18.1152   -1.7802 C   0  0  0  0  0  0  0  0  0  0  0  0
    0.2858   17.9580   -0.5023 O   0  0  0  0  0  0  0  0  0  0  0  0
   -1.8687   18.3744   -1.5428 C   0  0  0  0  0  0  0  0  0  0  0  0
   -2.0422   19.6430   -0.8959 O   0  0  0  0  0  0  0  0  0  0  0  0
   -2.7019   18.3010   -2.8253 C   0  0  0  0  0  0  0  0  0  0  0  0
   -4.0966   18.4032   -2.5327 O   0  0  0  0  0  0  0  0  0  0  0  0
   -0.3872   17.6760    0.1470 H   0  0  0  0  0  0  0  0  0  0  0  0
   -1.7547   20.3424   -1.5131 H   0  0  0  0  0  0  0  0  0  0  0  0
   -4.2857   17.9200   -1.7086 H   0  0  0  0  0  0  0  0  0  0  0  0
   -4.4762   16.2914   -4.5739 O   0  0  0  0  0  0  0  0  0  0  0  0
   -3.2041   16.8824   -4.8474 C   0  0  0  0  0  0  0  0  0  0  0  0
   -4.9095   16.1559   -5.4328 H   0  0  0  0  0  0  0  0  0  0  0  0
    1.7585   15.6046   -3.6237 C   0  0  0  0  0  0  0  0  0  0  0  0
    1.8744   15.4492   -5.1596 C   0  0  0  0  0  0  0  0  0  0  0  0
    0.5857   15.2248   -5.7518 O   0  0  0  0  0  0  0  0  0  0  0  0
    2.7978   14.2889   -5.5515 C   0  0  0  0  0  0  0  0  0  0  0  0
    3.0040   14.2660   -6.9691 O   0  0  0  0  0  0  0  0  0  0  0  0
    4.1300   14.3719   -4.7926 C   0  0  0  0  0  0  0  0  0  0  0  0
    4.9492   15.4595   -5.2119 O   0  0  0  0  0  0  0  0  0  0  0  0
    3.9098   14.4012   -3.3893 O   0  0  0  0  0  0  0  0  0  0  0  0
    3.1520   15.5293   -2.9490 C   0  0  0  0  0  0  0  0  0  0  0  0
    0.1477   14.5197   -5.2346 H   0  0  0  0  0  0  0  0  0  0  0  0
    3.4327   15.0996   -7.2292 H   0  0  0  0  0  0  0  0  0  0  0  0
    4.4168   16.2583   -5.2965 H   0  0  0  0  0  0  0  0  0  0  0  0
    3.0147   15.4361   -1.4145 C   0  0  0  0  0  0  0  0  0  0  0  0
    2.2457   14.3215   -0.9756 O   0  0  0  0  0  0  0  0  0  0  0  0
    2.2672   13.6383   -1.6767 H   0  0  0  0  0  0  0  0  0  0  0  0
 14 15  1  0
 14 16  1  0
  2  3  1  0
  2  9  1  0
  2 15  1  0
  3  4  1  0
  4  5  1  0
  4  1  1  0
  1 17  1  0
 17 18  1  0
 17 25  1  0
 18 19  1  0
 18 20  1  0
 19 26  1  0
 20 21  1  0
 20 22  1  0
 21 27  1  0
 22 23  1  0
 22 24  1  0
 23 28  1  0
 24 25  1  0
 25 29  1  0
 29 30  1  0
 30 31  1  0
  5  6  1  0
  5  7  1  0
  6 11  1  0
  7  8  1  0
  7  9  1  0
  8 12  1  0
  9 10  1  0
 10 13  1  0
M  END
> <minimizedAffinity>
-5.47404

> <CNNscore>
0.3289569020

> <CNNaffinity>
2.5604546070

> <CNN_VS>
0.8422791958

> <CNNaffinity_variance>
0.9361979961

$$$$



 31 32  0  0  0  0  0  0  0  0999 V2000
    1.7519   17.3052   -0.9418 O   0  0  0  0  0  0  0  0  0  0  0  0
    4.3295   16.4674   -3.2996 C   0  0  0  0  0  0  0  0  0  0  0  0
    3.4449   17.2087   -2.4508 O   0  0  0  0  0  0  0  0  0  0  0  0
    2.5118   16.3863   -1.7376 C   0  0  0  0  0  0  0  0  0  0  0  0
    1.6184   15.5937   -2.7289 C   0  0  0  0  0  0  0  0  0  0  0  0
    0.8243   14.5864   -2.0596 O   0  0  0  0  0  0  0  0  0  0  0  0
    2.4471   14.9241   -3.8346 C   0  0  0  0  0  0  0  0  0  0  0  0
    1.5740   14.4241   -4.8570 O   0  0  0  0  0  0  0  0  0  0  0  0
    3.5091   15.8505   -4.4334 C   0  0  0  0  0  0  0  0  0  0  0  0
    4.3454   15.1411   -5.3492 O   0  0  0  0  0  0  0  0  0  0  0  0
    1.2657   13.7249   -2.1903 H   0  0  0  0  0  0  0  0  0  0  0  0
    1.1393   15.1851   -5.2866 H   0  0  0  0  0  0  0  0  0  0  0  0
    4.5081   14.2452   -5.0039 H   0  0  0  0  0  0  0  0  0  0  0  0
    6.5477   17.4174   -2.9980 O   0  0  0  0  0  0  0  0  0  0  0  0
    5.4096   17.4046   -3.8622 C   0  0  0  0  0  0  0  0  0  0  0  0
    7.1524   18.0935   -3.3458 H   0  0  0  0  0  0  0  0  0  0  0  0
    2.4484   18.2141   -0.0763 C   0  0  0  0  0  0  0  0  0  0  0  0
    2.2397   19.6946   -0.4776 C   0  0  0  0  0  0  0  0  0  0  0  0
    2.9825   20.0148   -1.6639 O   0  0  0  0  0  0  0  0  0  0  0  0
    2.6663   20.6576    0.6375 C   0  0  0  0  0  0  0  0  0  0  0  0
    2.3216   22.0061    0.2976 O   0  0  0  0  0  0  0  0  0  0  0  0
    2.0500   20.2432    1.9813 C   0  0  0  0  0  0  0  0  0  0  0  0
    0.6409   20.4455    2.0399 O   0  0  0  0  0  0  0  0  0  0  0  0
    2.3939   18.9024    2.3016 O   0  0  0  0  0  0  0  0  0  0  0  0
    1.9179   17.9443    1.3550 C   0  0  0  0  0  0  0  0  0  0  0  0
    3.8928   19.6813   -1.5350 H   0  0  0  0  0  0  0  0  0  0  0  0
    1.3552   22.0594    0.2004 H   0  0  0  0  0  0  0  0  0  0  0  0
    0.2296   20.1296    1.2276 H   0  0  0  0  0  0  0  0  0  0  0  0
    2.3457   16.5444    1.8443 C   0  0  0  0  0  0  0  0  0  0  0  0
    3.6079   16.5294    2.5022 O   0  0  0  0  0  0  0  0  0  0  0  0
    3.7862   17.4290    2.8454 H   0  0  0  0  0  0  0  0  0  0  0  0
 14 15  1  0
 14 16  1  0
  2  3  1  0
  2  9  1  0
  2 15  1  0
  3  4  1  0
  4  5  1  0
  4  1  1  0
  1 17  1  0
 17 18  1  0
 17 25  1  0
 18 19  1  0
 18 20  1  0
 19 26  1  0
 20 21  1  0
 20 22  1  0
 21 27  1  0
 22 23  1  0
 22 24  1  0
 23 28  1  0
 24 25  1  0
 25 29  1  0
 29 30  1  0
 30 31  1  0
  5  6  1  0
  5  7  1  0
  6 11  1  0
  7  8  1  0
  7  9  1  0
  8 12  1  0
  9 10  1  0
 10 13  1  0
M  END
> <minimizedAffinity>
-4.34515

> <CNNscore>
0.3254894018

> <CNNaffinity>
3.3684892654

> <CNN_VS>
1.0964075327

> <CNNaffinity_variance>
0.6573999524

$$$$
