@<TRIPOS>MOLECULE
UDP-glaA
 43 45 0 0 0
SMALL
GASTEIGER

@<TRIPOS>ATOM
      1 P          22.9750   72.0277   -3.3192 P.3     1  UNL1        0.2189
      2 O          23.7537   72.9529   -4.3939 O.3     1  UNL1       -0.4371
      3 O          23.5555   70.6574   -3.1254 O.2     1  UNL1       -0.5170
      4 O          21.4341   72.0757   -3.8077 O.3     1  UNL1       -0.3112
      5 C          20.6144   70.9426   -3.5762 C.3     1  UNL1        0.1811
      6 O          18.7526   71.9699   -4.6954 O.3     1  UNL1       -0.3308
      7 O          17.0435   70.7972   -2.5286 O.3     1  UNL1       -0.3794
      8 O          16.6408   69.0738   -4.6031 O.3     1  UNL1       -0.3779
      9 C          18.2022   70.2522   -3.1595 C.3     1  UNL1        0.1713
     10 C          17.8649   69.7773   -4.5571 C.3     1  UNL1        0.1895
     11 C          19.1684   71.3966   -3.4362 C.3     1  UNL1        0.1764
     12 C          17.8173   71.0835   -5.3315 C.3     1  UNL1        0.2383
     13 H          17.3159   71.1229   -1.6538 H       1  UNL1        0.2105
     14 H          16.7164   68.3150   -3.9992 H       1  UNL1        0.2106
     15 O          16.0128   70.4540   -7.4107 O.2     1  UNL1       -0.2464
     16 O          19.3648   70.4745  -10.5733 O.2     1  UNL1       -0.2670
     17 N          18.1910   70.9190   -6.7072 N.ar    1  UNL1       -0.2551
     18 N          17.6832   70.4641   -8.9841 N.ar    1  UNL1       -0.2743
     19 C          17.2076   70.6023   -7.6734 C.ar    1  UNL1        0.3323
     20 C          19.5197   71.0713   -7.0876 C.ar    1  UNL1        0.0869
     21 C          19.9573   70.9368   -8.3414 C.ar    1  UNL1        0.0795
     22 C          18.9946   70.6056   -9.4107 C.ar    1  UNL1        0.2626
     23 H          16.9940   70.2359   -9.6954 H       1  UNL1        0.1734
     24 O          22.9633   72.9484   -1.9897 O.3     1  UNL1       -0.2703
     25 P          22.3460   74.4183   -1.7234 P.3     1  UNL1        0.2208
     26 O          20.8249   74.2841   -2.2567 O.3     1  UNL1       -0.4371
     27 O          23.1267   75.5372   -2.3512 O.2     1  UNL1       -0.5170
     28 O          22.2087   74.5196   -0.1188 O.3     1  UNL1       -0.2858
     29 O          21.1959   72.4705    0.4935 O.3     1  UNL1       -0.3226
     30 O          21.9954   74.1868    4.1941 O.3     1  UNL1       -0.3794
     31 O          20.9883   75.8136    1.9928 O.3     1  UNL1       -0.3775
     32 O          21.1173   71.7373    3.2674 O.3     1  UNL1       -0.3792
     33 C          22.1768   73.8612    2.8188 C.3     1  UNL1        0.1718
     34 C          21.0047   74.3900    1.9852 C.3     1  UNL1        0.1968
     35 C          22.2747   72.3396    2.6789 C.3     1  UNL1        0.1723
     36 C          21.1035   73.8983    0.5358 C.3     1  UNL1        0.2706
     37 C          22.3266   71.9625    1.2000 C.3     1  UNL1        0.1830
     38 H          22.7574   73.8315    4.6827 H       1  UNL1        0.2105
     39 H          20.2377   76.1012    1.4464 H       1  UNL1        0.2106
     40 H          20.3584   71.8859    2.6783 H       1  UNL1        0.2106
     41 O          23.2652   69.8817    1.7413 O.co2   1  UNL1       -0.5466
     42 O          21.4969   69.8802    0.3025 O.co2   1  UNL1       -0.5466
     43 C          22.2922   70.4791    1.0120 C.2     1  UNL1        0.0799
@<TRIPOS>UNITY_ATOM_ATTR
41 1
charge -1
@<TRIPOS>BOND
     1     1     4    1
     2     1    24    1
     3     1     2    1
     4     1     3    2
     5    25    28    1
     6    25    24    1
     7    25    26    1
     8    25    27    2
     9     6    11    1
    10     6    12    1
    11    29    36    1
    12    29    37    1
    13     7     9    1
    14     7    13    1
    15     8    10    1
    16     8    14    1
    17     4     5    1
    18    28    36    1
    19    30    33    1
    20    30    38    1
    21    31    34    1
    22    31    39    1
    23    32    35    1
    24    32    40    1
    25    41    43   ar
    26    15    19    2
    27    42    43   ar
    28    16    22    2
    29    17    12    1
    30    17    19   ar
    31    17    20   ar
    32    18    19   ar
    33    18    22   ar
    34    18    23    1
    35     9    10    1
    36     9    11    1
    37    10    12    1
    38    11     5    1
    39    33    34    1
    40    33    35    1
    41    34    36    1
    42    35    37    1
    43    37    43    1
    44    20    21   ar
    45    21    22   ar
@<TRIPOS>MOLECULE
UDP-glaA
 43 45 0 0 0
SMALL
GASTEIGER

@<TRIPOS>ATOM
      1 P          21.9554   73.8120   -5.9447 P.3     1  UNL1        0.2189
      2 O          22.1962   75.3700   -6.3082 O.3     1  UNL1       -0.4371
      3 O          22.8212   72.8452   -6.6982 O.2     1  UNL1       -0.5170
      4 O          20.3603   73.6126   -6.1216 O.3     1  UNL1       -0.3112
      5 C          19.7153   74.2461   -7.2133 C.3     1  UNL1        0.1811
      6 O          19.6612   71.9020   -7.7392 O.3     1  UNL1       -0.3308
      7 O          18.0324   72.6686  -10.1373 O.3     1  UNL1       -0.3794
      8 O          16.1387   71.7665   -8.3949 O.3     1  UNL1       -0.3779
      9 C          18.0297   73.2324   -8.8259 C.3     1  UNL1        0.1713
     10 C          17.3290   72.3041   -7.8565 C.3     1  UNL1        0.1895
     11 C          19.4607   73.2162   -8.3047 C.3     1  UNL1        0.1764
     12 C          18.3897   71.2446   -7.6112 C.3     1  UNL1        0.2383
     13 H          18.5244   73.2778  -10.7137 H       1  UNL1        0.2105
     14 H          15.5585   72.5125   -8.6251 H       1  UNL1        0.2106
     15 O          16.2556   69.6117   -6.7424 O.2     1  UNL1       -0.2464
     16 O          18.1243   69.0777   -2.5637 O.2     1  UNL1       -0.2670
     17 N          18.2932   70.6651   -6.3019 N.ar    1  UNL1       -0.2551
     18 N          17.1873   69.3473   -4.6620 N.ar    1  UNL1       -0.2743
     19 C          17.1794   69.8606   -5.9656 C.ar    1  UNL1        0.3323
     20 C          19.2954   70.8960   -5.3661 C.ar    1  UNL1        0.0869
     21 C          19.2886   70.3990   -4.1272 C.ar    1  UNL1        0.0795
     22 C          18.1608   69.5494   -3.6960 C.ar    1  UNL1        0.2626
     23 H          16.3960   68.7665   -4.3980 H       1  UNL1        0.1734
     24 O          22.1496   73.7803   -4.3395 O.3     1  UNL1       -0.2703
     25 P          23.2021   72.9746   -3.4146 P.3     1  UNL1        0.2208
     26 O          24.6048   73.7242   -3.7094 O.3     1  UNL1       -0.4371
     27 O          23.2279   71.4928   -3.6582 O.2     1  UNL1       -0.5170
     28 O          22.8240   73.3953   -1.9033 O.3     1  UNL1       -0.2858
     29 O          21.7069   71.6672   -0.7349 O.3     1  UNL1       -0.3226
     30 O          21.4268   74.8438    1.9316 O.3     1  UNL1       -0.3794
     31 O          21.0496   75.2725   -0.9285 O.3     1  UNL1       -0.3775
     32 O          20.8710   72.1384    1.9703 O.3     1  UNL1       -0.3792
     33 C          21.9867   74.0074    0.9230 C.3     1  UNL1        0.1718
     34 C          21.0853   73.9877   -0.3161 C.3     1  UNL1        0.1968
     35 C          22.1387   72.5904    1.4829 C.3     1  UNL1        0.1723
     36 C          21.5884   72.9601   -1.3376 C.3     1  UNL1        0.2706
     37 C          22.6035   71.6479    0.3748 C.3     1  UNL1        0.1830
     38 H          22.0277   74.8242    2.6958 H       1  UNL1        0.2105
     39 H          20.4765   75.2087   -1.7109 H       1  UNL1        0.2106
     40 H          20.3035   71.9305    1.2088 H       1  UNL1        0.2106
     41 O          21.5824   69.5359    0.3590 O.co2   1  UNL1       -0.5466
     42 O          23.5063   69.7498    1.5631 O.co2   1  UNL1       -0.5466
     43 C          22.6412   70.2282    0.8439 C.2     1  UNL1        0.0799
@<TRIPOS>UNITY_ATOM_ATTR
41 1
charge -1
@<TRIPOS>BOND
     1     1     4    1
     2     1    24    1
     3     1     2    1
     4     1     3    2
     5    25    28    1
     6    25    24    1
     7    25    26    1
     8    25    27    2
     9     6    11    1
    10     6    12    1
    11    29    36    1
    12    29    37    1
    13     7     9    1
    14     7    13    1
    15     8    10    1
    16     8    14    1
    17     4     5    1
    18    28    36    1
    19    30    33    1
    20    30    38    1
    21    31    34    1
    22    31    39    1
    23    32    35    1
    24    32    40    1
    25    41    43   ar
    26    15    19    2
    27    42    43   ar
    28    16    22    2
    29    17    12    1
    30    17    19   ar
    31    17    20   ar
    32    18    19   ar
    33    18    22   ar
    34    18    23    1
    35     9    10    1
    36     9    11    1
    37    10    12    1
    38    11     5    1
    39    33    34    1
    40    33    35    1
    41    34    36    1
    42    35    37    1
    43    37    43    1
    44    20    21   ar
    45    21    22   ar
@<TRIPOS>MOLECULE
UDP-glaA
 43 45 0 0 0
SMALL
GASTEIGER

@<TRIPOS>ATOM
      1 P          21.6022   70.6749   -1.2632 P.3     1  UNL1        0.2189
      2 O          23.1993   70.9242   -1.1952 O.3     1  UNL1       -0.4371
      3 O          21.1944   69.3040   -1.7175 O.2     1  UNL1       -0.5170
      4 O          21.0537   71.9044   -2.1592 O.3     1  UNL1       -0.3112
      5 C          20.4526   71.6158   -3.4100 C.3     1  UNL1        0.1811
      6 O          18.4979   72.3265   -4.6135 O.3     1  UNL1       -0.3308
      7 O          16.9089   71.0729   -2.4010 O.3     1  UNL1       -0.3794
      8 O          16.7728   69.1926   -4.3713 O.3     1  UNL1       -0.3779
      9 C          18.1406   70.6457   -2.9826 C.3     1  UNL1        0.1713
     10 C          17.8955   70.0497   -4.3528 C.3     1  UNL1        0.1895
     11 C          18.9578   71.8868   -3.3165 C.3     1  UNL1        0.1764
     12 C          17.6969   71.2908   -5.2061 C.3     1  UNL1        0.2383
     13 H          17.1194   71.4820   -1.5444 H       1  UNL1        0.2105
     14 H          16.9325   68.4868   -3.7212 H       1  UNL1        0.2106
     15 O          16.0340   70.3015   -7.2631 O.2     1  UNL1       -0.2464
     16 O          19.4164   70.5792  -10.3810 O.2     1  UNL1       -0.2670
     17 N          18.1166   71.0951   -6.5643 N.ar    1  UNL1       -0.2551
     18 N          17.7196   70.4399   -8.8142 N.ar    1  UNL1       -0.2743
     19 C          17.2037   70.5921   -7.5205 C.ar    1  UNL1        0.3323
     20 C          19.4208   71.4005   -6.9377 C.ar    1  UNL1        0.0869
     21 C          19.8974   71.2503   -8.1754 C.ar    1  UNL1        0.0795
     22 C          19.0089   70.7295   -9.2332 C.ar    1  UNL1        0.2626
     23 H          17.0812   70.0791   -9.5180 H       1  UNL1        0.1734
     24 O          21.1109   71.0644    0.2275 O.3     1  UNL1       -0.2703
     25 P          21.9429   71.5524    1.5244 P.3     1  UNL1        0.2208
     26 O          23.0471   70.3863    1.7173 O.3     1  UNL1       -0.4371
     27 O          21.0964   71.8114    2.7377 O.2     1  UNL1       -0.5170
     28 O          22.7842   72.8310    1.0133 O.3     1  UNL1       -0.2858
     29 O          22.6870   74.3227    2.8476 O.3     1  UNL1       -0.3226
     30 O          25.2948   76.2808    0.2699 O.3     1  UNL1       -0.3794
     31 O          22.9188   74.9409   -0.7624 O.3     1  UNL1       -0.3775
     32 O          24.4279   76.6046    2.8725 O.3     1  UNL1       -0.3792
     33 C          24.6495   75.1925    0.9252 C.3     1  UNL1        0.1718
     34 C          23.1480   75.1985    0.6189 C.3     1  UNL1        0.1968
     35 C          24.8768   75.3180    2.4342 C.3     1  UNL1        0.1723
     36 C          22.4191   74.1382    1.4536 C.3     1  UNL1        0.2706
     37 C          24.0757   74.2428    3.1651 C.3     1  UNL1        0.1830
     38 H          26.2402   76.2389    0.4933 H       1  UNL1        0.2105
     39 H          21.9575   74.9451   -0.9060 H       1  UNL1        0.2106
     40 H          23.4557   76.6085    2.8741 H       1  UNL1        0.2106
     41 O          25.4073   74.8076    5.0121 O.co2   1  UNL1       -0.5466
     42 O          23.2468   74.2141    5.4327 O.co2   1  UNL1       -0.5466
     43 C          24.1648   74.4079    4.6490 C.2     1  UNL1        0.0799
@<TRIPOS>UNITY_ATOM_ATTR
41 1
charge -1
@<TRIPOS>BOND
     1     1     4    1
     2     1    24    1
     3     1     2    1
     4     1     3    2
     5    25    28    1
     6    25    24    1
     7    25    26    1
     8    25    27    2
     9     6    11    1
    10     6    12    1
    11    29    36    1
    12    29    37    1
    13     7     9    1
    14     7    13    1
    15     8    10    1
    16     8    14    1
    17     4     5    1
    18    28    36    1
    19    30    33    1
    20    30    38    1
    21    31    34    1
    22    31    39    1
    23    32    35    1
    24    32    40    1
    25    41    43   ar
    26    15    19    2
    27    42    43   ar
    28    16    22    2
    29    17    12    1
    30    17    19   ar
    31    17    20   ar
    32    18    19   ar
    33    18    22   ar
    34    18    23    1
    35     9    10    1
    36     9    11    1
    37    10    12    1
    38    11     5    1
    39    33    34    1
    40    33    35    1
    41    34    36    1
    42    35    37    1
    43    37    43    1
    44    20    21   ar
    45    21    22   ar
@<TRIPOS>MOLECULE
UDP-glaA
 43 45 0 0 0
SMALL
GASTEIGER

@<TRIPOS>ATOM
      1 P          22.7997   71.7382   -2.2248 P.3     1  UNL1        0.2189
      2 O          23.3286   73.2657   -2.2896 O.3     1  UNL1       -0.4371
      3 O          23.4254   70.8088   -3.2232 O.2     1  UNL1       -0.5170
      4 O          21.1907   71.8791   -2.3077 O.3     1  UNL1       -0.3112
      5 C          20.5320   71.4405   -3.4838 C.3     1  UNL1        0.1811
      6 O          18.5938   72.2400   -4.6577 O.3     1  UNL1       -0.3308
      7 O          16.9801   71.0114   -2.4492 O.3     1  UNL1       -0.3794
      8 O          16.7577   69.1676   -4.4458 O.3     1  UNL1       -0.3779
      9 C          18.1901   70.5487   -3.0488 C.3     1  UNL1        0.1713
     10 C          17.9112   69.9829   -4.4253 C.3     1  UNL1        0.1895
     11 C          19.0490   71.7642   -3.3718 C.3     1  UNL1        0.1764
     12 C          17.7503   71.2433   -5.2580 C.3     1  UNL1        0.2383
     13 H          17.2131   71.3995   -1.5885 H       1  UNL1        0.2105
     14 H          16.8975   68.4467   -3.8080 H       1  UNL1        0.2106
     15 O          16.0345   70.3448   -7.3133 O.2     1  UNL1       -0.2464
     16 O          19.3960   70.5489  -10.4592 O.2     1  UNL1       -0.2670
     17 N          18.1504   71.0533   -6.6230 N.ar    1  UNL1       -0.2551
     18 N          17.7097   70.4465   -8.8783 N.ar    1  UNL1       -0.2743
     19 C          17.2113   70.5975   -7.5776 C.ar    1  UNL1        0.3323
     20 C          19.4611   71.3177   -7.0044 C.ar    1  UNL1        0.0869
     21 C          19.9207   71.1693   -8.2488 C.ar    1  UNL1        0.0795
     22 C          19.0046   70.6964   -9.3055 C.ar    1  UNL1        0.2626
     23 H          17.0524   70.1193   -9.5812 H       1  UNL1        0.1734
     24 O          23.0495   71.3335   -0.6791 O.3     1  UNL1       -0.2703
     25 P          22.1111   70.5470    0.3760 P.3     1  UNL1        0.2208
     26 O          23.1724   69.9331    1.4309 O.3     1  UNL1       -0.4371
     27 O          21.1995   69.5301   -0.2492 O.2     1  UNL1       -0.5170
     28 O          21.3497   71.7115    1.1934 O.3     1  UNL1       -0.2858
     29 O          21.8293   74.0287    1.2045 O.3     1  UNL1       -0.3226
     30 O          20.2030   73.4576    4.9872 O.3     1  UNL1       -0.3794
     31 O          22.0471   71.5014    3.8565 O.3     1  UNL1       -0.3775
     32 O          20.9628   75.6129    3.4357 O.3     1  UNL1       -0.3792
     33 C          20.4005   73.2687    3.5888 C.3     1  UNL1        0.1718
     34 C          21.8320   72.7983    3.3099 C.3     1  UNL1        0.1968
     35 C          20.1345   74.5931    2.8678 C.3     1  UNL1        0.1723
     36 C          22.1063   72.7575    1.8014 C.3     1  UNL1        0.2706
     37 C          20.4781   74.4491    1.3867 C.3     1  UNL1        0.1830
     38 H          19.2868   73.7569    5.1163 H       1  UNL1        0.2105
     39 H          22.9605   71.2427    3.6475 H       1  UNL1        0.2106
     40 H          21.8771   75.4698    3.1378 H       1  UNL1        0.2106
     41 O          19.1265   75.8842    0.1150 O.co2   1  UNL1       -0.5466
     42 O          21.2401   76.5961    0.5871 O.co2   1  UNL1       -0.5466
     43 C          20.3568   75.7548    0.6674 C.2     1  UNL1        0.0799
@<TRIPOS>UNITY_ATOM_ATTR
41 1
charge -1
@<TRIPOS>BOND
     1     1     4    1
     2     1    24    1
     3     1     2    1
     4     1     3    2
     5    25    28    1
     6    25    24    1
     7    25    26    1
     8    25    27    2
     9     6    11    1
    10     6    12    1
    11    29    36    1
    12    29    37    1
    13     7     9    1
    14     7    13    1
    15     8    10    1
    16     8    14    1
    17     4     5    1
    18    28    36    1
    19    30    33    1
    20    30    38    1
    21    31    34    1
    22    31    39    1
    23    32    35    1
    24    32    40    1
    25    41    43   ar
    26    15    19    2
    27    42    43   ar
    28    16    22    2
    29    17    12    1
    30    17    19   ar
    31    17    20   ar
    32    18    19   ar
    33    18    22   ar
    34    18    23    1
    35     9    10    1
    36     9    11    1
    37    10    12    1
    38    11     5    1
    39    33    34    1
    40    33    35    1
    41    34    36    1
    42    35    37    1
    43    37    43    1
    44    20    21   ar
    45    21    22   ar
@<TRIPOS>MOLECULE
UDP-glaA
 43 45 0 0 0
SMALL
GASTEIGER

@<TRIPOS>ATOM
      1 P          21.9614   71.0477   -1.3839 P.3     1  UNL1        0.2189
      2 O          23.4008   70.4704   -0.9233 O.3     1  UNL1       -0.4371
      3 O          21.0799   71.5171   -0.2638 O.2     1  UNL1       -0.5170
      4 O          21.3507   69.8745   -2.3146 O.3     1  UNL1       -0.3112
      5 C          20.7969   70.2259   -3.5712 C.3     1  UNL1        0.1811
      6 O          19.0732   71.5811   -4.5543 O.3     1  UNL1       -0.3308
      7 O          17.2698   70.5125   -2.4102 O.3     1  UNL1       -0.3794
      8 O          16.5718   69.0123   -4.5777 O.3     1  UNL1       -0.3779
      9 C          18.3221   69.8550   -3.1159 C.3     1  UNL1        0.1713
     10 C          17.8848   69.5313   -4.5289 C.3     1  UNL1        0.1895
     11 C          19.4347   70.8682   -3.3509 C.3     1  UNL1        0.1764
     12 C          18.0047   70.8820   -5.2138 C.3     1  UNL1        0.2383
     13 H          17.6082   70.7346   -1.5261 H       1  UNL1        0.2105
     14 H          16.5536   68.2101   -4.0279 H       1  UNL1        0.2106
     15 O          16.0824   70.5296   -7.2524 O.2     1  UNL1       -0.2464
     16 O          19.3145   70.4358  -10.5362 O.2     1  UNL1       -0.2670
     17 N          18.3157   70.7631   -6.6097 N.ar    1  UNL1       -0.2551
     18 N          17.6931   70.4826   -8.8862 N.ar    1  UNL1       -0.2743
     19 C          17.2761   70.5879   -7.5528 C.ar    1  UNL1        0.3323
     20 C          19.6392   70.8203   -7.0323 C.ar    1  UNL1        0.0869
     21 C          20.0205   70.7188   -8.3074 C.ar    1  UNL1        0.0795
     22 C          18.9968   70.5332   -9.3549 C.ar    1  UNL1        0.2626
     23 H          16.9628   70.3555   -9.5816 H       1  UNL1        0.1734
     24 O          22.3562   72.1928   -2.4554 O.3     1  UNL1       -0.2703
     25 P          23.0505   73.6385   -2.2547 P.3     1  UNL1        0.2208
     26 O          21.8378   74.6736   -2.5268 O.3     1  UNL1       -0.4371
     27 O          24.2625   73.8642   -3.1125 O.2     1  UNL1       -0.5170
     28 O          23.3278   73.7423   -0.6684 O.3     1  UNL1       -0.2858
     29 O          21.9477   74.2522    1.1849 O.3     1  UNL1       -0.3226
     30 O          25.5264   76.0891    2.2326 O.3     1  UNL1       -0.3794
     31 O          24.5431   76.2164   -0.5102 O.3     1  UNL1       -0.3775
     32 O          23.1100   75.5586    3.4611 O.3     1  UNL1       -0.3792
     33 C          24.6545   75.1206    1.6562 C.3     1  UNL1        0.1718
     34 C          23.7620   75.7703    0.5934 C.3     1  UNL1        0.1968
     35 C          23.7910   74.5104    2.7637 C.3     1  UNL1        0.1723
     36 C          22.7059   74.7783    0.0907 C.3     1  UNL1        0.2706
     37 C          22.7530   73.5745    2.1482 C.3     1  UNL1        0.1830
     38 H          26.0692   75.6351    2.8995 H       1  UNL1        0.2105
     39 H          23.9360   76.6104   -1.1590 H       1  UNL1        0.2106
     40 H          22.3963   75.8948    2.8929 H       1  UNL1        0.2106
     41 O          20.6797   73.8111    3.2201 O.co2   1  UNL1       -0.5466
     42 O          22.0049   72.0825    3.8929 O.co2   1  UNL1       -0.5466
     43 C          21.8036   73.0555    3.1808 C.2     1  UNL1        0.0799
@<TRIPOS>UNITY_ATOM_ATTR
41 1
charge -1
@<TRIPOS>BOND
     1     1     4    1
     2     1    24    1
     3     1     2    1
     4     1     3    2
     5    25    28    1
     6    25    24    1
     7    25    26    1
     8    25    27    2
     9     6    11    1
    10     6    12    1
    11    29    36    1
    12    29    37    1
    13     7     9    1
    14     7    13    1
    15     8    10    1
    16     8    14    1
    17     4     5    1
    18    28    36    1
    19    30    33    1
    20    30    38    1
    21    31    34    1
    22    31    39    1
    23    32    35    1
    24    32    40    1
    25    41    43   ar
    26    15    19    2
    27    42    43   ar
    28    16    22    2
    29    17    12    1
    30    17    19   ar
    31    17    20   ar
    32    18    19   ar
    33    18    22   ar
    34    18    23    1
    35     9    10    1
    36     9    11    1
    37    10    12    1
    38    11     5    1
    39    33    34    1
    40    33    35    1
    41    34    36    1
    42    35    37    1
    43    37    43    1
    44    20    21   ar
    45    21    22   ar
@<TRIPOS>MOLECULE
UDP-glaA
 43 45 0 0 0
SMALL
GASTEIGER

@<TRIPOS>ATOM
      1 P          21.6563   70.5603   -1.1527 P.3     1  UNL1        0.2189
      2 O          23.2447   70.7489   -1.3951 O.3     1  UNL1       -0.4371
      3 O          21.2836   69.9860    0.1828 O.2     1  UNL1       -0.5170
      4 O          21.1624   69.7186   -2.4423 O.3     1  UNL1       -0.3112
      5 C          20.7802   70.4280   -3.6085 C.3     1  UNL1        0.1811
      6 O          18.9973   71.6833   -4.6184 O.3     1  UNL1       -0.3308
      7 O          17.2362   70.5537   -2.4704 O.3     1  UNL1       -0.3794
      8 O          16.6268   68.9932   -4.6220 O.3     1  UNL1       -0.3779
      9 C          18.3242   69.9404   -3.1618 C.3     1  UNL1        0.1713
     10 C          17.9120   69.5774   -4.5728 C.3     1  UNL1        0.1895
     11 C          19.3865   71.0046   -3.4039 C.3     1  UNL1        0.1764
     12 C          17.9689   70.9236   -5.2746 C.3     1  UNL1        0.2383
     13 H          17.5579   70.8035   -1.5875 H       1  UNL1        0.2105
     14 H          16.6450   68.1982   -4.0620 H       1  UNL1        0.2106
     15 O          16.0803   70.4387   -7.3175 O.2     1  UNL1       -0.2464
     16 O          19.3313   70.4761  -10.5836 O.2     1  UNL1       -0.2670
     17 N          18.2938   70.8026   -6.6671 N.ar    1  UNL1       -0.2551
     18 N          17.7005   70.4572   -8.9425 N.ar    1  UNL1       -0.2743
     19 C          17.2708   70.5579   -7.6127 C.ar    1  UNL1        0.3323
     20 C          19.6146   70.9261   -7.0839 C.ar    1  UNL1        0.0869
     21 C          20.0082   70.8280   -8.3556 C.ar    1  UNL1        0.0795
     22 C          19.0021   70.5723   -9.4053 C.ar    1  UNL1        0.2626
     23 H          16.9821   70.2808   -9.6396 H       1  UNL1        0.1734
     24 O          21.0681   72.0395   -1.4375 O.3     1  UNL1       -0.2703
     25 P          21.3746   73.4577   -0.7251 P.3     1  UNL1        0.2208
     26 O          19.9732   74.2532   -0.8640 O.3     1  UNL1       -0.4371
     27 O          22.5601   74.1870   -1.2893 O.2     1  UNL1       -0.5170
     28 O          21.4922   73.1090    0.8461 O.3     1  UNL1       -0.2858
     29 O          22.8565   74.7618    1.8494 O.3     1  UNL1       -0.3226
     30 O          21.9399   72.3107    5.0792 O.3     1  UNL1       -0.3794
     31 O          22.5687   71.1572    2.4753 O.3     1  UNL1       -0.3775
     32 O          23.1731   74.7535    4.7021 O.3     1  UNL1       -0.3792
     33 C          21.7572   72.9951    3.8428 C.3     1  UNL1        0.1718
     34 C          22.7888   72.5227    2.8129 C.3     1  UNL1        0.1968
     35 C          21.9078   74.4998    4.0828 C.3     1  UNL1        0.1723
     36 C          22.7121   73.3721    1.5381 C.3     1  UNL1        0.2706
     37 C          21.8568   75.2400    2.7480 C.3     1  UNL1        0.1830
     38 H          21.2690   72.6423    5.7000 H       1  UNL1        0.2105
     39 H          23.2373   70.9065    1.8158 H       1  UNL1        0.2106
     40 H          23.8711   74.6453    4.0342 H       1  UNL1        0.2106
     41 O          21.0045   77.4254    2.7101 O.co2   1  UNL1       -0.5466
     42 O          23.2139   77.1814    3.2162 O.co2   1  UNL1       -0.5466
     43 C          22.1294   76.7004    2.9214 C.2     1  UNL1        0.0799
@<TRIPOS>UNITY_ATOM_ATTR
41 1
charge -1
@<TRIPOS>BOND
     1     1     4    1
     2     1    24    1
     3     1     2    1
     4     1     3    2
     5    25    28    1
     6    25    24    1
     7    25    26    1
     8    25    27    2
     9     6    11    1
    10     6    12    1
    11    29    36    1
    12    29    37    1
    13     7     9    1
    14     7    13    1
    15     8    10    1
    16     8    14    1
    17     4     5    1
    18    28    36    1
    19    30    33    1
    20    30    38    1
    21    31    34    1
    22    31    39    1
    23    32    35    1
    24    32    40    1
    25    41    43   ar
    26    15    19    2
    27    42    43   ar
    28    16    22    2
    29    17    12    1
    30    17    19   ar
    31    17    20   ar
    32    18    19   ar
    33    18    22   ar
    34    18    23    1
    35     9    10    1
    36     9    11    1
    37    10    12    1
    38    11     5    1
    39    33    34    1
    40    33    35    1
    41    34    36    1
    42    35    37    1
    43    37    43    1
    44    20    21   ar
    45    21    22   ar
@<TRIPOS>MOLECULE
UDP-glaA
 43 45 0 0 0
SMALL
GASTEIGER

@<TRIPOS>ATOM
      1 P          21.5075   73.0133   -6.0208 P.3     1  UNL1        0.2189
      2 O          21.2693   74.5407   -5.5437 O.3     1  UNL1       -0.4371
      3 O          22.6836   72.8105   -6.9306 O.2     1  UNL1       -0.5170
      4 O          20.0728   72.5626   -6.6156 O.3     1  UNL1       -0.3112
      5 C          19.6915   71.2017   -6.5067 C.3     1  UNL1        0.1811
      6 O          17.4945   70.9293   -7.4411 O.3     1  UNL1       -0.3308
      7 O          18.8307   70.9998  -10.1245 O.3     1  UNL1       -0.3794
      8 O          17.8270   73.5246   -9.8927 O.3     1  UNL1       -0.3779
      9 C          19.1513   71.7236   -8.9367 C.3     1  UNL1        0.1713
     10 C          18.1403   72.8267   -8.7050 C.3     1  UNL1        0.1895
     11 C          18.9013   70.8071   -7.7463 C.3     1  UNL1        0.1764
     12 C          16.9541   72.0565   -8.1501 C.3     1  UNL1        0.2383
     13 H          19.4805   70.2814  -10.2104 H       1  UNL1        0.2105
     14 H          18.6558   73.8958  -10.2413 H       1  UNL1        0.2106
     15 O          14.9432   73.8707   -8.9504 O.2     1  UNL1       -0.2464
     16 O          13.9901   75.0210   -4.5907 O.2     1  UNL1       -0.2670
     17 N          16.1647   72.8426   -7.2456 N.ar    1  UNL1       -0.2551
     18 N          14.4703   74.4427   -6.7790 N.ar    1  UNL1       -0.2743
     19 C          15.1807   73.7247   -7.7500 C.ar    1  UNL1        0.3323
     20 C          16.3691   72.7355   -5.8744 C.ar    1  UNL1        0.0869
     21 C          15.6832   73.4265   -4.9613 C.ar    1  UNL1        0.0795
     22 C          14.6381   74.3702   -5.4048 C.ar    1  UNL1        0.2626
     23 H          13.7582   75.0834   -7.1187 H       1  UNL1        0.1734
     24 O          21.5907   72.2057   -4.6222 O.3     1  UNL1       -0.2703
     25 P          22.7906   72.0660   -3.5483 P.3     1  UNL1        0.2208
     26 O          23.9535   73.0046   -4.1670 O.3     1  UNL1       -0.4371
     27 O          23.2141   70.6506   -3.2785 O.2     1  UNL1       -0.5170
     28 O          22.2697   72.8655   -2.2469 O.3     1  UNL1       -0.2858
     29 O          21.5629   71.1654   -0.7604 O.3     1  UNL1       -0.3226
     30 O          21.0957   74.5905    1.5482 O.3     1  UNL1       -0.3794
     31 O          20.3475   74.5903   -1.2707 O.3     1  UNL1       -0.3775
     32 O          20.9657   71.8621    1.9592 O.3     1  UNL1       -0.3792
     33 C          21.6628   73.7161    0.5765 C.3     1  UNL1        0.1718
     34 C          20.6450   73.4126   -0.5281 C.3     1  UNL1        0.1968
     35 C          22.0888   72.4178    1.2674 C.3     1  UNL1        0.1723
     36 C          21.1840   72.3410   -1.4839 C.3     1  UNL1        0.2706
     37 C          22.5678   71.4133    0.2216 C.3     1  UNL1        0.1830
     38 H          21.7724   74.7528    2.2273 H       1  UNL1        0.2105
     39 H          19.7087   74.3477   -1.9620 H       1  UNL1        0.2106
     40 H          20.3567   71.4815    1.3039 H       1  UNL1        0.2106
     41 O          22.3999   69.0787    0.0632 O.co2   1  UNL1       -0.5466
     42 O          23.4673   69.9209    1.8930 O.co2   1  UNL1       -0.5466
     43 C          22.8721   70.0849    0.8378 C.2     1  UNL1        0.0799
@<TRIPOS>UNITY_ATOM_ATTR
41 1
charge -1
@<TRIPOS>BOND
     1     1     4    1
     2     1    24    1
     3     1     2    1
     4     1     3    2
     5    25    28    1
     6    25    24    1
     7    25    26    1
     8    25    27    2
     9     6    11    1
    10     6    12    1
    11    29    36    1
    12    29    37    1
    13     7     9    1
    14     7    13    1
    15     8    10    1
    16     8    14    1
    17     4     5    1
    18    28    36    1
    19    30    33    1
    20    30    38    1
    21    31    34    1
    22    31    39    1
    23    32    35    1
    24    32    40    1
    25    41    43   ar
    26    15    19    2
    27    42    43   ar
    28    16    22    2
    29    17    12    1
    30    17    19   ar
    31    17    20   ar
    32    18    19   ar
    33    18    22   ar
    34    18    23    1
    35     9    10    1
    36     9    11    1
    37    10    12    1
    38    11     5    1
    39    33    34    1
    40    33    35    1
    41    34    36    1
    42    35    37    1
    43    37    43    1
    44    20    21   ar
    45    21    22   ar
@<TRIPOS>MOLECULE
UDP-glaA
 43 45 0 0 0
SMALL
GASTEIGER

@<TRIPOS>ATOM
      1 P          21.4731   74.3088   -6.0659 P.3     1  UNL1        0.2189
      2 O          20.3871   75.5069   -6.0121 O.3     1  UNL1       -0.4371
      3 O          22.7913   74.6766   -6.6816 O.2     1  UNL1       -0.5170
      4 O          20.6784   73.0943   -6.7794 O.3     1  UNL1       -0.3112
      5 C          21.2985   72.4231   -7.8630 C.3     1  UNL1        0.1811
      6 O          19.7649   70.5877   -8.0939 O.3     1  UNL1       -0.3308
      7 O          18.3268   72.2861  -10.1036 O.3     1  UNL1       -0.3794
      8 O          16.7916   72.5790   -7.8691 O.3     1  UNL1       -0.3779
      9 C          18.9906   72.6760   -8.9015 C.3     1  UNL1        0.1713
     10 C          18.1628   72.2873   -7.6947 C.3     1  UNL1        0.1895
     11 C          20.2233   71.7963   -8.7391 C.3     1  UNL1        0.1764
     12 C          18.4342   70.7960   -7.5927 C.3     1  UNL1        0.2383
     13 H          18.9104   72.5192  -10.8457 H       1  UNL1        0.2105
     14 H          16.7145   73.5341   -8.0363 H       1  UNL1        0.2106
     15 O          16.1917   69.4911   -6.4775 O.2     1  UNL1       -0.2464
     16 O          18.2757   69.0037   -2.3960 O.2     1  UNL1       -0.2670
     17 N          18.3637   70.3172   -6.2417 N.ar    1  UNL1       -0.2551
     18 N          17.2308   69.2497   -4.4456 N.ar    1  UNL1       -0.2743
     19 C          17.1906   69.6760   -5.7797 C.ar    1  UNL1        0.3323
     20 C          19.4493   70.4850   -5.3892 C.ar    1  UNL1        0.0869
     21 C          19.4723   70.0725   -4.1199 C.ar    1  UNL1        0.0795
     22 C          18.2868   69.3944   -3.5593 C.ar    1  UNL1        0.2626
     23 H          16.3981   68.7866   -4.0918 H       1  UNL1        0.1734
     24 O          21.5603   73.8293   -4.5239 O.3     1  UNL1       -0.2703
     25 P          22.8357   73.5378   -3.5748 P.3     1  UNL1        0.2208
     26 O          23.4272   75.0149   -3.2841 O.3     1  UNL1       -0.4371
     27 O          23.8303   72.5753   -4.1579 O.2     1  UNL1       -0.5170
     28 O          22.1997   73.0684   -2.1679 O.3     1  UNL1       -0.2858
     29 O          22.8103   73.5463    0.0677 O.3     1  UNL1       -0.3226
     30 O          21.4616   69.6247    0.3525 O.3     1  UNL1       -0.3794
     31 O          23.0946   70.4692   -1.9116 O.3     1  UNL1       -0.3775
     32 O          22.2169   71.6179    2.1093 O.3     1  UNL1       -0.3792
     33 C          21.5355   70.9686   -0.1154 C.3     1  UNL1        0.1718
     34 C          22.9109   71.2448   -0.7320 C.3     1  UNL1        0.1968
     35 C          21.2889   71.9168    1.0613 C.3     1  UNL1        0.1723
     36 C          23.0610   72.7307   -1.0815 C.3     1  UNL1        0.2706
     37 C          21.5042   73.3601    0.6111 C.3     1  UNL1        0.1830
     38 H          20.5773   69.4958    0.7358 H       1  UNL1        0.2105
     39 H          23.9720   70.6841   -2.2704 H       1  UNL1        0.2106
     40 H          23.0948   71.9426    1.8464 H       1  UNL1        0.2106
     41 O          20.1625   74.8597    1.8172 O.co2   1  UNL1       -0.5466
     42 O          22.3031   74.5661    2.5442 O.co2   1  UNL1       -0.5466
     43 C          21.4007   74.3127    1.7594 C.2     1  UNL1        0.0799
@<TRIPOS>UNITY_ATOM_ATTR
41 1
charge -1
@<TRIPOS>BOND
     1     1     4    1
     2     1    24    1
     3     1     2    1
     4     1     3    2
     5    25    28    1
     6    25    24    1
     7    25    26    1
     8    25    27    2
     9     6    11    1
    10     6    12    1
    11    29    36    1
    12    29    37    1
    13     7     9    1
    14     7    13    1
    15     8    10    1
    16     8    14    1
    17     4     5    1
    18    28    36    1
    19    30    33    1
    20    30    38    1
    21    31    34    1
    22    31    39    1
    23    32    35    1
    24    32    40    1
    25    41    43   ar
    26    15    19    2
    27    42    43   ar
    28    16    22    2
    29    17    12    1
    30    17    19   ar
    31    17    20   ar
    32    18    19   ar
    33    18    22   ar
    34    18    23    1
    35     9    10    1
    36     9    11    1
    37    10    12    1
    38    11     5    1
    39    33    34    1
    40    33    35    1
    41    34    36    1
    42    35    37    1
    43    37    43    1
    44    20    21   ar
    45    21    22   ar
@<TRIPOS>MOLECULE
UDP-glaA
 43 45 0 0 0
SMALL
GASTEIGER

@<TRIPOS>ATOM
      1 P          22.4335   71.3909   -2.8746 P.3     1  UNL1        0.2189
      2 O          22.8608   72.9435   -3.0296 O.3     1  UNL1       -0.4371
      3 O          23.5317   70.4027   -3.1383 O.2     1  UNL1       -0.5170
      4 O          21.1229   71.2519   -3.8119 O.3     1  UNL1       -0.3112
      5 C          20.0925   70.3659   -3.4086 C.3     1  UNL1        0.1811
      6 O          18.9556   72.2610   -4.3524 O.3     1  UNL1       -0.3308
      7 O          16.4305   70.6805   -4.0099 O.3     1  UNL1       -0.3794
      8 O          16.9721   70.3699   -6.6644 O.3     1  UNL1       -0.3779
      9 C          17.7382   70.2286   -4.3613 C.3     1  UNL1        0.1713
     10 C          18.0577   70.6070   -5.7922 C.3     1  UNL1        0.1895
     11 C          18.7478   71.0584   -3.5792 C.3     1  UNL1        0.1764
     12 C          18.3900   72.0837   -5.6616 C.3     1  UNL1        0.2383
     13 H          16.2858   70.4510   -3.0762 H       1  UNL1        0.2105
     14 H          16.7524   69.4240   -6.6077 H       1  UNL1        0.2106
     15 O          19.9802   70.3508   -7.2248 O.2     1  UNL1       -0.2464
     16 O          22.0047   73.8736   -9.3997 O.2     1  UNL1       -0.2670
     17 N          19.3403   72.5207   -6.6441 N.ar    1  UNL1       -0.2551
     18 N          20.9876   72.1062   -8.3064 N.ar    1  UNL1       -0.2743
     19 C          20.0895   71.5691   -7.3748 C.ar    1  UNL1        0.3323
     20 C          19.5228   73.8796   -6.8756 C.ar    1  UNL1        0.0869
     21 C          20.3828   74.3759   -7.7677 C.ar    1  UNL1        0.0795
     22 C          21.2044   73.4494   -8.5717 C.ar    1  UNL1        0.2626
     23 H          21.5374   71.4405   -8.8429 H       1  UNL1        0.1734
     24 O          21.8188   71.3317   -1.3799 O.3     1  UNL1       -0.2703
     25 P          22.3472   70.5894   -0.0449 P.3     1  UNL1        0.2208
     26 O          23.8134   70.0567   -0.4721 O.3     1  UNL1       -0.4371
     27 O          21.4259   69.5217    0.4718 O.2     1  UNL1       -0.5170
     28 O          22.6354   71.7844    1.0006 O.3     1  UNL1       -0.2858
     29 O          21.1063   73.1472    2.1854 O.3     1  UNL1       -0.3226
     30 O          24.3200   75.7244    1.6294 O.3     1  UNL1       -0.3794
     31 O          23.4641   73.9398   -0.5127 O.3     1  UNL1       -0.3775
     32 O          21.9508   75.7509    3.0492 O.3     1  UNL1       -0.3792
     33 C          23.6295   74.4972    1.8471 C.3     1  UNL1        0.1718
     34 C          22.7042   74.1877    0.6653 C.3     1  UNL1        0.1968
     35 C          22.8120   74.6109    3.1367 C.3     1  UNL1        0.1723
     36 C          21.8314   72.9627    0.9651 C.3     1  UNL1        0.2706
     37 C          21.9544   73.3596    3.3128 C.3     1  UNL1        0.1830
     38 H          24.8904   75.8809    2.4012 H       1  UNL1        0.2105
     39 H          22.8382   73.7400   -1.2290 H       1  UNL1        0.2106
     40 H          21.2240   75.5428    2.4378 H       1  UNL1        0.2106
     41 O          21.6811   73.1214    5.6306 O.co2   1  UNL1       -0.5466
     42 O          19.8805   73.8598    4.4434 O.co2   1  UNL1       -0.5466
     43 C          21.0424   73.4827    4.4917 C.2     1  UNL1        0.0799
@<TRIPOS>UNITY_ATOM_ATTR
41 1
charge -1
@<TRIPOS>BOND
     1     1     4    1
     2     1    24    1
     3     1     2    1
     4     1     3    2
     5    25    28    1
     6    25    24    1
     7    25    26    1
     8    25    27    2
     9     6    11    1
    10     6    12    1
    11    29    36    1
    12    29    37    1
    13     7     9    1
    14     7    13    1
    15     8    10    1
    16     8    14    1
    17     4     5    1
    18    28    36    1
    19    30    33    1
    20    30    38    1
    21    31    34    1
    22    31    39    1
    23    32    35    1
    24    32    40    1
    25    41    43   ar
    26    15    19    2
    27    42    43   ar
    28    16    22    2
    29    17    12    1
    30    17    19   ar
    31    17    20   ar
    32    18    19   ar
    33    18    22   ar
    34    18    23    1
    35     9    10    1
    36     9    11    1
    37    10    12    1
    38    11     5    1
    39    33    34    1
    40    33    35    1
    41    34    36    1
    42    35    37    1
    43    37    43    1
    44    20    21   ar
    45    21    22   ar
@<TRIPOS>MOLECULE
UDP-glaA
 43 45 0 0 0
SMALL
GASTEIGER

@<TRIPOS>ATOM
      1 P          22.1266   70.6792   -2.8943 P.3     1  UNL1        0.2189
      2 O          23.6781   70.7567   -3.3462 O.3     1  UNL1       -0.4371
      3 O          21.5068   69.3158   -2.9901 O.2     1  UNL1       -0.5170
      4 O          21.4093   71.8400   -3.7624 O.3     1  UNL1       -0.3112
      5 C          20.2635   71.5043   -4.5264 C.3     1  UNL1        0.1811
      6 O          18.0126   72.1406   -3.9760 O.3     1  UNL1       -0.3308
      7 O          17.8600   69.5693   -2.4408 O.3     1  UNL1       -0.3794
      8 O          16.5455   68.9622   -4.7515 O.3     1  UNL1       -0.3779
      9 C          18.5327   69.8499   -3.6682 C.3     1  UNL1        0.1713
     10 C          17.5333   69.9709   -4.7991 C.3     1  UNL1        0.1895
     11 C          19.0922   71.2640   -3.5846 C.3     1  UNL1        0.1764
     12 C          16.9616   71.3594   -4.5681 C.3     1  UNL1        0.2383
     13 H          18.5344   69.5396   -1.7409 H       1  UNL1        0.2105
     14 H          17.0012   68.1040   -4.7959 H       1  UNL1        0.2106
     15 O          17.6587   70.4579   -7.1520 O.2     1  UNL1       -0.2464
     16 O          15.2936   73.8568   -9.1750 O.2     1  UNL1       -0.2670
     17 N          16.5416   71.9892   -5.7872 N.ar    1  UNL1       -0.2551
     18 N          16.4809   72.1513   -8.1577 N.ar    1  UNL1       -0.2743
     19 C          16.9477   71.4574   -7.0335 C.ar    1  UNL1        0.3323
     20 C          15.7359   73.1215   -5.7406 C.ar    1  UNL1        0.0869
     21 C          15.2988   73.7715   -6.8215 C.ar    1  UNL1        0.0795
     22 C          15.6784   73.2817   -8.1615 C.ar    1  UNL1        0.2626
     23 H          16.7609   71.7873   -9.0644 H       1  UNL1        0.1734
     24 O          22.1519   71.3043   -1.4030 O.3     1  UNL1       -0.2703
     25 P          22.4668   70.6212    0.0277 P.3     1  UNL1        0.2208
     26 O          23.8852   69.8835   -0.2174 O.3     1  UNL1       -0.4371
     27 O          21.3775   69.7187    0.5324 O.2     1  UNL1       -0.5170
     28 O          22.8132   71.8584    1.0041 O.3     1  UNL1       -0.2858
     29 O          21.8410   72.8264    2.9321 O.3     1  UNL1       -0.3226
     30 O          22.9266   76.1790    0.7274 O.3     1  UNL1       -0.3794
     31 O          21.7623   73.8523   -0.5905 O.3     1  UNL1       -0.3775
     32 O          21.9701   75.6739    3.2690 O.3     1  UNL1       -0.3792
     33 C          23.0017   74.8535    1.2448 C.3     1  UNL1        0.1718
     34 C          21.7719   74.0436    0.8202 C.3     1  UNL1        0.1968
     35 C          23.0821   74.9219    2.7723 C.3     1  UNL1        0.1723
     36 C          21.7582   72.6744    1.5112 C.3     1  UNL1        0.2706
     37 C          23.0199   73.5109    3.3531 C.3     1  UNL1        0.1830
     38 H          23.7219   76.6545    1.0223 H       1  UNL1        0.2105
     39 H          20.9736   73.3284   -0.8102 H       1  UNL1        0.2106
     40 H          21.1692   75.1279    3.1929 H       1  UNL1        0.2106
     41 O          22.1911   72.5271    5.3150 O.co2   1  UNL1       -0.5466
     42 O          23.5386   74.3500    5.5569 O.co2   1  UNL1       -0.5466
     43 C          22.9648   73.5363    4.8476 C.2     1  UNL1        0.0799
@<TRIPOS>UNITY_ATOM_ATTR
41 1
charge -1
@<TRIPOS>BOND
     1     1     4    1
     2     1    24    1
     3     1     2    1
     4     1     3    2
     5    25    28    1
     6    25    24    1
     7    25    26    1
     8    25    27    2
     9     6    11    1
    10     6    12    1
    11    29    36    1
    12    29    37    1
    13     7     9    1
    14     7    13    1
    15     8    10    1
    16     8    14    1
    17     4     5    1
    18    28    36    1
    19    30    33    1
    20    30    38    1
    21    31    34    1
    22    31    39    1
    23    32    35    1
    24    32    40    1
    25    41    43   ar
    26    15    19    2
    27    42    43   ar
    28    16    22    2
    29    17    12    1
    30    17    19   ar
    31    17    20   ar
    32    18    19   ar
    33    18    22   ar
    34    18    23    1
    35     9    10    1
    36     9    11    1
    37    10    12    1
    38    11     5    1
    39    33    34    1
    40    33    35    1
    41    34    36    1
    42    35    37    1
    43    37    43    1
    44    20    21   ar
    45    21    22   ar
@<TRIPOS>MOLECULE
UDP-glaA
 43 45 0 0 0
SMALL
GASTEIGER

@<TRIPOS>ATOM
      1 P          22.4816   73.0554   -4.6074 P.3     1  UNL1        0.2189
      2 O          22.6561   73.7913   -6.0376 O.3     1  UNL1       -0.4371
      3 O          23.7401   72.4657   -4.0413 O.2     1  UNL1       -0.5170
      4 O          21.2656   72.0169   -4.8493 O.3     1  UNL1       -0.3112
      5 C          20.7289   71.3299   -3.7316 C.3     1  UNL1        0.1811
      6 O          18.7778   72.1874   -4.8416 O.3     1  UNL1       -0.3308
      7 O          17.2092   71.0737   -2.5415 O.3     1  UNL1       -0.3794
      8 O          16.8258   69.2010   -4.4861 O.3     1  UNL1       -0.3779
      9 C          18.3724   70.5477   -3.1804 C.3     1  UNL1        0.1713
     10 C          18.0121   69.9666   -4.5314 C.3     1  UNL1        0.1895
     11 C          19.2668   71.7188   -3.5655 C.3     1  UNL1        0.1764
     12 C          17.8688   71.2156   -5.3843 C.3     1  UNL1        0.2383
     13 H          17.4944   71.4688   -1.7000 H       1  UNL1        0.2105
     14 H          16.9622   68.4878   -3.8389 H       1  UNL1        0.2106
     15 O          16.0221   70.3924   -7.3560 O.2     1  UNL1       -0.2464
     16 O          19.2630   70.3442  -10.6321 O.2     1  UNL1       -0.2670
     17 N          18.2024   70.9811   -6.7602 N.ar    1  UNL1       -0.2551
     18 N          17.6373   70.3685   -8.9859 N.ar    1  UNL1       -0.2743
     19 C          17.2007   70.5690   -7.6698 C.ar    1  UNL1        0.3323
     20 C          19.5107   71.1594   -7.1963 C.ar    1  UNL1        0.0869
     21 C          19.9110   70.9647   -8.4547 C.ar    1  UNL1        0.0795
     22 C          18.9270   70.5326   -9.4669 C.ar    1  UNL1        0.2626
     23 H          16.9342   70.0713   -9.6571 H       1  UNL1        0.1734
     24 O          21.8030   74.2017   -3.6905 O.3     1  UNL1       -0.2703
     25 P          22.1552   74.7119   -2.1978 P.3     1  UNL1        0.2208
     26 O          20.9277   75.7045   -1.8456 O.3     1  UNL1       -0.4371
     27 O          23.5149   75.3359   -2.0648 O.2     1  UNL1       -0.5170
     28 O          21.9193   73.4213   -1.2583 O.3     1  UNL1       -0.2858
     29 O          22.8489   73.5836    0.9117 O.3     1  UNL1       -0.3226
     30 O          21.7816   69.5707    0.7193 O.3     1  UNL1       -0.3794
     31 O          22.9860   70.8955   -1.5829 O.3     1  UNL1       -0.3775
     32 O          22.6941   71.3121    2.6596 O.3     1  UNL1       -0.3792
     33 C          21.7060   70.9736    0.4816 C.3     1  UNL1        0.1718
     34 C          22.9489   71.4553   -0.2744 C.3     1  UNL1        0.1968
     35 C          21.5967   71.6985    1.8258 C.3     1  UNL1        0.1723
     36 C          22.9591   72.9851   -0.3839 C.3     1  UNL1        0.2706
     37 C          21.6577   73.2078    1.6014 C.3     1  UNL1        0.1830
     38 H          20.9777   69.3110    1.2009 H       1  UNL1        0.2105
     39 H          23.7823   71.2354   -2.0248 H       1  UNL1        0.2106
     40 H          23.4999   71.7446    2.3297 H       1  UNL1        0.2106
     41 O          20.9467   73.3105    3.8347 O.co2   1  UNL1       -0.5466
     42 O          22.2897   74.9972    3.0942 O.co2   1  UNL1       -0.5466
     43 C          21.6848   73.9532    2.8978 C.2     1  UNL1        0.0799
@<TRIPOS>UNITY_ATOM_ATTR
41 1
charge -1
@<TRIPOS>BOND
     1     1     4    1
     2     1    24    1
     3     1     2    1
     4     1     3    2
     5    25    28    1
     6    25    24    1
     7    25    26    1
     8    25    27    2
     9     6    11    1
    10     6    12    1
    11    29    36    1
    12    29    37    1
    13     7     9    1
    14     7    13    1
    15     8    10    1
    16     8    14    1
    17     4     5    1
    18    28    36    1
    19    30    33    1
    20    30    38    1
    21    31    34    1
    22    31    39    1
    23    32    35    1
    24    32    40    1
    25    41    43   ar
    26    15    19    2
    27    42    43   ar
    28    16    22    2
    29    17    12    1
    30    17    19   ar
    31    17    20   ar
    32    18    19   ar
    33    18    22   ar
    34    18    23    1
    35     9    10    1
    36     9    11    1
    37    10    12    1
    38    11     5    1
    39    33    34    1
    40    33    35    1
    41    34    36    1
    42    35    37    1
    43    37    43    1
    44    20    21   ar
    45    21    22   ar
@<TRIPOS>MOLECULE
UDP-glaA
 43 45 0 0 0
SMALL
GASTEIGER

@<TRIPOS>ATOM
      1 P          22.4432   72.8460   -4.7105 P.3     1  UNL1        0.2189
      2 O          22.7716   72.9441   -6.2916 O.3     1  UNL1       -0.4371
      3 O          23.4058   72.0142   -3.9146 O.2     1  UNL1       -0.5170
      4 O          20.8977   72.3719   -4.6621 O.3     1  UNL1       -0.3112
      5 C          20.4197   71.7391   -3.4873 C.3     1  UNL1        0.1811
      6 O          18.4291   72.3693   -4.6767 O.3     1  UNL1       -0.3308
      7 O          16.9076   71.0934   -2.4298 O.3     1  UNL1       -0.3794
      8 O          16.8113   69.1838   -4.3741 O.3     1  UNL1       -0.3779
      9 C          18.1460   70.6993   -3.0203 C.3     1  UNL1        0.1713
     10 C          17.9053   70.0775   -4.3798 C.3     1  UNL1        0.1895
     11 C          18.9179   71.9621   -3.3796 C.3     1  UNL1        0.1764
     12 C          17.6561   71.3001   -5.2465 C.3     1  UNL1        0.2383
     13 H          17.1142   71.5204   -1.5810 H       1  UNL1        0.2105
     14 H          17.0016   68.4923   -3.7170 H       1  UNL1        0.2106
     15 O          15.9927   70.2626   -7.2792 O.2     1  UNL1       -0.2464
     16 O          19.3400   70.5756  -10.4313 O.2     1  UNL1       -0.2670
     17 N          18.0667   71.1005   -6.6070 N.ar    1  UNL1       -0.2551
     18 N          17.6608   70.4187   -8.8474 N.ar    1  UNL1       -0.2743
     19 C          17.1543   70.5725   -7.5501 C.ar    1  UNL1        0.3323
     20 C          19.3614   71.4266   -6.9953 C.ar    1  UNL1        0.0869
     21 C          19.8291   71.2745   -8.2362 C.ar    1  UNL1        0.0795
     22 C          18.9406   70.7283   -9.2811 C.ar    1  UNL1        0.2626
     23 H          17.0226   70.0401   -9.5420 H       1  UNL1        0.1734
     24 O          22.3615   74.3971   -4.2605 O.3     1  UNL1       -0.2703
     25 P          23.2076   75.6871   -4.7429 P.3     1  UNL1        0.2208
     26 O          22.1478   76.9006   -4.6000 O.3     1  UNL1       -0.4371
     27 O          23.8128   75.5504   -6.1107 O.2     1  UNL1       -0.5170
     28 O          24.2783   75.9387   -3.5622 O.3     1  UNL1       -0.2858
     29 O          26.2313   74.6546   -3.9315 O.3     1  UNL1       -0.3226
     30 O          27.0138   76.3865   -0.2346 O.3     1  UNL1       -0.3794
     31 O          24.3528   75.3707   -0.8614 O.3     1  UNL1       -0.3775
     32 O          28.4181   74.8957   -2.0881 O.3     1  UNL1       -0.3792
     33 C          26.5014   76.2672   -1.5587 C.3     1  UNL1        0.1718
     34 C          25.5103   75.1016   -1.6453 C.3     1  UNL1        0.1968
     35 C          27.6685   76.0351   -2.5224 C.3     1  UNL1        0.1723
     36 C          25.0850   74.8569   -3.0984 C.3     1  UNL1        0.2706
     37 C          27.1295   75.7631   -3.9251 C.3     1  UNL1        0.1830
     38 H          27.6369   77.1330   -0.2273 H       1  UNL1        0.2105
     39 H          23.7524   74.6120   -0.9546 H       1  UNL1        0.2106
     40 H          27.9060   74.0941   -2.2890 H       1  UNL1        0.2106
     41 O          29.4117   75.9085   -4.4487 O.co2   1  UNL1       -0.5466
     42 O          28.0878   74.7410   -5.8915 O.co2   1  UNL1       -0.5466
     43 C          28.2286   75.4029   -4.8733 C.2     1  UNL1        0.0799
@<TRIPOS>UNITY_ATOM_ATTR
41 1
charge -1
@<TRIPOS>BOND
     1     1     4    1
     2     1    24    1
     3     1     2    1
     4     1     3    2
     5    25    28    1
     6    25    24    1
     7    25    26    1
     8    25    27    2
     9     6    11    1
    10     6    12    1
    11    29    36    1
    12    29    37    1
    13     7     9    1
    14     7    13    1
    15     8    10    1
    16     8    14    1
    17     4     5    1
    18    28    36    1
    19    30    33    1
    20    30    38    1
    21    31    34    1
    22    31    39    1
    23    32    35    1
    24    32    40    1
    25    41    43   ar
    26    15    19    2
    27    42    43   ar
    28    16    22    2
    29    17    12    1
    30    17    19   ar
    31    17    20   ar
    32    18    19   ar
    33    18    22   ar
    34    18    23    1
    35     9    10    1
    36     9    11    1
    37    10    12    1
    38    11     5    1
    39    33    34    1
    40    33    35    1
    41    34    36    1
    42    35    37    1
    43    37    43    1
    44    20    21   ar
    45    21    22   ar
@<TRIPOS>MOLECULE
UDP-glaA
 43 45 0 0 0
SMALL
GASTEIGER

@<TRIPOS>ATOM
      1 P          19.6392   70.2063   -3.1241 P.3     1  UNL1        0.2189
      2 O          19.1529   69.1301   -4.2298 O.3     1  UNL1       -0.4371
      3 O          19.7136   69.6816   -1.7200 O.2     1  UNL1       -0.5170
      4 O          18.6556   71.4698   -3.3511 O.3     1  UNL1       -0.3112
      5 C          19.0860   72.7495   -2.9194 C.3     1  UNL1        0.1811
      6 O          18.4518   73.8694   -4.9487 O.3     1  UNL1       -0.3308
      7 O          15.9694   74.7069   -3.4902 O.3     1  UNL1       -0.3794
      8 O          15.0919   72.6192   -5.0091 O.3     1  UNL1       -0.3779
      9 C          16.6990   73.4831   -3.4024 C.3     1  UNL1        0.1713
     10 C          16.4534   72.6359   -4.6330 C.3     1  UNL1        0.1895
     11 C          18.1811   73.8097   -3.5308 C.3     1  UNL1        0.1764
     12 C          17.3362   73.3158   -5.6658 C.3     1  UNL1        0.2383
     13 H          16.1878   75.2318   -2.7013 H       1  UNL1        0.2105
     14 H          14.5843   72.2724   -4.2553 H       1  UNL1        0.2106
     15 O          15.8280   72.3909   -7.8670 O.2     1  UNL1       -0.2464
     16 O          19.3172   69.8017   -9.4034 O.2     1  UNL1       -0.2670
     17 N          17.8256   72.4003   -6.6566 N.ar    1  UNL1       -0.2551
     18 N          17.5663   71.1018   -8.6303 N.ar    1  UNL1       -0.2743
     19 C          16.9870   71.9978   -7.7222 C.ar    1  UNL1        0.3323
     20 C          19.1238   71.9105   -6.5667 C.ar    1  UNL1        0.0869
     21 C          19.6618   71.0571   -7.4409 C.ar    1  UNL1        0.0795
     22 C          18.8524   70.5867   -8.5825 C.ar    1  UNL1        0.2626
     23 H          16.9816   70.7983   -9.4043 H       1  UNL1        0.1734
     24 O          21.0471   70.7300   -3.7229 O.3     1  UNL1       -0.2703
     25 P          22.3631   71.3099   -2.9849 P.3     1  UNL1        0.2208
     26 O          22.4951   72.8066   -3.5835 O.3     1  UNL1       -0.4371
     27 O          23.5907   70.4621   -3.1587 O.2     1  UNL1       -0.5170
     28 O          21.9113   71.5221   -1.4503 O.3     1  UNL1       -0.2858
     29 O          23.4676   72.8621   -0.2749 O.3     1  UNL1       -0.3226
     30 O          20.8449   71.7232    2.7424 O.3     1  UNL1       -0.3794
     31 O          21.6784   69.8111    0.7040 O.3     1  UNL1       -0.3775
     32 O          22.9624   73.4779    2.4827 O.3     1  UNL1       -0.3792
     33 C          21.2811   72.0938    1.4375 C.3     1  UNL1        0.1718
     34 C          22.2969   71.0776    0.9049 C.3     1  UNL1        0.1968
     35 C          21.9174   73.4848    1.5045 C.3     1  UNL1        0.1723
     36 C          22.8997   71.5564   -0.4217 C.3     1  UNL1        0.2706
     37 C          22.5182   73.8403    0.1463 C.3     1  UNL1        0.1830
     38 H          20.2069   72.3939    3.0400 H       1  UNL1        0.2105
     39 H          22.3556   69.2054    0.3586 H       1  UNL1        0.2106
     40 H          23.7218   72.9912    2.1200 H       1  UNL1        0.2106
     41 O          22.4595   76.1659   -0.1568 O.co2   1  UNL1       -0.5466
     42 O          24.4366   75.2571    0.5231 O.co2   1  UNL1       -0.5466
     43 C          23.2639   75.1357    0.1999 C.2     1  UNL1        0.0799
@<TRIPOS>UNITY_ATOM_ATTR
41 1
charge -1
@<TRIPOS>BOND
     1     1     4    1
     2     1    24    1
     3     1     2    1
     4     1     3    2
     5    25    28    1
     6    25    24    1
     7    25    26    1
     8    25    27    2
     9     6    11    1
    10     6    12    1
    11    29    36    1
    12    29    37    1
    13     7     9    1
    14     7    13    1
    15     8    10    1
    16     8    14    1
    17     4     5    1
    18    28    36    1
    19    30    33    1
    20    30    38    1
    21    31    34    1
    22    31    39    1
    23    32    35    1
    24    32    40    1
    25    41    43   ar
    26    15    19    2
    27    42    43   ar
    28    16    22    2
    29    17    12    1
    30    17    19   ar
    31    17    20   ar
    32    18    19   ar
    33    18    22   ar
    34    18    23    1
    35     9    10    1
    36     9    11    1
    37    10    12    1
    38    11     5    1
    39    33    34    1
    40    33    35    1
    41    34    36    1
    42    35    37    1
    43    37    43    1
    44    20    21   ar
    45    21    22   ar
@<TRIPOS>MOLECULE
UDP-glaA
 43 45 0 0 0
SMALL
GASTEIGER

@<TRIPOS>ATOM
      1 P          22.0859   72.6534   -4.5231 P.3     1  UNL1        0.2189
      2 O          22.0414   72.6750   -6.1401 O.3     1  UNL1       -0.4371
      3 O          23.3293   72.0560   -3.9320 O.2     1  UNL1       -0.5170
      4 O          20.6960   71.9405   -4.1044 O.3     1  UNL1       -0.3112
      5 C          19.8477   71.4548   -5.1309 C.3     1  UNL1        0.1811
      6 O          17.5961   72.2939   -5.1111 O.3     1  UNL1       -0.3308
      7 O          16.8071   69.6176   -4.0127 O.3     1  UNL1       -0.3794
      8 O          16.1270   69.4051   -6.6448 O.3     1  UNL1       -0.3779
      9 C          17.8115   69.9386   -4.9749 C.3     1  UNL1        0.1713
     10 C          17.1738   70.2897   -6.3026 C.3     1  UNL1        0.1895
     11 C          18.4472   71.2611   -4.5670 C.3     1  UNL1        0.1764
     12 C          16.6835   71.7057   -6.0526 C.3     1  UNL1        0.2383
     13 H          17.2592   69.4384   -3.1707 H       1  UNL1        0.2105
     14 H          16.5013   68.5079   -6.6784 H       1  UNL1        0.2106
     15 O          18.6283   71.5512   -8.0945 O.2     1  UNL1       -0.2464
     16 O          16.5275   74.8039  -10.5935 O.2     1  UNL1       -0.2670
     17 N          16.6691   72.4999   -7.2478 N.ar    1  UNL1       -0.2551
     18 N          17.5812   73.1714   -9.3373 N.ar    1  UNL1       -0.2743
     19 C          17.6937   72.3459   -8.2108 C.ar    1  UNL1        0.3323
     20 C          15.6474   73.4197   -7.4566 C.ar    1  UNL1        0.0869
     21 C          15.5540   74.1991   -8.5362 C.ar    1  UNL1        0.0795
     22 C          16.5842   74.1011   -9.5891 C.ar    1  UNL1        0.2626
     23 H          18.3071   73.0782  -10.0426 H       1  UNL1        0.1734
     24 O          21.8317   74.2021   -4.1329 O.3     1  UNL1       -0.2703
     25 P          21.3441   74.8806   -2.7493 P.3     1  UNL1        0.2208
     26 O          19.7361   74.7143   -2.8008 O.3     1  UNL1       -0.4371
     27 O          21.8154   76.2936   -2.5565 O.2     1  UNL1       -0.5170
     28 O          21.8242   73.8551   -1.5995 O.3     1  UNL1       -0.2858
     29 O          21.2083   71.8135   -0.5738 O.3     1  UNL1       -0.3226
     30 O          21.6508   74.3349    2.7012 O.3     1  UNL1       -0.3794
     31 O          20.3709   75.2878    0.2600 O.3     1  UNL1       -0.3775
     32 O          21.2513   71.6328    2.2904 O.3     1  UNL1       -0.3792
     33 C          21.8982   73.7869    1.4094 C.3     1  UNL1        0.1718
     34 C          20.6529   73.9179    0.5259 C.3     1  UNL1        0.1968
     35 C          22.2794   72.3118    1.5619 C.3     1  UNL1        0.1723
     36 C          20.8505   73.1802   -0.8042 C.3     1  UNL1        0.2706
     37 C          22.4097   71.6701    0.1823 C.3     1  UNL1        0.1830
     38 H          22.4628   74.2282    3.2255 H       1  UNL1        0.2105
     39 H          19.5830   75.3202   -0.3083 H       1  UNL1        0.2106
     40 H          20.4815   71.5213    1.7072 H       1  UNL1        0.2106
     41 O          21.4921   69.5337    0.4942 O.co2   1  UNL1       -0.5466
     42 O          23.7477   69.6603    0.1892 O.co2   1  UNL1       -0.5466
     43 C          22.6540   70.1981    0.2843 C.2     1  UNL1        0.0799
@<TRIPOS>UNITY_ATOM_ATTR
41 1
charge -1
@<TRIPOS>BOND
     1     1     4    1
     2     1    24    1
     3     1     2    1
     4     1     3    2
     5    25    28    1
     6    25    24    1
     7    25    26    1
     8    25    27    2
     9     6    11    1
    10     6    12    1
    11    29    36    1
    12    29    37    1
    13     7     9    1
    14     7    13    1
    15     8    10    1
    16     8    14    1
    17     4     5    1
    18    28    36    1
    19    30    33    1
    20    30    38    1
    21    31    34    1
    22    31    39    1
    23    32    35    1
    24    32    40    1
    25    41    43   ar
    26    15    19    2
    27    42    43   ar
    28    16    22    2
    29    17    12    1
    30    17    19   ar
    31    17    20   ar
    32    18    19   ar
    33    18    22   ar
    34    18    23    1
    35     9    10    1
    36     9    11    1
    37    10    12    1
    38    11     5    1
    39    33    34    1
    40    33    35    1
    41    34    36    1
    42    35    37    1
    43    37    43    1
    44    20    21   ar
    45    21    22   ar
@<TRIPOS>MOLECULE
UDP-glaA
 43 45 0 0 0
SMALL
GASTEIGER

@<TRIPOS>ATOM
      1 P          18.7073   70.0863   -3.4792 P.3     1  UNL1        0.2189
      2 O          18.2908   69.2991   -2.1286 O.3     1  UNL1       -0.4371
      3 O          19.7456   69.3996   -4.3174 O.2     1  UNL1       -0.5170
      4 O          19.0896   71.5705   -2.9630 O.3     1  UNL1       -0.3112
      5 C          19.8900   71.6981   -1.8001 C.3     1  UNL1        0.1811
      6 O          21.9770   72.8372   -1.4524 O.3     1  UNL1       -0.3308
      7 O          23.2731   70.4669   -2.7535 O.3     1  UNL1       -0.3794
      8 O          23.7081   70.0026   -0.1020 O.3     1  UNL1       -0.3779
      9 C          22.1394   70.5141   -1.8875 C.3     1  UNL1        0.1713
     10 C          22.5783   70.7707   -0.4613 C.3     1  UNL1        0.1895
     11 C          21.3533   71.7778   -2.2112 C.3     1  UNL1        0.1764
     12 C          22.8690   72.2617   -0.4837 C.3     1  UNL1        0.2383
     13 H          22.9412   70.3402   -3.6587 H       1  UNL1        0.2105
     14 H          23.4741   69.0656   -0.2184 H       1  UNL1        0.2106
     15 O          21.4265   71.0772    1.6356 O.2     1  UNL1       -0.2464
     16 O          22.0547   74.7442    4.3553 O.2     1  UNL1       -0.2670
     17 N          22.6408   72.8839    0.7891 N.ar    1  UNL1       -0.2551
     18 N          21.7398   72.9042    2.9884 N.ar    1  UNL1       -0.2743
     19 C          21.9025   72.2039    1.7858 C.ar    1  UNL1        0.3323
     20 C          23.1461   74.1548    1.0399 C.ar    1  UNL1        0.0869
     21 C          22.9828   74.8090    2.1919 C.ar    1  UNL1        0.0795
     22 C          22.2232   74.1693    3.2843 C.ar    1  UNL1        0.2626
     23 H          21.2118   72.4349    3.7191 H       1  UNL1        0.1734
     24 O          17.2872   70.3136   -4.2187 O.3     1  UNL1       -0.2703
     25 P          16.9176   71.0844   -5.5905 P.3     1  UNL1        0.2208
     26 O          15.6755   72.0281   -5.1628 O.3     1  UNL1       -0.4371
     27 O          16.6339   70.1744   -6.7512 O.2     1  UNL1       -0.5170
     28 O          18.1437   72.1061   -5.8286 O.3     1  UNL1       -0.2858
     29 O          19.4358   70.9040   -7.4049 O.3     1  UNL1       -0.3226
     30 O          21.2683   74.6350   -7.4406 O.3     1  UNL1       -0.3794
     31 O          20.3871   73.4410   -4.9298 O.3     1  UNL1       -0.3775
     32 O          21.4378   72.3035   -8.9122 O.3     1  UNL1       -0.3792
     33 C          20.2184   73.6766   -7.3428 C.3     1  UNL1        0.1718
     34 C          20.4655   72.7319   -6.1618 C.3     1  UNL1        0.1968
     35 C          20.1537   72.8781   -8.6477 C.3     1  UNL1        0.1723
     36 C          19.4362   71.5948   -6.1512 C.3     1  UNL1        0.2706
     37 C          19.1307   71.7526   -8.5105 C.3     1  UNL1        0.1830
     38 H          21.0721   75.2085   -8.2009 H       1  UNL1        0.2105
     39 H          20.5401   72.8022   -4.2133 H       1  UNL1        0.2106
     40 H          21.5769   71.5624   -8.2986 H       1  UNL1        0.2106
     41 O          18.6357   69.6422   -9.4076 O.co2   1  UNL1       -0.5466
     42 O          19.5090   71.1956  -10.8292 O.co2   1  UNL1       -0.5466
     43 C          19.1267   70.8668   -9.7156 C.2     1  UNL1        0.0799
@<TRIPOS>UNITY_ATOM_ATTR
41 1
charge -1
@<TRIPOS>BOND
     1     1     4    1
     2     1    24    1
     3     1     2    1
     4     1     3    2
     5    25    28    1
     6    25    24    1
     7    25    26    1
     8    25    27    2
     9     6    11    1
    10     6    12    1
    11    29    36    1
    12    29    37    1
    13     7     9    1
    14     7    13    1
    15     8    10    1
    16     8    14    1
    17     4     5    1
    18    28    36    1
    19    30    33    1
    20    30    38    1
    21    31    34    1
    22    31    39    1
    23    32    35    1
    24    32    40    1
    25    41    43   ar
    26    15    19    2
    27    42    43   ar
    28    16    22    2
    29    17    12    1
    30    17    19   ar
    31    17    20   ar
    32    18    19   ar
    33    18    22   ar
    34    18    23    1
    35     9    10    1
    36     9    11    1
    37    10    12    1
    38    11     5    1
    39    33    34    1
    40    33    35    1
    41    34    36    1
    42    35    37    1
    43    37    43    1
    44    20    21   ar
    45    21    22   ar
@<TRIPOS>MOLECULE
UDP-glaA
 43 45 0 0 0
SMALL
GASTEIGER

@<TRIPOS>ATOM
      1 P          22.3950   72.6909   -4.4925 P.3     1  UNL1        0.2189
      2 O          23.9442   72.9859   -4.1313 O.3     1  UNL1       -0.4371
      3 O          21.8113   71.4762   -3.8323 O.2     1  UNL1       -0.5170
      4 O          22.3643   72.6952   -6.1095 O.3     1  UNL1       -0.3112
      5 C          21.1484   73.0172   -6.7631 C.3     1  UNL1        0.1811
      6 O          19.0087   71.9276   -6.8561 O.3     1  UNL1       -0.3308
      7 O          20.3052   69.9497   -8.6996 O.3     1  UNL1       -0.3794
      8 O          18.9476   71.5690  -10.4231 O.3     1  UNL1       -0.3779
      9 C          20.5242   71.3557   -8.5848 C.3     1  UNL1        0.1713
     10 C          19.3654   72.1189   -9.1908 C.3     1  UNL1        0.1895
     11 C          20.4166   71.7291   -7.1122 C.3     1  UNL1        0.1764
     12 C          18.3066   71.9973   -8.1081 C.3     1  UNL1        0.2383
     13 H          21.0517   69.5037   -8.2644 H       1  UNL1        0.2105
     14 H          19.7118   71.5846  -11.0247 H       1  UNL1        0.2106
     15 O          19.0674   74.6468   -8.7220 O.2     1  UNL1       -0.2464
     16 O          14.8070   76.2373   -7.9752 O.2     1  UNL1       -0.2670
     17 N          17.4168   73.1229   -8.0827 N.ar    1  UNL1       -0.2551
     18 N          16.9455   75.4372   -8.3492 N.ar    1  UNL1       -0.2743
     19 C          17.8993   74.4124   -8.4070 C.ar    1  UNL1        0.3323
     20 C          16.0815   72.9433   -7.7389 C.ar    1  UNL1        0.0869
     21 C          15.1844   73.9304   -7.6889 C.ar    1  UNL1        0.0795
     22 C          15.6070   75.3075   -8.0124 C.ar    1  UNL1        0.2626
     23 H          17.2701   76.3728   -8.5778 H       1  UNL1        0.1734
     24 O          21.6630   74.0817   -4.1117 O.3     1  UNL1       -0.2703
     25 P          20.6827   74.4625   -2.8844 P.3     1  UNL1        0.2208
     26 O          19.3626   73.5741   -3.1745 O.3     1  UNL1       -0.4371
     27 O          20.4200   75.9342   -2.7395 O.2     1  UNL1       -0.5170
     28 O          21.3609   73.7759   -1.5911 O.3     1  UNL1       -0.2858
     29 O          20.9855   71.7412   -0.4429 O.3     1  UNL1       -0.3226
     30 O          21.8001   74.3644    2.6771 O.3     1  UNL1       -0.3794
     31 O          20.1387   75.2032    0.4317 O.3     1  UNL1       -0.3775
     32 O          21.4549   71.6392    2.3869 O.3     1  UNL1       -0.3792
     33 C          21.8776   73.7914    1.3748 C.3     1  UNL1        0.1718
     34 C          20.5121   73.8524    0.6820 C.3     1  UNL1        0.1968
     35 C          22.3367   72.3361    1.5006 C.3     1  UNL1        0.1723
     36 C          20.5425   73.0870   -0.6468 C.3     1  UNL1        0.2706
     37 C          22.2895   71.6629    0.1306 C.3     1  UNL1        0.1830
     38 H          22.6838   74.3020    3.0781 H       1  UNL1        0.2105
     39 H          19.2754   75.1910   -0.0148 H       1  UNL1        0.2106
     40 H          20.6132   71.4836    1.9260 H       1  UNL1        0.2106
     41 O          21.4848   69.4874    0.4818 O.co2   1  UNL1       -0.5466
     42 O          23.7190   69.7175    0.0913 O.co2   1  UNL1       -0.5466
     43 C          22.6058   70.2042    0.2266 C.2     1  UNL1        0.0799
@<TRIPOS>UNITY_ATOM_ATTR
41 1
charge -1
@<TRIPOS>BOND
     1     1     4    1
     2     1    24    1
     3     1     2    1
     4     1     3    2
     5    25    28    1
     6    25    24    1
     7    25    26    1
     8    25    27    2
     9     6    11    1
    10     6    12    1
    11    29    36    1
    12    29    37    1
    13     7     9    1
    14     7    13    1
    15     8    10    1
    16     8    14    1
    17     4     5    1
    18    28    36    1
    19    30    33    1
    20    30    38    1
    21    31    34    1
    22    31    39    1
    23    32    35    1
    24    32    40    1
    25    41    43   ar
    26    15    19    2
    27    42    43   ar
    28    16    22    2
    29    17    12    1
    30    17    19   ar
    31    17    20   ar
    32    18    19   ar
    33    18    22   ar
    34    18    23    1
    35     9    10    1
    36     9    11    1
    37    10    12    1
    38    11     5    1
    39    33    34    1
    40    33    35    1
    41    34    36    1
    42    35    37    1
    43    37    43    1
    44    20    21   ar
    45    21    22   ar
@<TRIPOS>MOLECULE
UDP-glaA
 43 45 0 0 0
SMALL
GASTEIGER

@<TRIPOS>ATOM
      1 P          22.6302   75.8137   -4.3334 P.3     1  UNL1        0.2189
      2 O          24.1004   75.2874   -4.7565 O.3     1  UNL1       -0.4371
      3 O          22.3892   77.2760   -4.5694 O.2     1  UNL1       -0.5170
      4 O          22.4612   75.3110   -2.8055 O.3     1  UNL1       -0.3112
      5 C          21.8185   74.0702   -2.5678 C.3     1  UNL1        0.1811
      6 O          23.4085   72.9343   -1.1692 O.3     1  UNL1       -0.3308
      7 O          23.3685   70.7471   -3.2201 O.3     1  UNL1       -0.3794
      8 O          21.7534   69.7549   -1.2598 O.3     1  UNL1       -0.3779
      9 C          22.3017   71.5811   -2.7681 C.3     1  UNL1        0.1713
     10 C          21.8547   71.1584   -1.3846 C.3     1  UNL1        0.1895
     11 C          22.8692   72.9705   -2.5090 C.3     1  UNL1        0.1764
     12 C          22.9467   71.7455   -0.5067 C.3     1  UNL1        0.2383
     13 H          23.6470   71.0791   -4.0905 H       1  UNL1        0.2105
     14 H          21.1169   69.4468   -1.9276 H       1  UNL1        0.2106
     15 O          23.0662   70.0417    1.7423 O.2     1  UNL1       -0.2464
     16 O          21.0856   73.1911    4.4621 O.2     1  UNL1       -0.2670
     17 N          22.4703   72.0946    0.8011 N.ar    1  UNL1       -0.2551
     18 N          22.0794   71.6109    3.0950 N.ar    1  UNL1       -0.2743
     19 C          22.5763   71.1660    1.8628 C.ar    1  UNL1        0.3323
     20 C          21.9050   73.3456    1.0218 C.ar    1  UNL1        0.0869
     21 C          21.4362   73.7551    2.2026 C.ar    1  UNL1        0.0795
     22 C          21.5083   72.8453    3.3631 C.ar    1  UNL1        0.2626
     23 H          22.1446   70.9596    3.8727 H       1  UNL1        0.1734
     24 O          21.6432   74.8278   -5.1513 O.3     1  UNL1       -0.2703
     25 P          21.7725   74.1848   -6.6286 P.3     1  UNL1        0.2208
     26 O          22.7822   72.9411   -6.4049 O.3     1  UNL1       -0.4371
     27 O          22.2103   75.1562   -7.6870 O.2     1  UNL1       -0.5170
     28 O          20.3370   73.5010   -6.9040 O.3     1  UNL1       -0.2858
     29 O          19.0977   71.5976   -6.2402 O.3     1  UNL1       -0.3226
     30 O          18.7305   71.4761  -10.3790 O.3     1  UNL1       -0.3794
     31 O          21.2749   72.1759   -9.1372 O.3     1  UNL1       -0.3775
     32 O          17.6329   70.1345   -8.2283 O.3     1  UNL1       -0.3792
     33 C          18.8490   72.0415   -9.0765 C.3     1  UNL1        0.1718
     34 C          20.1723   71.6194   -8.4291 C.3     1  UNL1        0.1968
     35 C          17.6719   71.5654   -8.2209 C.3     1  UNL1        0.1723
     36 C          20.2328   72.0792   -6.9671 C.3     1  UNL1        0.2706
     37 C          17.8560   72.0445   -6.7826 C.3     1  UNL1        0.1830
     38 H          17.8794   71.7670  -10.7487 H       1  UNL1        0.2105
     39 H          22.0874   71.8901   -8.6867 H       1  UNL1        0.2106
     40 H          18.3573   69.8029   -7.6711 H       1  UNL1        0.2106
     41 O          15.7572   72.3576   -5.7822 O.co2   1  UNL1       -0.5466
     42 O          16.8505   70.4126   -5.3143 O.co2   1  UNL1       -0.5466
     43 C          16.7961   71.4937   -5.8824 C.2     1  UNL1        0.0799
@<TRIPOS>UNITY_ATOM_ATTR
41 1
charge -1
@<TRIPOS>BOND
     1     1     4    1
     2     1    24    1
     3     1     2    1
     4     1     3    2
     5    25    28    1
     6    25    24    1
     7    25    26    1
     8    25    27    2
     9     6    11    1
    10     6    12    1
    11    29    36    1
    12    29    37    1
    13     7     9    1
    14     7    13    1
    15     8    10    1
    16     8    14    1
    17     4     5    1
    18    28    36    1
    19    30    33    1
    20    30    38    1
    21    31    34    1
    22    31    39    1
    23    32    35    1
    24    32    40    1
    25    41    43   ar
    26    15    19    2
    27    42    43   ar
    28    16    22    2
    29    17    12    1
    30    17    19   ar
    31    17    20   ar
    32    18    19   ar
    33    18    22   ar
    34    18    23    1
    35     9    10    1
    36     9    11    1
    37    10    12    1
    38    11     5    1
    39    33    34    1
    40    33    35    1
    41    34    36    1
    42    35    37    1
    43    37    43    1
    44    20    21   ar
    45    21    22   ar
@<TRIPOS>MOLECULE
UDP-glaA
 43 45 0 0 0
SMALL
GASTEIGER

@<TRIPOS>ATOM
      1 P          19.0628   71.3493   -3.0626 P.3     1  UNL1        0.2189
      2 O          18.9165   69.7471   -2.8925 O.3     1  UNL1       -0.4371
      3 O          18.1387   72.1638   -2.2053 O.2     1  UNL1       -0.5170
      4 O          18.9331   71.5854   -4.6572 O.3     1  UNL1       -0.3112
      5 C          18.2619   70.6083   -5.4343 C.3     1  UNL1        0.1811
      6 O          18.0122   72.5696   -6.8000 O.3     1  UNL1       -0.3308
      7 O          16.0772   70.9601   -8.4300 O.3     1  UNL1       -0.3794
      8 O          18.3485   70.8640   -9.9359 O.3     1  UNL1       -0.3779
      9 C          17.2761   70.5413   -7.7780 C.3     1  UNL1        0.1713
     10 C          18.4880   71.0337   -8.5404 C.3     1  UNL1        0.1895
     11 C          17.3907   71.3086   -6.4674 C.3     1  UNL1        0.1764
     12 C          18.5449   72.4960   -8.1327 C.3     1  UNL1        0.2383
     13 H          15.3304   70.6564   -7.8863 H       1  UNL1        0.2105
     14 H          18.2084   69.9160  -10.1029 H       1  UNL1        0.2106
     15 O          20.8714   70.8985   -8.0307 O.2     1  UNL1       -0.2464
     16 O          23.6305   74.5886   -8.1246 O.2     1  UNL1       -0.2670
     17 N          19.8837   73.0127   -8.1299 N.ar    1  UNL1       -0.2551
     18 N          22.2438   72.7371   -8.0770 N.ar    1  UNL1       -0.2743
     19 C          20.9835   72.1249   -8.0756 C.ar    1  UNL1        0.3323
     20 C          20.0969   74.3858   -8.1803 C.ar    1  UNL1        0.0869
     21 C          21.3047   74.9540   -8.1814 C.ar    1  UNL1        0.0795
     22 C          22.5059   74.0975   -8.1257 C.ar    1  UNL1        0.2626
     23 H          23.0492   72.1182   -8.0379 H       1  UNL1        0.1734
     24 O          20.6360   71.6010   -2.7850 O.3     1  UNL1       -0.2703
     25 P          21.6639   70.8720   -1.7729 P.3     1  UNL1        0.2208
     26 O          22.8446   70.3564   -2.7509 O.3     1  UNL1       -0.4371
     27 O          21.0407   69.7948   -0.9321 O.2     1  UNL1       -0.5170
     28 O          22.3293   72.0755   -0.9287 O.3     1  UNL1       -0.2858
     29 O          21.0415   73.0607    0.7948 O.3     1  UNL1       -0.3226
     30 O          24.0948   75.8366    0.2936 O.3     1  UNL1       -0.3794
     31 O          22.8629   74.5554   -2.0187 O.3     1  UNL1       -0.3775
     32 O          22.0263   75.4313    2.0789 O.3     1  UNL1       -0.3792
     33 C          23.4577   74.5628    0.3377 C.3     1  UNL1        0.1718
     34 C          22.3317   74.4923   -0.6993 C.3     1  UNL1        0.1968
     35 C          22.8907   74.3411    1.7426 C.3     1  UNL1        0.1723
     36 C          21.5306   73.1936   -0.5438 C.3     1  UNL1        0.2706
     37 C          22.0819   73.0460    1.7711 C.3     1  UNL1        0.1830
     38 H          24.7969   75.8369    0.9664 H       1  UNL1        0.2105
     39 H          22.1164   74.4978   -2.6386 H       1  UNL1        0.2106
     40 H          21.2001   75.3371    1.5753 H       1  UNL1        0.2106
     41 O          22.1521   72.0772    3.9066 O.co2   1  UNL1       -0.5466
     42 O          20.3191   73.3328    3.3958 O.co2   1  UNL1       -0.5466
     43 C          21.4016   72.8546    3.0892 C.2     1  UNL1        0.0799
@<TRIPOS>UNITY_ATOM_ATTR
41 1
charge -1
@<TRIPOS>BOND
     1     1     4    1
     2     1    24    1
     3     1     2    1
     4     1     3    2
     5    25    28    1
     6    25    24    1
     7    25    26    1
     8    25    27    2
     9     6    11    1
    10     6    12    1
    11    29    36    1
    12    29    37    1
    13     7     9    1
    14     7    13    1
    15     8    10    1
    16     8    14    1
    17     4     5    1
    18    28    36    1
    19    30    33    1
    20    30    38    1
    21    31    34    1
    22    31    39    1
    23    32    35    1
    24    32    40    1
    25    41    43   ar
    26    15    19    2
    27    42    43   ar
    28    16    22    2
    29    17    12    1
    30    17    19   ar
    31    17    20   ar
    32    18    19   ar
    33    18    22   ar
    34    18    23    1
    35     9    10    1
    36     9    11    1
    37    10    12    1
    38    11     5    1
    39    33    34    1
    40    33    35    1
    41    34    36    1
    42    35    37    1
    43    37    43    1
    44    20    21   ar
    45    21    22   ar
@<TRIPOS>MOLECULE
UDP-glaA
 43 45 0 0 0
SMALL
GASTEIGER

@<TRIPOS>ATOM
      1 P          18.3093   70.3272   -3.2521 P.3     1  UNL1        0.2189
      2 O          16.9939   71.0132   -2.6068 O.3     1  UNL1       -0.4371
      3 O          18.1860   68.8571   -3.5276 O.2     1  UNL1       -0.5170
      4 O          19.5041   70.7567   -2.2503 O.3     1  UNL1       -0.3112
      5 C          19.9198   72.1117   -2.2335 C.3     1  UNL1        0.1811
      6 O          22.0248   73.1087   -1.6423 O.3     1  UNL1       -0.3308
      7 O          23.3029   70.8643   -3.1656 O.3     1  UNL1       -0.3794
      8 O          23.5757   70.0571   -0.5753 O.3     1  UNL1       -0.3779
      9 C          22.1261   70.8524   -2.3577 C.3     1  UNL1        0.1713
     10 C          22.4958   70.9115   -0.8905 C.3     1  UNL1        0.1895
     11 C          21.4053   72.1790   -2.5583 C.3     1  UNL1        0.1764
     12 C          22.8412   72.3799   -0.7108 C.3     1  UNL1        0.2383
     13 H          23.0165   70.8649   -4.0949 H       1  UNL1        0.2105
     14 H          23.3145   69.1527   -0.8201 H       1  UNL1        0.2106
     15 O          21.2124   71.0238    1.1556 O.2     1  UNL1       -0.2464
     16 O          21.8569   74.2760    4.3566 O.2     1  UNL1       -0.2670
     17 N          22.5668   72.8490    0.6174 N.ar    1  UNL1       -0.2551
     18 N          21.5340   72.6445    2.7482 N.ar    1  UNL1       -0.2743
     19 C          21.7348   72.0930    1.4759 C.ar    1  UNL1        0.3323
     20 C          23.1195   74.0466    1.0575 C.ar    1  UNL1        0.0869
     21 C          22.9189   74.5588    2.2738 C.ar    1  UNL1        0.0795
     22 C          22.0618   73.8319    3.2311 C.ar    1  UNL1        0.2626
     23 H          20.9387   72.1183    3.3822 H       1  UNL1        0.1734
     24 O          18.5876   71.2365   -4.5600 O.3     1  UNL1       -0.2703
     25 P          18.1587   71.0313   -6.1049 P.3     1  UNL1        0.2208
     26 O          16.7833   70.1868   -5.9991 O.3     1  UNL1       -0.4371
     27 O          19.2158   70.3902   -6.9577 O.2     1  UNL1       -0.5170
     28 O          17.7009   72.4972   -6.6004 O.3     1  UNL1       -0.2858
     29 O          16.1909   73.2532   -8.2580 O.3     1  UNL1       -0.3226
     30 O          19.2695   76.0309   -8.5521 O.3     1  UNL1       -0.3794
     31 O          19.8593   73.2001   -8.1719 O.3     1  UNL1       -0.3775
     32 O          16.7283   75.7361   -9.5940 O.3     1  UNL1       -0.3792
     33 C          18.3726   75.1085   -7.9395 C.3     1  UNL1        0.1718
     34 C          18.5734   73.7036   -8.5177 C.3     1  UNL1        0.1968
     35 C          16.9358   75.5764   -8.1868 C.3     1  UNL1        0.1723
     36 C          17.5010   72.7414   -7.9920 C.3     1  UNL1        0.2706
     37 C          15.9572   74.5281   -7.6617 C.3     1  UNL1        0.1830
     38 H          19.1057   76.9048   -8.1584 H       1  UNL1        0.2105
     39 H          19.9366   72.3081   -8.5503 H       1  UNL1        0.2106
     40 H          16.6626   74.8546   -9.9986 H       1  UNL1        0.2106
     41 O          14.1138   74.1723   -9.0685 O.co2   1  UNL1       -0.5466
     42 O          13.8617   75.6969   -7.3925 O.co2   1  UNL1       -0.5466
     43 C          14.5435   74.8824   -7.9977 C.2     1  UNL1        0.0799
@<TRIPOS>UNITY_ATOM_ATTR
41 1
charge -1
@<TRIPOS>BOND
     1     1     4    1
     2     1    24    1
     3     1     2    1
     4     1     3    2
     5    25    28    1
     6    25    24    1
     7    25    26    1
     8    25    27    2
     9     6    11    1
    10     6    12    1
    11    29    36    1
    12    29    37    1
    13     7     9    1
    14     7    13    1
    15     8    10    1
    16     8    14    1
    17     4     5    1
    18    28    36    1
    19    30    33    1
    20    30    38    1
    21    31    34    1
    22    31    39    1
    23    32    35    1
    24    32    40    1
    25    41    43   ar
    26    15    19    2
    27    42    43   ar
    28    16    22    2
    29    17    12    1
    30    17    19   ar
    31    17    20   ar
    32    18    19   ar
    33    18    22   ar
    34    18    23    1
    35     9    10    1
    36     9    11    1
    37    10    12    1
    38    11     5    1
    39    33    34    1
    40    33    35    1
    41    34    36    1
    42    35    37    1
    43    37    43    1
    44    20    21   ar
    45    21    22   ar
@<TRIPOS>MOLECULE
UDP-glaA
 43 45 0 0 0
SMALL
GASTEIGER

@<TRIPOS>ATOM
      1 P          22.3149   74.5040   -6.4281 P.3     1  UNL1        0.2189
      2 O          22.4502   72.9009   -6.2567 O.3     1  UNL1       -0.4371
      3 O          23.5294   75.1854   -6.9875 O.2     1  UNL1       -0.5170
      4 O          21.8323   75.0125   -4.9707 O.3     1  UNL1       -0.3112
      5 C          21.7933   74.0778   -3.9058 C.3     1  UNL1        0.1811
      6 O          20.4591   72.2293   -3.1460 O.3     1  UNL1       -0.3308
      7 O          18.1235   74.1056   -3.2720 O.3     1  UNL1       -0.3794
      8 O          18.7150   74.0689   -0.6103 O.3     1  UNL1       -0.3779
      9 C          19.4758   74.3706   -2.8996 C.3     1  UNL1        0.1713
     10 C          19.7612   73.8084   -1.5230 C.3     1  UNL1        0.1895
     11 C          20.3812   73.5232   -3.7839 C.3     1  UNL1        0.1764
     12 C          19.9260   72.3266   -1.8149 C.3     1  UNL1        0.2383
     13 H          17.9986   74.4482   -4.1734 H       1  UNL1        0.2105
     14 H          18.6017   75.0338   -0.5626 H       1  UNL1        0.2106
     15 O          20.4536   69.5525   -1.7780 O.2     1  UNL1       -0.2464
     16 O          23.4071   69.9757    1.7344 O.2     1  UNL1       -0.2670
     17 N          20.8286   71.6851   -0.9022 N.ar    1  UNL1       -0.2551
     18 N          21.9236   69.7650   -0.0286 N.ar    1  UNL1       -0.2743
     19 C          21.0220   70.2854   -0.9664 C.ar    1  UNL1        0.3323
     20 C          21.5113   72.4414    0.0441 C.ar    1  UNL1        0.0869
     21 C          22.3680   71.9304    0.9311 C.ar    1  UNL1        0.0795
     22 C          22.6257   70.4767    0.9317 C.ar    1  UNL1        0.2626
     23 H          22.0778   68.7607   -0.0559 H       1  UNL1        0.1734
     24 O          20.9803   74.6608   -7.3277 O.3     1  UNL1       -0.2703
     25 P          19.6937   73.6965   -7.4931 P.3     1  UNL1        0.2208
     26 O          19.0257   74.2029   -8.8763 O.3     1  UNL1       -0.4371
     27 O          18.7621   73.7050   -6.3151 O.2     1  UNL1       -0.5170
     28 O          20.3112   72.2475   -7.8442 O.3     1  UNL1       -0.2858
     29 O          19.0171   70.6040   -6.7381 O.3     1  UNL1       -0.3226
     30 O          16.1219   72.7282   -8.8321 O.3     1  UNL1       -0.3794
     31 O          18.6866   72.1022  -10.0718 O.3     1  UNL1       -0.3775
     32 O          16.1554   70.7476   -6.9070 O.3     1  UNL1       -0.3792
     33 C          17.3216   72.4948   -8.0996 C.3     1  UNL1        0.1718
     34 C          18.2286   71.5187   -8.8566 C.3     1  UNL1        0.1968
     35 C          16.9602   71.9177   -6.7282 C.3     1  UNL1        0.1723
     36 C          19.4402   71.1282   -8.0011 C.3     1  UNL1        0.2706
     37 C          18.2350   71.5281   -5.9831 C.3     1  UNL1        0.1830
     38 H          15.5788   73.3479   -8.3157 H       1  UNL1        0.2105
     39 H          19.2626   71.4534  -10.5100 H       1  UNL1        0.2106
     40 H          16.7259   70.0251   -7.2196 H       1  UNL1        0.2106
     41 O          18.6562   69.7065   -4.5661 O.co2   1  UNL1       -0.5466
     42 O          17.1271   71.2415   -3.8571 O.co2   1  UNL1       -0.5466
     43 C          17.9255   70.8405   -4.6915 C.2     1  UNL1        0.0799
@<TRIPOS>UNITY_ATOM_ATTR
41 1
charge -1
@<TRIPOS>BOND
     1     1     4    1
     2     1    24    1
     3     1     2    1
     4     1     3    2
     5    25    28    1
     6    25    24    1
     7    25    26    1
     8    25    27    2
     9     6    11    1
    10     6    12    1
    11    29    36    1
    12    29    37    1
    13     7     9    1
    14     7    13    1
    15     8    10    1
    16     8    14    1
    17     4     5    1
    18    28    36    1
    19    30    33    1
    20    30    38    1
    21    31    34    1
    22    31    39    1
    23    32    35    1
    24    32    40    1
    25    41    43   ar
    26    15    19    2
    27    42    43   ar
    28    16    22    2
    29    17    12    1
    30    17    19   ar
    31    17    20   ar
    32    18    19   ar
    33    18    22   ar
    34    18    23    1
    35     9    10    1
    36     9    11    1
    37    10    12    1
    38    11     5    1
    39    33    34    1
    40    33    35    1
    41    34    36    1
    42    35    37    1
    43    37    43    1
    44    20    21   ar
    45    21    22   ar
