@<TRIPOS>MOLECULE
UD1
 46 48 0 0 0
SMALL
GASTEIGER

@<TRIPOS>ATOM
      1 P          21.6280   70.7557   -2.6273 P.3     1  UNL1        0.2189
      2 O          21.9260   71.4104   -3.9201 O.2     1  UNL1       -0.5170
      3 O          21.2558   69.2099   -2.8817 O.3     1  UNL1       -0.4371
      4 O          20.3835   71.4977   -1.9248 O.3     1  UNL1       -0.3112
      5 C          20.0173   72.5860   -2.7745 C.3     1  UNL1        0.1811
      6 C          17.8497   71.4100   -5.3909 C.3     1  UNL1        0.2383
      7 C          18.0204   70.1905   -4.4508 C.3     1  UNL1        0.1895
      8 O          16.8529   69.3682   -4.4631 O.3     1  UNL1       -0.3779
      9 C          18.2052   70.8685   -3.0683 C.3     1  UNL1        0.1713
     10 C          18.6561   72.3014   -3.4113 C.3     1  UNL1        0.1764
     11 O          18.7583   72.3886   -4.8428 O.3     1  UNL1       -0.3308
     12 O          16.9698   70.8844   -2.3497 O.3     1  UNL1       -0.3794
     13 H          17.0234   68.6306   -3.8612 H       1  UNL1        0.2106
     14 H          16.7112   69.9624   -2.2185 H       1  UNL1        0.2105
     15 N          18.2276   71.0657   -6.7621 N.ar    1  UNL1       -0.2551
     16 C          17.2821   70.6823   -7.6375 C.ar    1  UNL1        0.3323
     17 N          17.6003   70.3636   -8.9061 N.ar    1  UNL1       -0.2743
     18 C          18.8830   70.4156   -9.3184 C.ar    1  UNL1        0.2626
     19 C          19.8892   70.8119   -8.4055 C.ar    1  UNL1        0.0795
     20 C          19.5415   71.1313   -7.1405 C.ar    1  UNL1        0.0869
     21 O          16.1208   70.6304   -7.2806 O.2     1  UNL1       -0.2464
     22 O          19.1725   70.1231  -10.4639 O.2     1  UNL1       -0.2670
     23 H          16.9048   70.0937   -9.5255 H       1  UNL1        0.1734
     24 O          22.9175   70.8475   -1.6694 O.3     1  UNL1       -0.2703
     25 P          22.4137   70.5127   -0.1783 P.3     1  UNL1        0.2208
     26 O          23.1338   69.3245    0.3303 O.2     1  UNL1       -0.5170
     27 O          20.8321   70.2121   -0.2002 O.3     1  UNL1       -0.4371
     28 O          22.7063   71.7697    0.7834 O.3     1  UNL1       -0.2865
     29 C          21.4414   72.3565    1.0949 C.3     1  UNL1        0.2611
     30 C          21.4896   73.8539    0.7862 C.3     1  UNL1        0.1582
     31 C          22.6050   74.5009    1.6148 C.3     1  UNL1        0.1625
     32 C          22.3888   74.1460    3.0897 C.3     1  UNL1        0.1686
     33 C          22.2759   72.6260    3.2251 C.3     1  UNL1        0.1760
     34 O          22.5632   75.9195    1.4492 O.3     1  UNL1       -0.3801
     35 O          23.4961   74.6150    3.8614 O.3     1  UNL1       -0.3794
     36 O          21.1543   72.1574    2.4774 O.3     1  UNL1       -0.3263
     37 H          23.2800   76.2847    1.9860 H       1  UNL1        0.2105
     38 H          23.3197   74.3704    4.7810 H       1  UNL1        0.2105
     39 C          23.0213   74.2553   -1.0651 C.2     1  UNL1        0.2231
     40 C          23.2987   74.4594   -2.5326 C.3     1  UNL1        0.0946
     41 N          21.7597   74.0517   -0.6394 N.am    1  UNL1       -0.2994
     42 O          23.9339   74.2751   -0.2670 O.2     1  UNL1       -0.2751
     43 H          21.0291   74.0361   -1.2778 H       1  UNL1        0.1496
     44 C          22.0922   72.2587    4.6990 C.3     1  UNL1        0.1693
     45 O          21.2095   73.1969    5.3177 O.3     1  UNL1       -0.3794
     46 H          21.1213   72.9302    6.2427 H       1  UNL1        0.2105
@<TRIPOS>BOND
     1    29    30    1
     2    29    28    1
     3    29    36    1
     4    30    31    1
     5    30    41    1
     6    31    32    1
     7    31    34    1
     8    32    33    1
     9    32    35    1
    10    33    44    1
    11    33    36    1
    12    44    45    1
    13    39    40    1
    14    39    41   am
    15    39    42    2
    16    41    43    1
    17    28    25    1
    18    34    37    1
    19    35    38    1
    20    45    46    1
    21    15    16   ar
    22    15    20   ar
    23    15     6    1
    24    16    17   ar
    25    16    21    2
    26    17    18   ar
    27    17    23    1
    28    18    19   ar
    29    18    22    2
    30    19    20   ar
    31     6     7    1
    32     6    11    1
    33     7     8    1
    34     7     9    1
    35     8    13    1
    36     9    10    1
    37     9    12    1
    38    10    11    1
    39    10     5    1
    40    12    14    1
    41     5     4    1
    42     4     1    1
    43     1     2    2
    44     1     3    1
    45     1    24    1
    46    24    25    1
    47    25    26    2
    48    25    27    1
@<TRIPOS>MOLECULE
UD1
 46 48 0 0 0
SMALL
GASTEIGER

@<TRIPOS>ATOM
      1 P          21.6858   70.4876   -0.5944 P.3     1  UNL1        0.2189
      2 O          23.0518   70.6089   -1.1494 O.2     1  UNL1       -0.5170
      3 O          21.6367   69.2607    0.4472 O.3     1  UNL1       -0.4371
      4 O          20.6430   70.2164   -1.7910 O.3     1  UNL1       -0.3112
      5 C          20.6378   71.3876   -2.6088 C.3     1  UNL1        0.1811
      6 C          18.1965   71.2118   -5.2426 C.3     1  UNL1        0.2383
      7 C          18.0184   69.8872   -4.4591 C.3     1  UNL1        0.1895
      8 O          16.6635   69.4394   -4.5136 O.3     1  UNL1       -0.3779
      9 C          18.4049   70.3072   -3.0171 C.3     1  UNL1        0.1713
     10 C          19.2459   71.5836   -3.2117 C.3     1  UNL1        0.1764
     11 O          19.3541   71.8153   -4.6265 O.3     1  UNL1       -0.3308
     12 O          17.2339   70.5846   -2.2460 O.3     1  UNL1       -0.3794
     13 H          16.6205   68.6149   -4.0098 H       1  UNL1        0.2106
     14 H          16.7220   69.7655   -2.2110 H       1  UNL1        0.2105
     15 N          18.4452   70.9475   -6.6602 N.ar    1  UNL1       -0.2551
     16 C          17.4080   70.8167   -7.5055 C.ar    1  UNL1        0.3323
     17 N          17.6071   70.5772   -8.8151 N.ar    1  UNL1       -0.2743
     18 C          18.8588   70.4547   -9.3009 C.ar    1  UNL1        0.2626
     19 C          19.9597   70.5842   -8.4210 C.ar    1  UNL1        0.0795
     20 C          19.7316   70.8297   -7.1130 C.ar    1  UNL1        0.0869
     21 O          16.2730   70.9246   -7.0825 O.2     1  UNL1       -0.2464
     22 O          19.0399   70.2334  -10.4839 O.2     1  UNL1       -0.2670
     23 H          16.8473   70.4905   -9.4114 H       1  UNL1        0.1734
     24 O          21.2909   71.8515    0.1625 O.3     1  UNL1       -0.2703
     25 P          22.0749   71.8471    1.5677 P.3     1  UNL1        0.2208
     26 O          22.8824   70.6123    1.6780 O.2     1  UNL1       -0.5170
     27 O          21.0122   71.9021    2.7760 O.3     1  UNL1       -0.4371
     28 O          23.0430   73.1303    1.6476 O.3     1  UNL1       -0.2865
     29 C          22.3429   74.1323    2.3872 C.3     1  UNL1        0.2611
     30 C          22.4426   75.4678    1.6478 C.3     1  UNL1        0.1582
     31 C          23.9200   75.8446    1.4905 C.3     1  UNL1        0.1625
     32 C          24.5837   75.8127    2.8713 C.3     1  UNL1        0.1686
     33 C          24.3250   74.4499    3.5172 C.3     1  UNL1        0.1760
     34 O          24.0229   77.1575    0.9363 O.3     1  UNL1       -0.3801
     35 O          25.9908   76.0169    2.7301 O.3     1  UNL1       -0.3794
     36 O          22.9214   74.2544    3.6848 O.3     1  UNL1       -0.3263
     37 H          24.9665   77.3531    0.8546 H       1  UNL1        0.2105
     38 H          26.3683   75.9887    3.6207 H       1  UNL1        0.2105
     39 C          22.5779   75.0213   -0.7431 C.2     1  UNL1        0.2231
     40 C          21.9414   74.8938   -2.1036 C.3     1  UNL1        0.0946
     41 N          21.8246   75.3432    0.3261 N.am    1  UNL1       -0.2994
     42 O          23.7686   74.8347   -0.6110 O.2     1  UNL1       -0.2751
     43 H          20.8717   75.4928    0.2206 H       1  UNL1        0.1496
     44 C          25.0114   74.3960    4.8836 C.3     1  UNL1        0.1693
     45 O          24.4633   75.4063    5.7327 O.3     1  UNL1       -0.3794
     46 H          24.9221   75.3382    6.5809 H       1  UNL1        0.2105
@<TRIPOS>BOND
     1    29    30    1
     2    29    28    1
     3    29    36    1
     4    30    31    1
     5    30    41    1
     6    31    32    1
     7    31    34    1
     8    32    33    1
     9    32    35    1
    10    33    44    1
    11    33    36    1
    12    44    45    1
    13    39    40    1
    14    39    41   am
    15    39    42    2
    16    41    43    1
    17    28    25    1
    18    34    37    1
    19    35    38    1
    20    45    46    1
    21    15    16   ar
    22    15    20   ar
    23    15     6    1
    24    16    17   ar
    25    16    21    2
    26    17    18   ar
    27    17    23    1
    28    18    19   ar
    29    18    22    2
    30    19    20   ar
    31     6     7    1
    32     6    11    1
    33     7     8    1
    34     7     9    1
    35     8    13    1
    36     9    10    1
    37     9    12    1
    38    10    11    1
    39    10     5    1
    40    12    14    1
    41     5     4    1
    42     4     1    1
    43     1     2    2
    44     1     3    1
    45     1    24    1
    46    24    25    1
    47    25    26    2
    48    25    27    1
@<TRIPOS>MOLECULE
UD1
 46 48 0 0 0
SMALL
GASTEIGER

@<TRIPOS>ATOM
      1 P          22.5432   71.8606   -3.1143 P.3     1  UNL1        0.2189
      2 O          23.5971   72.3967   -4.0036 O.2     1  UNL1       -0.5170
      3 O          22.5000   70.2560   -3.2399 O.3     1  UNL1       -0.4371
      4 O          21.1166   72.4702   -3.5457 O.3     1  UNL1       -0.3112
      5 C          20.1235   71.7720   -2.7930 C.3     1  UNL1        0.1811
      6 C          18.0199   71.2486   -5.6615 C.3     1  UNL1        0.2383
      7 C          17.8880   69.9419   -4.8397 C.3     1  UNL1        0.1895
      8 O          16.5987   69.3542   -5.0175 O.3     1  UNL1       -0.3779
      9 C          18.0681   70.4517   -3.3862 C.3     1  UNL1        0.1713
     10 C          18.7948   71.8006   -3.5499 C.3     1  UNL1        0.1764
     11 O          19.0362   71.9908   -4.9544 O.3     1  UNL1       -0.3308
     12 O          16.7969   70.6338   -2.7587 O.3     1  UNL1       -0.3794
     13 H          16.5819   68.5485   -4.4828 H       1  UNL1        0.2106
     14 H          16.3681   69.7678   -2.7400 H       1  UNL1        0.2105
     15 N          18.4497   70.9603   -7.0302 N.ar    1  UNL1       -0.2551
     16 C          17.5294   70.7336   -7.9838 C.ar    1  UNL1        0.3323
     17 N          17.8959   70.4699   -9.2520 N.ar    1  UNL1       -0.2743
     18 C          19.2013   70.4195   -9.5856 C.ar    1  UNL1        0.2626
     19 C          20.1806   70.6503   -8.5904 C.ar    1  UNL1        0.0795
     20 C          19.7852   70.9179   -7.3273 C.ar    1  UNL1        0.0869
     21 O          16.3481   70.7757   -7.6984 O.2     1  UNL1       -0.2464
     22 O          19.5338   70.1764  -10.7309 O.2     1  UNL1       -0.2670
     23 H          17.2185   70.3136   -9.9280 H       1  UNL1        0.1734
     24 O          22.8645   72.2724   -1.5925 O.3     1  UNL1       -0.2703
     25 P          23.0568   73.8699   -1.5738 P.3     1  UNL1        0.2208
     26 O          21.8177   74.5214   -2.0524 O.2     1  UNL1       -0.5170
     27 O          24.2817   74.2750   -2.5370 O.3     1  UNL1       -0.4371
     28 O          23.3731   74.3561   -0.0725 O.3     1  UNL1       -0.2865
     29 C          22.1249   74.7285    0.5143 C.3     1  UNL1        0.2611
     30 C          22.3266   75.9697    1.3854 C.3     1  UNL1        0.1582
     31 C          23.3629   75.6573    2.4708 C.3     1  UNL1        0.1625
     32 C          22.9203   74.3978    3.2229 C.3     1  UNL1        0.1686
     33 C          22.6767   73.2741    2.2133 C.3     1  UNL1        0.1760
     34 O          23.4503   76.7561    3.3799 O.3     1  UNL1       -0.3801
     35 O          23.9430   74.0046    4.1401 O.3     1  UNL1       -0.3794
     36 O          21.6366   73.6525    1.3125 O.3     1  UNL1       -0.3263
     37 H          24.1118   76.5175    4.0437 H       1  UNL1        0.2105
     38 H          23.6243   73.2096    4.5905 H       1  UNL1        0.2105
     39 C          24.1258   77.2977    0.4191 C.2     1  UNL1        0.2231
     40 C          24.6167   78.4391   -0.4345 C.3     1  UNL1        0.0946
     41 N          22.8040   77.0781    0.5559 N.am    1  UNL1       -0.2994
     42 O          24.9210   76.5772    0.9836 O.2     1  UNL1       -0.2751
     43 H          22.1674   77.6547    0.1044 H       1  UNL1        0.1496
     44 C          22.2654   72.0019    2.9573 C.3     1  UNL1        0.1693
     45 O          20.8602   72.0335    3.2149 O.3     1  UNL1       -0.3794
     46 H          20.6433   71.2164    3.6839 H       1  UNL1        0.2105
@<TRIPOS>BOND
     1    29    30    1
     2    29    28    1
     3    29    36    1
     4    30    31    1
     5    30    41    1
     6    31    32    1
     7    31    34    1
     8    32    33    1
     9    32    35    1
    10    33    44    1
    11    33    36    1
    12    44    45    1
    13    39    40    1
    14    39    41   am
    15    39    42    2
    16    41    43    1
    17    28    25    1
    18    34    37    1
    19    35    38    1
    20    45    46    1
    21    15    16   ar
    22    15    20   ar
    23    15     6    1
    24    16    17   ar
    25    16    21    2
    26    17    18   ar
    27    17    23    1
    28    18    19   ar
    29    18    22    2
    30    19    20   ar
    31     6     7    1
    32     6    11    1
    33     7     8    1
    34     7     9    1
    35     8    13    1
    36     9    10    1
    37     9    12    1
    38    10    11    1
    39    10     5    1
    40    12    14    1
    41     5     4    1
    42     4     1    1
    43     1     2    2
    44     1     3    1
    45     1    24    1
    46    24    25    1
    47    25    26    2
    48    25    27    1
@<TRIPOS>MOLECULE
UD1
 46 48 0 0 0
SMALL
GASTEIGER

@<TRIPOS>ATOM
      1 P          22.9062   71.9997   -3.4573 P.3     1  UNL1        0.2189
      2 O          23.4892   70.6579   -3.2367 O.2     1  UNL1       -0.5170
      3 O          23.9240   72.8900   -4.3314 O.3     1  UNL1       -0.4371
      4 O          22.6535   72.7145   -2.0368 O.3     1  UNL1       -0.3112
      5 C          21.5901   72.0048   -1.3997 C.3     1  UNL1        0.1811
      6 C          20.5044   74.0055    1.3834 C.3     1  UNL1        0.2383
      7 C          21.4102   74.9512    0.5554 C.3     1  UNL1        0.1895
      8 O          20.9833   76.3081    0.6818 O.3     1  UNL1       -0.3779
      9 C          21.1873   74.4332   -0.8893 C.3     1  UNL1        0.1713
     10 C          20.6635   72.9971   -0.6954 C.3     1  UNL1        0.1764
     11 O          20.6474   72.7327    0.7177 O.3     1  UNL1       -0.3308
     12 O          20.2195   75.2386   -1.5658 O.3     1  UNL1       -0.3794
     13 H          21.5855   76.8423    0.1457 H       1  UNL1        0.2106
     14 H          20.5788   76.1351   -1.6025 H       1  UNL1        0.2105
     15 N          20.9713   73.9194    2.7676 N.ar    1  UNL1       -0.2551
     16 C          21.2757   72.7207    3.2948 C.ar    1  UNL1        0.3323
     17 N          21.7113   72.6121    4.5639 N.ar    1  UNL1       -0.2743
     18 C          21.8409   73.7110    5.3342 C.ar    1  UNL1        0.2626
     19 C          21.5182   74.9786    4.7938 C.ar    1  UNL1        0.0795
     20 C          21.0887   75.0594    3.5162 C.ar    1  UNL1        0.0869
     21 O          21.1641   71.7204    2.6125 O.2     1  UNL1       -0.2464
     22 O          22.2300   73.6134    6.4834 O.2     1  UNL1       -0.2670
     23 H          21.9308   71.7399    4.9263 H       1  UNL1        0.1734
     24 O          21.5086   71.8554   -4.2414 O.3     1  UNL1       -0.2703
     25 P          21.4229   73.0900   -5.2699 P.3     1  UNL1        0.2208
     26 O          22.6636   73.1494   -6.0736 O.2     1  UNL1       -0.5170
     27 O          21.2508   74.4634   -4.4475 O.3     1  UNL1       -0.4371
     28 O          20.1598   72.8894   -6.2470 O.3     1  UNL1       -0.2865
     29 C          20.2126   71.5429   -6.7216 C.3     1  UNL1        0.2611
     30 C          20.2160   71.5464   -8.2513 C.3     1  UNL1        0.1582
     31 C          18.9492   72.2479   -8.7538 C.3     1  UNL1        0.1625
     32 C          17.7305   71.5821   -8.1060 C.3     1  UNL1        0.1686
     33 C          17.9133   71.5787   -6.5868 C.3     1  UNL1        0.1760
     34 O          18.8663   72.1266  -10.1750 O.3     1  UNL1       -0.3801
     35 O          16.5502   72.3125   -8.4451 O.3     1  UNL1       -0.3794
     36 O          19.0763   70.8267   -6.2428 O.3     1  UNL1       -0.3263
     37 H          18.0571   72.5809  -10.4475 H       1  UNL1        0.2105
     38 H          15.8091   71.8608   -8.0173 H       1  UNL1        0.2105
     39 C          21.3231   73.5767   -9.0172 C.2     1  UNL1        0.2231
     40 C          22.5402   74.3121   -9.5176 C.3     1  UNL1        0.0946
     41 N          21.3981   72.2613   -8.7370 N.am    1  UNL1       -0.2994
     42 O          20.2758   74.1690   -8.8674 O.2     1  UNL1       -0.2751
     43 H          22.2361   71.7870   -8.8570 H       1  UNL1        0.1496
     44 C          16.6862   70.9449   -5.9282 C.3     1  UNL1        0.1693
     45 O          16.3008   69.7797   -6.6602 O.3     1  UNL1       -0.3794
     46 H          15.5262   69.4121   -6.2134 H       1  UNL1        0.2105
@<TRIPOS>BOND
     1    29    30    1
     2    29    28    1
     3    29    36    1
     4    30    31    1
     5    30    41    1
     6    31    32    1
     7    31    34    1
     8    32    33    1
     9    32    35    1
    10    33    44    1
    11    33    36    1
    12    44    45    1
    13    39    40    1
    14    39    41   am
    15    39    42    2
    16    41    43    1
    17    28    25    1
    18    34    37    1
    19    35    38    1
    20    45    46    1
    21    15    16   ar
    22    15    20   ar
    23    15     6    1
    24    16    17   ar
    25    16    21    2
    26    17    18   ar
    27    17    23    1
    28    18    19   ar
    29    18    22    2
    30    19    20   ar
    31     6     7    1
    32     6    11    1
    33     7     8    1
    34     7     9    1
    35     8    13    1
    36     9    10    1
    37     9    12    1
    38    10    11    1
    39    10     5    1
    40    12    14    1
    41     5     4    1
    42     4     1    1
    43     1     2    2
    44     1     3    1
    45     1    24    1
    46    24    25    1
    47    25    26    2
    48    25    27    1
@<TRIPOS>MOLECULE
UD1
 46 48 0 0 0
SMALL
GASTEIGER

@<TRIPOS>ATOM
      1 P          21.8728   70.8235   -0.6991 P.3     1  UNL1        0.2189
      2 O          22.5409   70.1966   -1.8608 O.2     1  UNL1       -0.5170
      3 O          21.5158   69.6922    0.3895 O.3     1  UNL1       -0.4371
      4 O          20.5181   71.5456   -1.1852 O.3     1  UNL1       -0.3112
      5 C          20.5962   71.6579   -2.6070 C.3     1  UNL1        0.1811
      6 C          18.1425   71.2594   -5.2047 C.3     1  UNL1        0.2383
      7 C          18.0838   69.9318   -4.4084 C.3     1  UNL1        0.1895
      8 O          16.7695   69.3743   -4.4402 O.3     1  UNL1       -0.3779
      9 C          18.4539   70.3950   -2.9753 C.3     1  UNL1        0.1713
     10 C          19.1850   71.7341   -3.1918 C.3     1  UNL1        0.1764
     11 O          19.2549   71.9610   -4.6099 O.3     1  UNL1       -0.3308
     12 O          17.2745   70.5828   -2.1900 O.3     1  UNL1       -0.3794
     13 H          16.8008   68.5536   -3.9293 H       1  UNL1        0.2106
     14 H          16.8319   69.7250   -2.1414 H       1  UNL1        0.2105
     15 N          18.3929   71.0034   -6.6236 N.ar    1  UNL1       -0.2551
     16 C          17.3566   70.8542   -7.4668 C.ar    1  UNL1        0.3323
     17 N          17.5572   70.6218   -8.7775 N.ar    1  UNL1       -0.2743
     18 C          18.8101   70.5252   -9.2664 C.ar    1  UNL1        0.2626
     19 C          19.9103   70.6742   -8.3888 C.ar    1  UNL1        0.0795
     20 C          19.6804   70.9120   -7.0796 C.ar    1  UNL1        0.0869
     21 O          16.2207   70.9387   -7.0409 O.2     1  UNL1       -0.2464
     22 O          18.9927   70.3103  -10.4504 O.2     1  UNL1       -0.2670
     23 H          16.7980   70.5215   -9.3722 H       1  UNL1        0.1734
     24 O          22.8548   71.9138   -0.0392 O.3     1  UNL1       -0.2703
     25 P          21.9565   72.8099    0.9505 P.3     1  UNL1        0.2208
     26 O          20.8069   72.0122    1.4310 O.2     1  UNL1       -0.5170
     27 O          21.4173   74.1057    0.1616 O.3     1  UNL1       -0.4371
     28 O          22.8460   73.2799    2.2069 O.3     1  UNL1       -0.2865
     29 C          22.6374   74.6850    2.3598 C.3     1  UNL1        0.2611
     30 C          23.7765   75.2771    3.1916 C.3     1  UNL1        0.1582
     31 C          23.8124   74.5834    4.5581 C.3     1  UNL1        0.1625
     32 C          22.4216   74.6812    5.1940 C.3     1  UNL1        0.1686
     33 C          21.3849   74.1312    4.2121 C.3     1  UNL1        0.1760
     34 O          24.7726   75.2279    5.3972 O.3     1  UNL1       -0.3801
     35 O          22.3927   73.9159    6.4002 O.3     1  UNL1       -0.3794
     36 O          21.3920   74.9105    3.0167 O.3     1  UNL1       -0.3263
     37 H          24.7622   74.7605    6.2438 H       1  UNL1        0.2105
     38 H          21.5013   74.0042    6.7663 H       1  UNL1        0.2105
     39 C          25.6108   76.0670    1.7967 C.2     1  UNL1        0.2231
     40 C          26.9212   75.8477    1.0847 C.3     1  UNL1        0.0946
     41 N          25.0498   75.0647    2.5001 N.am    1  UNL1       -0.2994
     42 O          25.0609   77.1459    1.7359 O.2     1  UNL1       -0.2751
     43 H          25.4895   74.2011    2.5488 H       1  UNL1        0.1496
     44 C          19.9958   74.1943    4.8506 C.3     1  UNL1        0.1693
     45 O          19.8664   73.1479    5.8151 O.3     1  UNL1       -0.3794
     46 H          18.9795   73.2231    6.1923 H       1  UNL1        0.2105
@<TRIPOS>BOND
     1    29    30    1
     2    29    28    1
     3    29    36    1
     4    30    31    1
     5    30    41    1
     6    31    32    1
     7    31    34    1
     8    32    33    1
     9    32    35    1
    10    33    44    1
    11    33    36    1
    12    44    45    1
    13    39    40    1
    14    39    41   am
    15    39    42    2
    16    41    43    1
    17    28    25    1
    18    34    37    1
    19    35    38    1
    20    45    46    1
    21    15    16   ar
    22    15    20   ar
    23    15     6    1
    24    16    17   ar
    25    16    21    2
    26    17    18   ar
    27    17    23    1
    28    18    19   ar
    29    18    22    2
    30    19    20   ar
    31     6     7    1
    32     6    11    1
    33     7     8    1
    34     7     9    1
    35     8    13    1
    36     9    10    1
    37     9    12    1
    38    10    11    1
    39    10     5    1
    40    12    14    1
    41     5     4    1
    42     4     1    1
    43     1     2    2
    44     1     3    1
    45     1    24    1
    46    24    25    1
    47    25    26    2
    48    25    27    1
@<TRIPOS>MOLECULE
UD1
 46 48 0 0 0
SMALL
GASTEIGER

@<TRIPOS>ATOM
      1 P          19.9411   74.1906   -3.5106 P.3     1  UNL1        0.2189
      2 O          19.0163   75.1944   -4.0815 O.2     1  UNL1       -0.5170
      3 O          19.2698   72.7298   -3.6011 O.3     1  UNL1       -0.4371
      4 O          20.2368   74.5496   -1.9690 O.3     1  UNL1       -0.3112
      5 C          20.1176   73.3328   -1.2304 C.3     1  UNL1        0.1811
      6 C          22.6384   72.5369    1.2066 C.3     1  UNL1        0.2383
      7 C          21.9250   71.1894    0.9317 C.3     1  UNL1        0.1895
      8 O          22.8256   70.0926    1.0903 O.3     1  UNL1       -0.3779
      9 C          21.4970   71.3440   -0.5508 C.3     1  UNL1        0.1713
     10 C          21.5048   72.8669   -0.7859 C.3     1  UNL1        0.1764
     11 O          21.8544   73.4922    0.4608 O.3     1  UNL1       -0.3308
     12 O          22.4336   70.6935   -1.4125 O.3     1  UNL1       -0.3794
     13 H          22.3219   69.2876    0.9066 H       1  UNL1        0.2106
     14 H          22.4258   69.7563   -1.1765 H       1  UNL1        0.2105
     15 N          22.6165   72.8543    2.6350 N.ar    1  UNL1       -0.2551
     16 C          21.5820   72.4490    3.3918 C.ar    1  UNL1        0.3323
     17 N          21.5374   72.7233    4.7090 N.ar    1  UNL1       -0.2743
     18 C          22.5326   73.4219    5.2917 C.ar    1  UNL1        0.2626
     19 C          23.6248   73.8598    4.5055 C.ar    1  UNL1        0.0795
     20 C          23.6468   73.5663    3.1876 C.ar    1  UNL1        0.0869
     21 O          20.6768   71.8179    2.8809 O.2     1  UNL1       -0.2464
     22 O          22.4909   73.6746    6.4815 O.2     1  UNL1       -0.2670
     23 H          20.7857   72.4190    5.2407 H       1  UNL1        0.1734
     24 O          21.3210   74.2003   -4.3379 O.3     1  UNL1       -0.2703
     25 P          21.3704   72.8275   -5.1759 P.3     1  UNL1        0.2208
     26 O          21.2837   71.6793   -4.2469 O.2     1  UNL1       -0.5170
     27 O          22.7528   72.7489   -5.9975 O.3     1  UNL1       -0.4371
     28 O          20.1332   72.7803   -6.2043 O.3     1  UNL1       -0.2865
     29 C          20.1000   71.4613   -6.7524 C.3     1  UNL1        0.2611
     30 C          20.1157   71.5486   -8.2796 C.3     1  UNL1        0.1582
     31 C          18.9023   72.3599   -8.7478 C.3     1  UNL1        0.1625
     32 C          17.6370   71.7425   -8.1429 C.3     1  UNL1        0.1686
     33 C          17.8071   71.6435   -6.6255 C.3     1  UNL1        0.1760
     34 O          18.8228   72.3225  -10.1738 O.3     1  UNL1       -0.3801
     35 O          16.5107   72.5678   -8.4461 O.3     1  UNL1       -0.3794
     36 O          18.9148   70.7976   -6.3187 O.3     1  UNL1       -0.3263
     37 H          18.0478   72.8442  -10.4242 H       1  UNL1        0.2105
     38 H          15.7377   72.1438   -8.0470 H       1  UNL1        0.2105
     39 C          21.3492   73.5312   -8.9737 C.2     1  UNL1        0.2231
     40 C          22.6164   74.2099   -9.4275 C.3     1  UNL1        0.0946
     41 N          21.3465   72.2084   -8.7199 N.am    1  UNL1       -0.2994
     42 O          20.3314   74.1760   -8.8376 O.2     1  UNL1       -0.2751
     43 H          22.1609   71.6921   -8.8290 H       1  UNL1        0.1496
     44 C          16.5355   71.0580   -6.0081 C.3     1  UNL1        0.1693
     45 O          16.6394   69.6334   -5.9634 O.3     1  UNL1       -0.3794
     46 H          15.8200   69.3053   -5.5691 H       1  UNL1        0.2105
@<TRIPOS>BOND
     1    29    30    1
     2    29    28    1
     3    29    36    1
     4    30    31    1
     5    30    41    1
     6    31    32    1
     7    31    34    1
     8    32    33    1
     9    32    35    1
    10    33    44    1
    11    33    36    1
    12    44    45    1
    13    39    40    1
    14    39    41   am
    15    39    42    2
    16    41    43    1
    17    28    25    1
    18    34    37    1
    19    35    38    1
    20    45    46    1
    21    15    16   ar
    22    15    20   ar
    23    15     6    1
    24    16    17   ar
    25    16    21    2
    26    17    18   ar
    27    17    23    1
    28    18    19   ar
    29    18    22    2
    30    19    20   ar
    31     6     7    1
    32     6    11    1
    33     7     8    1
    34     7     9    1
    35     8    13    1
    36     9    10    1
    37     9    12    1
    38    10    11    1
    39    10     5    1
    40    12    14    1
    41     5     4    1
    42     4     1    1
    43     1     2    2
    44     1     3    1
    45     1    24    1
    46    24    25    1
    47    25    26    2
    48    25    27    1
@<TRIPOS>MOLECULE
UD1
 46 48 0 0 0
SMALL
GASTEIGER

@<TRIPOS>ATOM
      1 P          22.0178   70.3926   -0.4599 P.3     1  UNL1        0.2189
      2 O          22.9564   71.3136   -1.1379 O.2     1  UNL1       -0.5170
      3 O          22.8475   69.3519    0.4463 O.3     1  UNL1       -0.4371
      4 O          21.1692   69.5837   -1.5636 O.3     1  UNL1       -0.3112
      5 C          21.2443   70.3353   -2.7760 C.3     1  UNL1        0.1811
      6 C          18.5690   70.8097   -5.1307 C.3     1  UNL1        0.2383
      7 C          18.2958   69.4176   -4.5081 C.3     1  UNL1        0.1895
      8 O          16.8956   69.1395   -4.4723 O.3     1  UNL1       -0.3779
      9 C          18.8636   69.5848   -3.0747 C.3     1  UNL1        0.1713
     10 C          19.8394   70.7714   -3.1946 C.3     1  UNL1        0.1764
     11 O          19.8458   71.1848   -4.5717 O.3     1  UNL1       -0.3308
     12 O          17.8135   69.8836   -2.1523 O.3     1  UNL1       -0.3794
     13 H          16.7940   68.2630   -4.0762 H       1  UNL1        0.2106
     14 H          17.2066   69.1315   -2.1669 H       1  UNL1        0.2105
     15 N          18.6504   70.7195   -6.5890 N.ar    1  UNL1       -0.2551
     16 C          17.5217   70.6837   -7.3185 C.ar    1  UNL1        0.3323
     17 N          17.5666   70.6048   -8.6616 N.ar    1  UNL1       -0.2743
     18 C          18.7531   70.5510   -9.2998 C.ar    1  UNL1        0.2626
     19 C          19.9491   70.5818   -8.5438 C.ar    1  UNL1        0.0795
     20 C          19.8752   70.6665   -7.1982 C.ar    1  UNL1        0.0869
     21 O          16.4440   70.7315   -6.7574 O.2     1  UNL1       -0.2464
     22 O          18.7949   70.4749  -10.5138 O.2     1  UNL1       -0.2670
     23 H          16.7426   70.5848   -9.1722 H       1  UNL1        0.1734
     24 O          21.0161   71.2382    0.4732 O.3     1  UNL1       -0.2703
     25 P          21.9247   72.2502    1.3331 P.3     1  UNL1        0.2208
     26 O          22.8847   72.9329    0.4381 O.2     1  UNL1       -0.5170
     27 O          22.7320   71.4258    2.4560 O.3     1  UNL1       -0.4371
     28 O          20.9839   73.3446    2.0456 O.3     1  UNL1       -0.2865
     29 C          21.3396   74.6158    1.4991 C.3     1  UNL1        0.2611
     30 C          21.5153   75.6234    2.6366 C.3     1  UNL1        0.1582
     31 C          20.2051   75.7213    3.4262 C.3     1  UNL1        0.1625
     32 C          19.0662   76.0327    2.4494 C.3     1  UNL1        0.1686
     33 C          19.0735   74.9923    1.3275 C.3     1  UNL1        0.1760
     34 O          20.3075   76.7655    4.3961 O.3     1  UNL1       -0.3801
     35 O          17.8168   75.9835    3.1408 O.3     1  UNL1       -0.3794
     36 O          20.3096   75.0575    0.6174 O.3     1  UNL1       -0.3263
     37 H          19.4641   76.7916    4.8686 H       1  UNL1        0.2105
     38 H          17.1290   76.1842    2.4902 H       1  UNL1        0.2105
     39 C          22.3096   74.3980    4.5864 C.2     1  UNL1        0.2231
     40 C          23.4173   73.9395    5.5003 C.3     1  UNL1        0.0946
     41 N          22.5910   75.1773    3.5244 N.am    1  UNL1       -0.2994
     42 O          21.1646   74.0658    4.8074 O.2     1  UNL1       -0.2751
     43 H          23.5071   75.4434    3.3474 H       1  UNL1        0.1496
     44 C          17.9193   75.2753    0.3637 C.3     1  UNL1        0.1693
     45 O          17.9908   74.3745   -0.7433 O.3     1  UNL1       -0.3794
     46 H          17.2481   74.5864   -1.3249 H       1  UNL1        0.2105
@<TRIPOS>BOND
     1    29    30    1
     2    29    28    1
     3    29    36    1
     4    30    31    1
     5    30    41    1
     6    31    32    1
     7    31    34    1
     8    32    33    1
     9    32    35    1
    10    33    44    1
    11    33    36    1
    12    44    45    1
    13    39    40    1
    14    39    41   am
    15    39    42    2
    16    41    43    1
    17    28    25    1
    18    34    37    1
    19    35    38    1
    20    45    46    1
    21    15    16   ar
    22    15    20   ar
    23    15     6    1
    24    16    17   ar
    25    16    21    2
    26    17    18   ar
    27    17    23    1
    28    18    19   ar
    29    18    22    2
    30    19    20   ar
    31     6     7    1
    32     6    11    1
    33     7     8    1
    34     7     9    1
    35     8    13    1
    36     9    10    1
    37     9    12    1
    38    10    11    1
    39    10     5    1
    40    12    14    1
    41     5     4    1
    42     4     1    1
    43     1     2    2
    44     1     3    1
    45     1    24    1
    46    24    25    1
    47    25    26    2
    48    25    27    1
@<TRIPOS>MOLECULE
UD1
 46 48 0 0 0
SMALL
GASTEIGER

@<TRIPOS>ATOM
      1 P          21.9673   70.9029   -1.1822 P.3     1  UNL1        0.2189
      2 O          20.7104   71.5329   -1.6428 O.2     1  UNL1       -0.5170
      3 O          21.6781   69.3775   -0.7554 O.3     1  UNL1       -0.4371
      4 O          22.5405   71.7142    0.0852 O.3     1  UNL1       -0.3112
      5 C          21.4262   72.0007    0.9316 C.3     1  UNL1        0.1811
      6 C          21.7322   74.8579    3.0927 C.3     1  UNL1        0.2383
      7 C          23.1382   74.6955    2.4624 C.3     1  UNL1        0.1895
      8 O          23.7890   75.9599    2.3319 O.3     1  UNL1       -0.3779
      9 C          22.8041   74.0988    1.0705 C.3     1  UNL1        0.1713
     10 C          21.3970   73.4965    1.2492 C.3     1  UNL1        0.1764
     11 O          21.0146   73.6978    2.6205 O.3     1  UNL1       -0.3308
     12 O          22.7934   75.1250    0.0757 O.3     1  UNL1       -0.3794
     13 H          24.6548   75.7898    1.9359 H       1  UNL1        0.2106
     14 H          23.6831   75.5018    0.0537 H       1  UNL1        0.2105
     15 N          21.8145   74.8546    4.5537 N.ar    1  UNL1       -0.2551
     16 C          22.0921   73.7106    5.2029 C.ar    1  UNL1        0.3323
     17 N          22.1778   73.6790    6.5460 N.ar    1  UNL1       -0.2743
     18 C          21.9759   74.8007    7.2663 C.ar    1  UNL1        0.2626
     19 C          21.6769   76.0107    6.5960 C.ar    1  UNL1        0.0795
     20 C          21.6023   76.0153    5.2478 C.ar    1  UNL1        0.0869
     21 O          22.2768   72.6906    4.5672 O.2     1  UNL1       -0.2464
     22 O          22.0484   74.7723    8.4809 O.2     1  UNL1       -0.2670
     23 H          22.3836   72.8460    6.9975 H       1  UNL1        0.1734
     24 O          23.0499   70.9322   -2.3721 O.3     1  UNL1       -0.2703
     25 P          22.7116   72.2194   -3.2767 P.3     1  UNL1        0.2208
     26 O          23.9595   72.7448   -3.8730 O.2     1  UNL1       -0.5170
     27 O          22.0350   73.3573   -2.3605 O.3     1  UNL1       -0.4371
     28 O          21.6919   71.7999   -4.4492 O.3     1  UNL1       -0.2865
     29 C          20.7474   72.8641   -4.5776 C.3     1  UNL1        0.2611
     30 C          19.4049   72.2949   -5.0399 C.3     1  UNL1        0.1582
     31 C          19.5992   71.5792   -6.3813 C.3     1  UNL1        0.1625
     32 C          20.2688   72.5482   -7.3614 C.3     1  UNL1        0.1686
     33 C          21.5480   73.0960   -6.7251 C.3     1  UNL1        0.1760
     34 O          18.3295   71.1736   -6.8959 O.3     1  UNL1       -0.3801
     35 O          20.5923   71.8581   -8.5700 O.3     1  UNL1       -0.3794
     36 O          21.2256   73.8095   -5.5320 O.3     1  UNL1       -0.3263
     37 H          18.4985   70.7286   -7.7378 H       1  UNL1        0.2105
     38 H          21.0115   72.5033   -9.1570 H       1  UNL1        0.2105
     39 C          19.1746   70.0301   -4.1729 C.2     1  UNL1        0.2231
     40 C          18.6613   69.0514   -3.1477 C.3     1  UNL1        0.0946
     41 N          18.9070   71.3439   -4.0439 N.am    1  UNL1       -0.2994
     42 O          19.8281   69.6347   -5.1146 O.2     1  UNL1       -0.2751
     43 H          18.3838   71.6605   -3.2905 H       1  UNL1        0.1496
     44 C          22.2417   74.0403   -7.7090 C.3     1  UNL1        0.1693
     45 O          23.1825   73.3043   -8.4935 O.3     1  UNL1       -0.3794
     46 H          23.5964   73.9348   -9.0984 H       1  UNL1        0.2105
@<TRIPOS>BOND
     1    29    30    1
     2    29    28    1
     3    29    36    1
     4    30    31    1
     5    30    41    1
     6    31    32    1
     7    31    34    1
     8    32    33    1
     9    32    35    1
    10    33    44    1
    11    33    36    1
    12    44    45    1
    13    39    40    1
    14    39    41   am
    15    39    42    2
    16    41    43    1
    17    28    25    1
    18    34    37    1
    19    35    38    1
    20    45    46    1
    21    15    16   ar
    22    15    20   ar
    23    15     6    1
    24    16    17   ar
    25    16    21    2
    26    17    18   ar
    27    17    23    1
    28    18    19   ar
    29    18    22    2
    30    19    20   ar
    31     6     7    1
    32     6    11    1
    33     7     8    1
    34     7     9    1
    35     8    13    1
    36     9    10    1
    37     9    12    1
    38    10    11    1
    39    10     5    1
    40    12    14    1
    41     5     4    1
    42     4     1    1
    43     1     2    2
    44     1     3    1
    45     1    24    1
    46    24    25    1
    47    25    26    2
    48    25    27    1
@<TRIPOS>MOLECULE
UD1
 46 48 0 0 0
SMALL
GASTEIGER

@<TRIPOS>ATOM
      1 P          22.7754   72.2798   -2.3236 P.3     1  UNL1        0.2189
      2 O          23.4865   71.3102   -3.1856 O.2     1  UNL1       -0.5170
      3 O          22.6119   71.6641   -0.8448 O.3     1  UNL1       -0.4371
      4 O          21.3196   72.5805   -2.9426 O.3     1  UNL1       -0.3112
      5 C          20.5012   71.4483   -2.6446 C.3     1  UNL1        0.1811
      6 C          18.1159   71.2329   -5.3262 C.3     1  UNL1        0.2383
      7 C          17.9235   69.9185   -4.5290 C.3     1  UNL1        0.1895
      8 O          16.5708   69.4674   -4.6058 O.3     1  UNL1       -0.3779
      9 C          18.2791   70.3584   -3.0850 C.3     1  UNL1        0.1713
     10 C          19.1220   71.6337   -3.2790 C.3     1  UNL1        0.1764
     11 O          19.2594   71.8467   -4.6943 O.3     1  UNL1       -0.3308
     12 O          17.0918   70.6439   -2.3423 O.3     1  UNL1       -0.3794
     13 H          16.5185   68.6496   -4.0920 H       1  UNL1        0.2106
     14 H          16.5806   69.8244   -2.3070 H       1  UNL1        0.2105
     15 N          18.3945   70.9501   -6.7347 N.ar    1  UNL1       -0.2551
     16 C          17.3754   70.8062   -7.5996 C.ar    1  UNL1        0.3323
     17 N          17.6023   70.5496   -8.9015 N.ar    1  UNL1       -0.2743
     18 C          18.8641   70.4229   -9.3593 C.ar    1  UNL1        0.2626
     19 C          19.9462   70.5661   -8.4584 C.ar    1  UNL1        0.0795
     20 C          19.6903   70.8285   -7.1588 C.ar    1  UNL1        0.0869
     21 O          16.2317   70.9176   -7.2019 O.2     1  UNL1       -0.2464
     22 O          19.0703   70.1861  -10.5353 O.2     1  UNL1       -0.2670
     23 H          16.8553   70.4535   -9.5123 H       1  UNL1        0.1734
     24 O          23.6184   73.6481   -2.2460 O.3     1  UNL1       -0.2703
     25 P          23.9411   74.0818   -3.7616 P.3     1  UNL1        0.2208
     26 O          23.6073   72.9671   -4.6753 O.2     1  UNL1       -0.5170
     27 O          25.5057   74.4361   -3.8977 O.3     1  UNL1       -0.4371
     28 O          23.0640   75.3744   -4.1496 O.3     1  UNL1       -0.2865
     29 C          22.9587   75.3915   -5.5743 C.3     1  UNL1        0.2611
     30 C          23.4029   76.7587   -6.0972 C.3     1  UNL1        0.1582
     31 C          22.5174   77.8448   -5.4760 C.3     1  UNL1        0.1625
     32 C          21.0500   77.4911   -5.7401 C.3     1  UNL1        0.1686
     33 C          20.7825   76.0696   -5.2412 C.3     1  UNL1        0.1760
     34 O          22.8230   79.1085   -6.0686 O.3     1  UNL1       -0.3801
     35 O          20.2045   78.4100   -5.0454 O.3     1  UNL1       -0.3794
     36 O          21.6058   75.1461   -5.9524 O.3     1  UNL1       -0.3263
     37 H          22.2448   79.7607   -5.6495 H       1  UNL1        0.2105
     38 H          19.2922   78.1510   -5.2380 H       1  UNL1        0.2105
     39 C          25.7870   76.6934   -6.5937 C.2     1  UNL1        0.2231
     40 C          27.2252   76.9355   -6.2125 C.3     1  UNL1        0.0946
     41 N          24.8002   76.9941   -5.7276 N.am    1  UNL1       -0.2994
     42 O          25.5179   76.2271   -7.6801 O.2     1  UNL1       -0.2751
     43 H          25.0152   77.3671   -4.8580 H       1  UNL1        0.1496
     44 C          19.3111   75.7183   -5.4708 C.3     1  UNL1        0.1693
     45 O          19.2173   74.4206   -6.0617 O.3     1  UNL1       -0.3794
     46 H          18.2765   74.2386   -6.1895 H       1  UNL1        0.2105
@<TRIPOS>BOND
     1    29    30    1
     2    29    28    1
     3    29    36    1
     4    30    31    1
     5    30    41    1
     6    31    32    1
     7    31    34    1
     8    32    33    1
     9    32    35    1
    10    33    44    1
    11    33    36    1
    12    44    45    1
    13    39    40    1
    14    39    41   am
    15    39    42    2
    16    41    43    1
    17    28    25    1
    18    34    37    1
    19    35    38    1
    20    45    46    1
    21    15    16   ar
    22    15    20   ar
    23    15     6    1
    24    16    17   ar
    25    16    21    2
    26    17    18   ar
    27    17    23    1
    28    18    19   ar
    29    18    22    2
    30    19    20   ar
    31     6     7    1
    32     6    11    1
    33     7     8    1
    34     7     9    1
    35     8    13    1
    36     9    10    1
    37     9    12    1
    38    10    11    1
    39    10     5    1
    40    12    14    1
    41     5     4    1
    42     4     1    1
    43     1     2    2
    44     1     3    1
    45     1    24    1
    46    24    25    1
    47    25    26    2
    48    25    27    1
@<TRIPOS>MOLECULE
UD1
 46 48 0 0 0
SMALL
GASTEIGER

@<TRIPOS>ATOM
      1 P          22.3102   71.3741   -2.6933 P.3     1  UNL1        0.2189
      2 O          21.6438   72.5933   -2.1851 O.2     1  UNL1       -0.5170
      3 O          23.5242   71.7914   -3.6652 O.3     1  UNL1       -0.4371
      4 O          21.2479   70.4853   -3.5146 O.3     1  UNL1       -0.3112
      5 C          20.2683   71.3860   -4.0338 C.3     1  UNL1        0.1811
      6 C          19.3325   72.4654   -7.3332 C.3     1  UNL1        0.2383
      7 C          20.1461   73.6496   -6.7536 C.3     1  UNL1        0.1895
      8 O          20.8346   74.3520   -7.7889 O.3     1  UNL1       -0.3779
      9 C          21.1472   72.9280   -5.8143 C.3     1  UNL1        0.1713
     10 C          20.4845   71.5647   -5.5373 C.3     1  UNL1        0.1764
     11 O          19.2180   71.5565   -6.2178 O.3     1  UNL1       -0.3308
     12 O          22.4083   72.7557   -6.4644 O.3     1  UNL1       -0.3794
     13 H          21.3189   75.0733   -7.3639 H       1  UNL1        0.2106
     14 H          22.7425   73.6403   -6.6643 H       1  UNL1        0.2105
     15 N          18.0100   72.9105   -7.7743 N.ar    1  UNL1       -0.2551
     16 C          17.8210   73.2695   -9.0560 C.ar    1  UNL1        0.3323
     17 N          16.6145   73.6791   -9.4904 N.ar    1  UNL1       -0.2743
     18 C          15.5718   73.7447   -8.6381 C.ar    1  UNL1        0.2626
     19 C          15.7582   73.3753   -7.2847 C.ar    1  UNL1        0.0795
     20 C          16.9777   72.9631   -6.8769 C.ar    1  UNL1        0.0869
     21 O          18.7517   73.2157   -9.8367 O.2     1  UNL1       -0.2464
     22 O          14.4816   74.1194   -9.0287 O.2     1  UNL1       -0.2670
     23 H          16.4950   73.9298  -10.4194 H       1  UNL1        0.1734
     24 O          22.8817   70.5193   -1.4557 O.3     1  UNL1       -0.2703
     25 P          21.9895   70.9047   -0.1732 P.3     1  UNL1        0.2208
     26 O          21.7928   69.7045    0.6693 O.2     1  UNL1       -0.5170
     27 O          20.5581   71.4575   -0.6608 O.3     1  UNL1       -0.4371
     28 O          22.7400   72.0432    0.6817 O.3     1  UNL1       -0.2865
     29 C          21.7561   73.0213    1.0232 C.3     1  UNL1        0.2611
     30 C          22.3586   74.4189    0.8689 C.3     1  UNL1        0.1582
     31 C          23.5828   74.5407    1.7833 C.3     1  UNL1        0.1625
     32 C          23.1688   74.1629    3.2095 C.3     1  UNL1        0.1686
     33 C          22.5079   72.7830    3.1875 C.3     1  UNL1        0.1760
     34 O          24.0648   75.8855    1.7615 O.3     1  UNL1       -0.3801
     35 O          24.3245   74.1275    4.0490 O.3     1  UNL1       -0.3794
     36 O          21.3377   72.8219    2.3717 O.3     1  UNL1       -0.3263
     37 H          24.8330   75.9165    2.3482 H       1  UNL1        0.2105
     38 H          24.0193   73.8855    4.9350 H       1  UNL1        0.2105
     39 C          22.3405   75.7166   -1.1926 C.2     1  UNL1        0.2231
     40 C          22.7568   75.9302   -2.6255 C.3     1  UNL1        0.0946
     41 N          22.7632   74.6271   -0.5229 N.am    1  UNL1       -0.2994
     42 O          21.6240   76.5255   -0.6424 O.2     1  UNL1       -0.2751
     43 H          23.3364   73.9795   -0.9631 H       1  UNL1        0.1496
     44 C          22.1199   72.3820    4.6122 C.3     1  UNL1        0.1693
     45 O          21.5873   73.5167    5.2985 O.3     1  UNL1       -0.3794
     46 H          21.3564   73.2217    6.1898 H       1  UNL1        0.2105
@<TRIPOS>BOND
     1    29    30    1
     2    29    28    1
     3    29    36    1
     4    30    31    1
     5    30    41    1
     6    31    32    1
     7    31    34    1
     8    32    33    1
     9    32    35    1
    10    33    44    1
    11    33    36    1
    12    44    45    1
    13    39    40    1
    14    39    41   am
    15    39    42    2
    16    41    43    1
    17    28    25    1
    18    34    37    1
    19    35    38    1
    20    45    46    1
    21    15    16   ar
    22    15    20   ar
    23    15     6    1
    24    16    17   ar
    25    16    21    2
    26    17    18   ar
    27    17    23    1
    28    18    19   ar
    29    18    22    2
    30    19    20   ar
    31     6     7    1
    32     6    11    1
    33     7     8    1
    34     7     9    1
    35     8    13    1
    36     9    10    1
    37     9    12    1
    38    10    11    1
    39    10     5    1
    40    12    14    1
    41     5     4    1
    42     4     1    1
    43     1     2    2
    44     1     3    1
    45     1    24    1
    46    24    25    1
    47    25    26    2
    48    25    27    1
@<TRIPOS>MOLECULE
UD1
 46 48 0 0 0
SMALL
GASTEIGER

@<TRIPOS>ATOM
      1 P          22.9874   73.3005   -3.4168 P.3     1  UNL1        0.2189
      2 O          22.1046   74.4871   -3.3800 O.2     1  UNL1       -0.5170
      3 O          23.2026   72.7450   -1.9209 O.3     1  UNL1       -0.4371
      4 O          24.4117   73.7112   -4.0457 O.3     1  UNL1       -0.3112
      5 C          24.5388   75.1258   -3.8937 C.3     1  UNL1        0.1811
      6 C          28.1105   75.3577   -4.2356 C.3     1  UNL1        0.2383
      7 C          27.5872   76.7474   -4.6773 C.3     1  UNL1        0.1895
      8 O          28.5377   77.7702   -4.3781 O.3     1  UNL1       -0.3779
      9 C          26.3118   76.9061   -3.8093 C.3     1  UNL1        0.1713
     10 C          25.9496   75.4629   -3.4087 C.3     1  UNL1        0.1764
     11 O          26.9041   74.5902   -4.0370 O.3     1  UNL1       -0.3308
     12 O          26.5892   77.6986   -2.6527 O.3     1  UNL1       -0.3794
     13 H          28.1533   78.6060   -4.6768 H       1  UNL1        0.2106
     14 H          26.8667   78.5683   -2.9701 H       1  UNL1        0.2105
     15 N          28.9377   74.7572   -5.2828 N.ar    1  UNL1       -0.2551
     16 C          30.0032   74.0107   -4.9441 C.ar    1  UNL1        0.3323
     17 N          30.7795   73.4431   -5.8862 N.ar    1  UNL1       -0.2743
     18 C          30.5033   73.6236   -7.1935 C.ar    1  UNL1        0.2626
     19 C          29.3880   74.4121   -7.5641 C.ar    1  UNL1        0.0795
     20 C          28.6231   74.9654   -6.5987 C.ar    1  UNL1        0.0869
     21 O          30.2652   73.8387   -3.7692 O.2     1  UNL1       -0.2464
     22 O          31.2072   73.1148   -8.0461 O.2     1  UNL1       -0.2670
     23 H          31.5414   72.9038   -5.6238 H       1  UNL1        0.1734
     24 O          22.3108   72.1561   -4.3231 O.3     1  UNL1       -0.2703
     25 P          21.7509   72.8812   -5.6460 P.3     1  UNL1        0.2208
     26 O          22.8112   72.9124   -6.6774 O.2     1  UNL1       -0.5170
     27 O          21.3081   74.3869   -5.2870 O.3     1  UNL1       -0.4371
     28 O          20.4799   72.0690   -6.2076 O.3     1  UNL1       -0.2865
     29 C          19.4200   73.0142   -6.3636 C.3     1  UNL1        0.2611
     30 C          18.1100   72.3880   -5.8823 C.3     1  UNL1        0.1582
     31 C          17.8300   71.1214   -6.6990 C.3     1  UNL1        0.1625
     32 C          17.8732   71.4792   -8.1884 C.3     1  UNL1        0.1686
     33 C          19.2027   72.1713   -8.4963 C.3     1  UNL1        0.1760
     34 O          16.5386   70.6107   -6.3631 O.3     1  UNL1       -0.3801
     35 O          17.7608   70.2880   -8.9695 O.3     1  UNL1       -0.3794
     36 O          19.3061   73.3759   -7.7382 O.3     1  UNL1       -0.3263
     37 H          16.4045   69.8164   -6.8982 H       1  UNL1        0.2105
     38 H          17.7932   70.5583   -9.8981 H       1  UNL1        0.2105
     39 C          18.6596   70.8200   -4.1008 C.2     1  UNL1        0.2231
     40 C          18.7767   70.4640   -2.6408 C.3     1  UNL1        0.0946
     41 N          18.2244   72.0418   -4.4640 N.am    1  UNL1       -0.2994
     42 O          18.9566   70.0060   -4.9491 O.2     1  UNL1       -0.2751
     43 H          17.9864   72.6933   -3.7854 H       1  UNL1        0.1496
     44 C          19.2696   72.5037   -9.9884 C.3     1  UNL1        0.1693
     45 O          18.0031   73.0030  -10.4228 O.3     1  UNL1       -0.3794
     46 H          18.0881   73.1993  -11.3656 H       1  UNL1        0.2105
@<TRIPOS>BOND
     1    29    30    1
     2    29    28    1
     3    29    36    1
     4    30    31    1
     5    30    41    1
     6    31    32    1
     7    31    34    1
     8    32    33    1
     9    32    35    1
    10    33    44    1
    11    33    36    1
    12    44    45    1
    13    39    40    1
    14    39    41   am
    15    39    42    2
    16    41    43    1
    17    28    25    1
    18    34    37    1
    19    35    38    1
    20    45    46    1
    21    15    16   ar
    22    15    20   ar
    23    15     6    1
    24    16    17   ar
    25    16    21    2
    26    17    18   ar
    27    17    23    1
    28    18    19   ar
    29    18    22    2
    30    19    20   ar
    31     6     7    1
    32     6    11    1
    33     7     8    1
    34     7     9    1
    35     8    13    1
    36     9    10    1
    37     9    12    1
    38    10    11    1
    39    10     5    1
    40    12    14    1
    41     5     4    1
    42     4     1    1
    43     1     2    2
    44     1     3    1
    45     1    24    1
    46    24    25    1
    47    25    26    2
    48    25    27    1
@<TRIPOS>MOLECULE
UD1
 46 48 0 0 0
SMALL
GASTEIGER

@<TRIPOS>ATOM
      1 P          19.8865   69.6671   -2.9355 P.3     1  UNL1        0.2189
      2 O          21.2828   69.4120   -3.3526 O.2     1  UNL1       -0.5170
      3 O          18.9819   68.3782   -3.2716 O.3     1  UNL1       -0.4371
      4 O          19.3144   70.9451   -3.7308 O.3     1  UNL1       -0.3112
      5 C          17.9375   70.6804   -4.0037 C.3     1  UNL1        0.1811
      6 C          18.5467   72.4943   -7.0477 C.3     1  UNL1        0.2383
      7 C          18.4227   71.0162   -7.4948 C.3     1  UNL1        0.1895
      8 O          17.8879   70.9249   -8.8158 O.3     1  UNL1       -0.3779
      9 C          17.4261   70.4436   -6.4536 C.3     1  UNL1        0.1713
     10 C          17.5151   71.4265   -5.2702 C.3     1  UNL1        0.1764
     11 O          18.5022   72.4161   -5.6070 O.3     1  UNL1       -0.3308
     12 O          16.1019   70.4160   -6.9909 O.3     1  UNL1       -0.3794
     13 H          17.8370   69.9838   -9.0330 H       1  UNL1        0.2106
     14 H          16.1253   69.8328   -7.7613 H       1  UNL1        0.2105
     15 N          19.8169   73.0673   -7.4945 N.ar    1  UNL1       -0.2551
     16 C          19.8171   74.0722   -8.3875 C.ar    1  UNL1        0.3323
     17 N          20.9703   74.6210   -8.8133 N.ar    1  UNL1       -0.2743
     18 C          22.1517   74.1614   -8.3540 C.ar    1  UNL1        0.2626
     19 C          22.1663   73.0999   -7.4181 C.ar    1  UNL1        0.0795
     20 C          20.9948   72.5714   -7.0039 C.ar    1  UNL1        0.0869
     21 O          18.7596   74.4976   -8.8110 O.2     1  UNL1       -0.2464
     22 O          23.1951   74.6536   -8.7419 O.2     1  UNL1       -0.2670
     23 H          20.9515   75.3483   -9.4542 H       1  UNL1        0.1734
     24 O          19.8433   69.9565   -1.3534 O.3     1  UNL1       -0.2703
     25 P          21.3253   70.4129   -0.9237 P.3     1  UNL1        0.2208
     26 O          22.2894   70.0060   -1.9695 O.2     1  UNL1       -0.5170
     27 O          21.7202   69.7122    0.4711 O.3     1  UNL1       -0.4371
     28 O          21.3663   72.0125   -0.7494 O.3     1  UNL1       -0.2865
     29 C          22.7133   72.3596   -0.4237 C.3     1  UNL1        0.2611
     30 C          22.7089   73.5198    0.5733 C.3     1  UNL1        0.1582
     31 C          21.9781   74.7141   -0.0507 C.3     1  UNL1        0.1625
     32 C          22.6163   75.0239   -1.4090 C.3     1  UNL1        0.1686
     33 C          22.6249   73.7507   -2.2576 C.3     1  UNL1        0.1760
     34 O          22.0966   75.8498    0.8080 O.3     1  UNL1       -0.3801
     35 O          21.8587   76.0374   -2.0729 O.3     1  UNL1       -0.3794
     36 O          23.4036   72.7452   -1.6104 O.3     1  UNL1       -0.3263
     37 H          21.6237   76.5757    0.3781 H       1  UNL1        0.2105
     38 H          22.2937   76.2008   -2.9218 H       1  UNL1        0.2105
     39 C          22.5382   73.4275    3.0016 C.2     1  UNL1        0.2231
     40 C          21.8299   73.0047    4.2632 C.3     1  UNL1        0.0946
     41 N          22.0209   73.1097    1.7992 N.am    1  UNL1       -0.2994
     42 O          23.5745   74.0534    3.0688 O.2     1  UNL1       -0.2751
     43 H          21.1917   72.6087    1.7451 H       1  UNL1        0.1496
     44 C          23.2309   74.0573   -3.6287 C.3     1  UNL1        0.1693
     45 O          23.7354   72.8520   -4.2073 O.3     1  UNL1       -0.3794
     46 H          24.1076   73.0889   -5.0675 H       1  UNL1        0.2105
@<TRIPOS>BOND
     1    29    30    1
     2    29    28    1
     3    29    36    1
     4    30    31    1
     5    30    41    1
     6    31    32    1
     7    31    34    1
     8    32    33    1
     9    32    35    1
    10    33    44    1
    11    33    36    1
    12    44    45    1
    13    39    40    1
    14    39    41   am
    15    39    42    2
    16    41    43    1
    17    28    25    1
    18    34    37    1
    19    35    38    1
    20    45    46    1
    21    15    16   ar
    22    15    20   ar
    23    15     6    1
    24    16    17   ar
    25    16    21    2
    26    17    18   ar
    27    17    23    1
    28    18    19   ar
    29    18    22    2
    30    19    20   ar
    31     6     7    1
    32     6    11    1
    33     7     8    1
    34     7     9    1
    35     8    13    1
    36     9    10    1
    37     9    12    1
    38    10    11    1
    39    10     5    1
    40    12    14    1
    41     5     4    1
    42     4     1    1
    43     1     2    2
    44     1     3    1
    45     1    24    1
    46    24    25    1
    47    25    26    2
    48    25    27    1
@<TRIPOS>MOLECULE
UD1
 46 48 0 0 0
SMALL
GASTEIGER

@<TRIPOS>ATOM
      1 P          22.9211   71.9847   -3.1701 P.3     1  UNL1        0.2189
      2 O          23.4629   70.6116   -3.2688 O.2     1  UNL1       -0.5170
      3 O          23.8266   72.9835   -4.0504 O.3     1  UNL1       -0.4371
      4 O          22.9406   72.4594   -1.6316 O.3     1  UNL1       -0.3112
      5 C          22.2148   71.4801   -0.8870 C.3     1  UNL1        0.1811
      6 C          21.9173   73.5412    2.0440 C.3     1  UNL1        0.2383
      7 C          21.6739   74.5114    0.8609 C.3     1  UNL1        0.1895
      8 O          20.7819   75.5615    1.2361 O.3     1  UNL1       -0.3779
      9 C          21.0206   73.5810   -0.1941 C.3     1  UNL1        0.1713
     10 C          21.4437   72.1650    0.2424 C.3     1  UNL1        0.1764
     11 O          22.2894   72.3060    1.3965 O.3     1  UNL1       -0.3308
     12 O          19.5980   73.7156   -0.1674 O.3     1  UNL1       -0.3794
     13 H          20.6732   76.1277    0.4595 H       1  UNL1        0.2106
     14 H          19.4003   74.6351   -0.3900 H       1  UNL1        0.2105
     15 N          23.0036   74.0246    2.8970 N.ar    1  UNL1       -0.2551
     16 C          23.0084   73.7202    4.2064 C.ar    1  UNL1        0.3323
     17 N          23.9969   74.1479    5.0139 N.ar    1  UNL1       -0.2743
     18 C          24.9998   74.9015    4.5197 C.ar    1  UNL1        0.2626
     19 C          25.0040   75.2344    3.1442 C.ar    1  UNL1        0.0795
     20 C          24.0029   74.7877    2.3558 C.ar    1  UNL1        0.0869
     21 O          22.1108   73.0413    4.6670 O.2     1  UNL1       -0.2464
     22 O          25.8916   75.2928    5.2498 O.2     1  UNL1       -0.2670
     23 H          23.9869   73.9149    5.9551 H       1  UNL1        0.1734
     24 O          21.4087   72.0056   -3.7188 O.3     1  UNL1       -0.2703
     25 P          21.4415   72.7521   -5.1439 P.3     1  UNL1        0.2208
     26 O          22.7753   72.5797   -5.7603 O.2     1  UNL1       -0.5170
     27 O          21.1460   74.3210   -4.9356 O.3     1  UNL1       -0.4371
     28 O          20.3189   72.1196   -6.1084 O.3     1  UNL1       -0.2865
     29 C          19.3228   73.1256   -6.3005 C.3     1  UNL1        0.2611
     30 C          17.9644   72.5834   -5.8527 C.3     1  UNL1        0.1582
     31 C          17.6314   71.3294   -6.6690 C.3     1  UNL1        0.1625
     32 C          17.7378   71.6718   -8.1588 C.3     1  UNL1        0.1686
     33 C          19.1148   72.2801   -8.4332 C.3     1  UNL1        0.1760
     34 O          16.3026   70.9001   -6.3667 O.3     1  UNL1       -0.3801
     35 O          17.5756   70.4833   -8.9352 O.3     1  UNL1       -0.3794
     36 O          19.2695   73.4824   -7.6801 O.3     1  UNL1       -0.3263
     37 H          16.1357   70.1110   -6.9004 H       1  UNL1        0.2105
     38 H          17.6502   70.7437   -9.8642 H       1  UNL1        0.2105
     39 C          16.9699   72.5187   -3.6299 C.2     1  UNL1        0.2231
     40 C          17.0257   72.1680   -2.1649 C.3     1  UNL1        0.0946
     41 N          18.0179   72.2425   -4.4296 N.am    1  UNL1       -0.2994
     42 O          15.9815   73.0504   -4.0888 O.2     1  UNL1       -0.2751
     43 H          18.8091   71.8172   -4.0626 H       1  UNL1        0.1496
     44 C          19.2434   72.5959   -9.9248 C.3     1  UNL1        0.1693
     45 O          17.9953   73.0874  -10.4175 O.3     1  UNL1       -0.3794
     46 H          18.1194   73.2733  -11.3581 H       1  UNL1        0.2105
@<TRIPOS>BOND
     1    29    30    1
     2    29    28    1
     3    29    36    1
     4    30    31    1
     5    30    41    1
     6    31    32    1
     7    31    34    1
     8    32    33    1
     9    32    35    1
    10    33    44    1
    11    33    36    1
    12    44    45    1
    13    39    40    1
    14    39    41   am
    15    39    42    2
    16    41    43    1
    17    28    25    1
    18    34    37    1
    19    35    38    1
    20    45    46    1
    21    15    16   ar
    22    15    20   ar
    23    15     6    1
    24    16    17   ar
    25    16    21    2
    26    17    18   ar
    27    17    23    1
    28    18    19   ar
    29    18    22    2
    30    19    20   ar
    31     6     7    1
    32     6    11    1
    33     7     8    1
    34     7     9    1
    35     8    13    1
    36     9    10    1
    37     9    12    1
    38    10    11    1
    39    10     5    1
    40    12    14    1
    41     5     4    1
    42     4     1    1
    43     1     2    2
    44     1     3    1
    45     1    24    1
    46    24    25    1
    47    25    26    2
    48    25    27    1
@<TRIPOS>MOLECULE
UD1
 46 48 0 0 0
SMALL
GASTEIGER

@<TRIPOS>ATOM
      1 P          20.1724   70.2009   -2.5760 P.3     1  UNL1        0.2189
      2 O          21.3810   69.3854   -2.8268 O.2     1  UNL1       -0.5170
      3 O          18.9785   69.2485   -2.0662 O.3     1  UNL1       -0.4371
      4 O          19.7280   70.9338   -3.9392 O.3     1  UNL1       -0.3112
      5 C          18.3628   70.5835   -4.1714 C.3     1  UNL1        0.1811
      6 C          18.6047   72.5838   -7.1492 C.3     1  UNL1        0.2383
      7 C          18.3007   71.1549   -7.6650 C.3     1  UNL1        0.1895
      8 O          17.5542   71.1987   -8.8816 O.3     1  UNL1       -0.3779
      9 C          17.4459   70.5674   -6.5121 C.3     1  UNL1        0.1713
     10 C          17.7977   71.4493   -5.2984 C.3     1  UNL1        0.1764
     11 O          18.7880   72.3983   -5.7295 O.3     1  UNL1       -0.3308
     12 O          16.0540   70.6638   -6.8220 O.3     1  UNL1       -0.3794
     13 H          17.3992   70.2820   -9.1483 H       1  UNL1        0.2106
     14 H          15.9092   70.1410   -7.6219 H       1  UNL1        0.2105
     15 N          19.8249   73.1089   -7.7630 N.ar    1  UNL1       -0.2551
     16 C          20.7498   72.2582   -8.2408 C.ar    1  UNL1        0.3323
     17 N          21.8797   72.7131   -8.8139 N.ar    1  UNL1       -0.2743
     18 C          22.1069   74.0387   -8.9098 C.ar    1  UNL1        0.2626
     19 C          21.1444   74.9454   -8.4055 C.ar    1  UNL1        0.0795
     20 C          20.0173   74.4620   -7.8403 C.ar    1  UNL1        0.0869
     21 O          20.5592   71.0598   -8.1617 O.2     1  UNL1       -0.2464
     22 O          23.1304   74.4511   -9.4235 O.2     1  UNL1       -0.2670
     23 H          22.5338   72.0852   -9.1575 H       1  UNL1        0.1734
     24 O          20.4948   71.3070   -1.4528 O.3     1  UNL1       -0.2703
     25 P          21.8103   70.8072   -0.6723 P.3     1  UNL1        0.2208
     26 O          22.8820   70.5145   -1.6493 O.2     1  UNL1       -0.5170
     27 O          21.4663   69.4734    0.1613 O.3     1  UNL1       -0.4371
     28 O          22.3054   71.9574    0.3388 O.3     1  UNL1       -0.2865
     29 C          21.1330   72.6063    0.8345 C.3     1  UNL1        0.2611
     30 C          21.2399   74.1100    0.5745 C.3     1  UNL1        0.1582
     31 C          22.4935   74.6512    1.2712 C.3     1  UNL1        0.1625
     32 C          22.4466   74.2466    2.7484 C.3     1  UNL1        0.1686
     33 C          22.2517   72.7319    2.8443 C.3     1  UNL1        0.1760
     34 O          22.5247   76.0755    1.1622 O.3     1  UNL1       -0.3801
     35 O          23.6728   74.6132    3.3835 O.3     1  UNL1       -0.3794
     36 O          21.0144   72.3655    2.2349 O.3     1  UNL1       -0.3263
     37 H          23.3274   76.3726    1.6123 H       1  UNL1        0.2105
     38 H          23.6010   74.3403    4.3092 H       1  UNL1        0.2105
     39 C          22.5438   74.4536   -1.4543 C.2     1  UNL1        0.2231
     40 C          22.6423   74.7038   -2.9375 C.3     1  UNL1        0.0946
     41 N          21.3361   74.3525   -0.8664 N.am    1  UNL1       -0.2994
     42 O          23.5520   74.3441   -0.7897 O.2     1  UNL1       -0.2751
     43 H          20.5292   74.4403   -1.3980 H       1  UNL1        0.1496
     44 C          22.2360   72.3131    4.3158 C.3     1  UNL1        0.1693
     45 O          21.1188   72.9166    4.9714 O.3     1  UNL1       -0.3794
     46 H          21.1462   72.6280    5.8937 H       1  UNL1        0.2105
@<TRIPOS>BOND
     1    29    30    1
     2    29    28    1
     3    29    36    1
     4    30    31    1
     5    30    41    1
     6    31    32    1
     7    31    34    1
     8    32    33    1
     9    32    35    1
    10    33    44    1
    11    33    36    1
    12    44    45    1
    13    39    40    1
    14    39    41   am
    15    39    42    2
    16    41    43    1
    17    28    25    1
    18    34    37    1
    19    35    38    1
    20    45    46    1
    21    15    16   ar
    22    15    20   ar
    23    15     6    1
    24    16    17   ar
    25    16    21    2
    26    17    18   ar
    27    17    23    1
    28    18    19   ar
    29    18    22    2
    30    19    20   ar
    31     6     7    1
    32     6    11    1
    33     7     8    1
    34     7     9    1
    35     8    13    1
    36     9    10    1
    37     9    12    1
    38    10    11    1
    39    10     5    1
    40    12    14    1
    41     5     4    1
    42     4     1    1
    43     1     2    2
    44     1     3    1
    45     1    24    1
    46    24    25    1
    47    25    26    2
    48    25    27    1
@<TRIPOS>MOLECULE
UD1
 46 48 0 0 0
SMALL
GASTEIGER

@<TRIPOS>ATOM
      1 P          20.9843   74.7333   -3.6691 P.3     1  UNL1        0.2189
      2 O          20.7401   76.1680   -3.4031 O.2     1  UNL1       -0.5170
      3 O          19.6442   73.8950   -3.3627 O.3     1  UNL1       -0.4371
      4 O          22.1740   74.2071   -2.7201 O.3     1  UNL1       -0.3112
      5 C          21.5597   73.6415   -1.5612 C.3     1  UNL1        0.1811
      6 C          23.0374   72.3766    1.4626 C.3     1  UNL1        0.2383
      7 C          22.0872   71.2467    0.9927 C.3     1  UNL1        0.1895
      8 O          22.5849   69.9658    1.3809 O.3     1  UNL1       -0.3779
      9 C          22.1238   71.4106   -0.5490 C.3     1  UNL1        0.1713
     10 C          22.6022   72.8601   -0.7602 C.3     1  UNL1        0.1764
     11 O          22.7647   73.4525    0.5397 O.3     1  UNL1       -0.3308
     12 O          23.0442   70.4836   -1.1290 O.3     1  UNL1       -0.3794
     13 H          21.9506   69.3098    1.0603 H       1  UNL1        0.2106
     14 H          22.7229   69.5983   -0.9120 H       1  UNL1        0.2105
     15 N          22.7251   72.7811    2.8338 N.ar    1  UNL1       -0.2551
     16 C          21.5194   72.4945    3.3549 C.ar    1  UNL1        0.3323
     17 N          21.2063   72.8509    4.6147 N.ar    1  UNL1       -0.2743
     18 C          22.1005   73.5139    5.3755 C.ar    1  UNL1        0.2626
     19 C          23.3714   73.8273    4.8374 C.ar    1  UNL1        0.0795
     20 C          23.6612   73.4532    3.5727 C.ar    1  UNL1        0.0869
     21 O          20.7023   71.8970    2.6812 O.2     1  UNL1       -0.2464
     22 O          21.8167   73.8409    6.5130 O.2     1  UNL1       -0.2670
     23 H          20.3336   72.6318    4.9760 H       1  UNL1        0.1734
     24 O          21.4009   74.5366   -5.2107 O.3     1  UNL1       -0.2703
     25 P          21.4301   72.9514   -5.4857 P.3     1  UNL1        0.2208
     26 O          22.4063   72.3112   -4.5768 O.2     1  UNL1       -0.5170
     27 O          21.8610   72.6788   -7.0128 O.3     1  UNL1       -0.4371
     28 O          19.9675   72.3329   -5.2238 O.3     1  UNL1       -0.2865
     29 C          20.0244   70.9576   -5.6063 C.3     1  UNL1        0.2611
     30 C          18.8432   70.6395   -6.5247 C.3     1  UNL1        0.1582
     31 C          17.5361   70.9411   -5.7829 C.3     1  UNL1        0.1625
     32 C          17.5453   70.1887   -4.4480 C.3     1  UNL1        0.1686
     33 C          18.8232   70.5433   -3.6849 C.3     1  UNL1        0.1760
     34 O          16.4266   70.5087   -6.5725 O.3     1  UNL1       -0.3801
     35 O          16.4048   70.5703   -3.6765 O.3     1  UNL1       -0.3794
     36 O          19.9641   70.1386   -4.4406 O.3     1  UNL1       -0.3263
     37 H          15.6275   70.7175   -6.0695 H       1  UNL1        0.2105
     38 H          16.4502   70.0751   -2.8463 H       1  UNL1        0.2105
     39 C          19.5899   71.0162   -8.8127 C.2     1  UNL1        0.2231
     40 C          19.6736   71.8669  -10.0542 C.3     1  UNL1        0.0946
     41 N          18.9243   71.4654   -7.7312 N.am    1  UNL1       -0.2994
     42 O          20.1223   69.9271   -8.7869 O.2     1  UNL1       -0.2751
     43 H          18.4983   72.3370   -7.7515 H       1  UNL1        0.1496
     44 C          18.8267   69.8220   -2.3355 C.3     1  UNL1        0.1693
     45 O          18.2655   68.5170   -2.4910 O.3     1  UNL1       -0.3794
     46 H          18.2862   68.0979   -1.6201 H       1  UNL1        0.2105
@<TRIPOS>BOND
     1    29    30    1
     2    29    28    1
     3    29    36    1
     4    30    31    1
     5    30    41    1
     6    31    32    1
     7    31    34    1
     8    32    33    1
     9    32    35    1
    10    33    44    1
    11    33    36    1
    12    44    45    1
    13    39    40    1
    14    39    41   am
    15    39    42    2
    16    41    43    1
    17    28    25    1
    18    34    37    1
    19    35    38    1
    20    45    46    1
    21    15    16   ar
    22    15    20   ar
    23    15     6    1
    24    16    17   ar
    25    16    21    2
    26    17    18   ar
    27    17    23    1
    28    18    19   ar
    29    18    22    2
    30    19    20   ar
    31     6     7    1
    32     6    11    1
    33     7     8    1
    34     7     9    1
    35     8    13    1
    36     9    10    1
    37     9    12    1
    38    10    11    1
    39    10     5    1
    40    12    14    1
    41     5     4    1
    42     4     1    1
    43     1     2    2
    44     1     3    1
    45     1    24    1
    46    24    25    1
    47    25    26    2
    48    25    27    1
@<TRIPOS>MOLECULE
UD1
 46 48 0 0 0
SMALL
GASTEIGER

@<TRIPOS>ATOM
      1 P          22.9530   74.1532   -4.3290 P.3     1  UNL1        0.2189
      2 O          23.7592   72.9134   -4.3688 O.2     1  UNL1       -0.5170
      3 O          23.5223   75.1986   -5.4132 O.3     1  UNL1       -0.4371
      4 O          23.0426   74.8040   -2.8589 O.3     1  UNL1       -0.3112
      5 C          23.4890   73.7733   -1.9765 C.3     1  UNL1        0.1811
      6 C          21.4496   73.2329    0.9349 C.3     1  UNL1        0.2383
      7 C          20.8190   74.4673    0.2429 C.3     1  UNL1        0.1895
      8 O          19.4119   74.5229    0.4799 O.3     1  UNL1       -0.3779
      9 C          21.1175   74.1897   -1.2534 C.3     1  UNL1        0.1713
     10 C          22.2919   73.1926   -1.2221 C.3     1  UNL1        0.1764
     11 O          22.6391   72.9808    0.1569 O.3     1  UNL1       -0.3308
     12 O          19.9777   73.6102   -1.8919 O.3     1  UNL1       -0.3794
     13 H          19.0820   75.3102    0.0251 H       1  UNL1        0.2106
     14 H          19.2621   74.2565   -1.8262 H       1  UNL1        0.2105
     15 N          21.7959   73.5365    2.3238 N.ar    1  UNL1       -0.2551
     16 C          21.8171   72.5495    3.2363 C.ar    1  UNL1        0.3323
     17 N          22.1360   72.7991    4.5202 N.ar    1  UNL1       -0.2743
     18 C          22.4321   74.0538    4.9151 C.ar    1  UNL1        0.2626
     19 C          22.4078   75.1034    3.9661 C.ar    1  UNL1        0.0795
     20 C          22.0898   74.8241    2.6838 C.ar    1  UNL1        0.0869
     21 O          21.5524   71.4127    2.8955 O.2     1  UNL1       -0.2464
     22 O          22.7159   74.2814    6.0766 O.2     1  UNL1       -0.2670
     23 H          22.1509   72.0742    5.1640 H       1  UNL1        0.1734
     24 O          21.4191   73.8070   -4.6698 O.3     1  UNL1       -0.2703
     25 P          21.3560   73.4744   -6.2430 P.3     1  UNL1        0.2208
     26 O          22.5498   72.6907   -6.6295 O.2     1  UNL1       -0.5170
     27 O          21.3222   74.8483   -7.0817 O.3     1  UNL1       -0.4371
     28 O          20.0285   72.6212   -6.5596 O.3     1  UNL1       -0.2865
     29 C          18.9467   73.2757   -5.8943 C.3     1  UNL1        0.2611
     30 C          18.1648   72.2497   -5.0721 C.3     1  UNL1        0.1582
     31 C          17.6414   71.1528   -6.0060 C.3     1  UNL1        0.1625
     32 C          16.8552   71.8120   -7.1442 C.3     1  UNL1        0.1686
     33 C          17.7372   72.8690   -7.8121 C.3     1  UNL1        0.1760
     34 O          16.7859   70.2709   -5.2768 O.3     1  UNL1       -0.3801
     35 O          16.4833   70.8215   -8.1045 O.3     1  UNL1       -0.3794
     36 O          18.0878   73.8746   -6.8623 O.3     1  UNL1       -0.3263
     37 H          16.4805   69.5983   -5.9010 H       1  UNL1        0.2105
     38 H          15.9925   71.2786   -8.8021 H       1  UNL1        0.2105
     39 C          19.7065   70.5144   -4.3332 C.2     1  UNL1        0.2231
     40 C          20.6123   69.9038   -3.2944 C.3     1  UNL1        0.0946
     41 N          19.0452   71.6565   -4.0635 N.am    1  UNL1       -0.2994
     42 O          19.5722   69.9771   -5.4118 O.2     1  UNL1       -0.2751
     43 H          19.1523   72.0865   -3.2003 H       1  UNL1        0.1496
     44 C          16.9724   73.5110   -8.9715 C.3     1  UNL1        0.1693
     45 O          15.5737   73.2639   -8.8149 O.3     1  UNL1       -0.3794
     46 H          15.1297   73.6837   -9.5641 H       1  UNL1        0.2105
@<TRIPOS>BOND
     1    29    30    1
     2    29    28    1
     3    29    36    1
     4    30    31    1
     5    30    41    1
     6    31    32    1
     7    31    34    1
     8    32    33    1
     9    32    35    1
    10    33    44    1
    11    33    36    1
    12    44    45    1
    13    39    40    1
    14    39    41   am
    15    39    42    2
    16    41    43    1
    17    28    25    1
    18    34    37    1
    19    35    38    1
    20    45    46    1
    21    15    16   ar
    22    15    20   ar
    23    15     6    1
    24    16    17   ar
    25    16    21    2
    26    17    18   ar
    27    17    23    1
    28    18    19   ar
    29    18    22    2
    30    19    20   ar
    31     6     7    1
    32     6    11    1
    33     7     8    1
    34     7     9    1
    35     8    13    1
    36     9    10    1
    37     9    12    1
    38    10    11    1
    39    10     5    1
    40    12    14    1
    41     5     4    1
    42     4     1    1
    43     1     2    2
    44     1     3    1
    45     1    24    1
    46    24    25    1
    47    25    26    2
    48    25    27    1
@<TRIPOS>MOLECULE
UD1
 46 48 0 0 0
SMALL
GASTEIGER

@<TRIPOS>ATOM
      1 P          19.7987   73.1453   -3.1974 P.3     1  UNL1        0.2189
      2 O          20.2196   73.1345   -4.6157 O.2     1  UNL1       -0.5170
      3 O          20.0468   74.6094   -2.5750 O.3     1  UNL1       -0.4371
      4 O          20.6588   72.0607   -2.3747 O.3     1  UNL1       -0.3112
      5 C          20.6220   72.4576   -1.0031 C.3     1  UNL1        0.1811
      6 C          22.9516   72.3473    1.7334 C.3     1  UNL1        0.2383
      7 C          22.4737   70.8825    1.5711 C.3     1  UNL1        0.1895
      8 O          23.5003   69.9650    1.9501 O.3     1  UNL1       -0.3779
      9 C          22.1915   70.7989    0.0484 C.3     1  UNL1        0.1713
     10 C          22.0054   72.2677   -0.3790 C.3     1  UNL1        0.1764
     11 O          22.1239   73.0774    0.8032 O.3     1  UNL1       -0.3308
     12 O          23.2999   70.2090   -0.6343 O.3     1  UNL1       -0.3794
     13 H          23.1406   69.0757    1.8269 H       1  UNL1        0.2106
     14 H          23.4016   69.3150   -0.2813 H       1  UNL1        0.2105
     15 N          22.7293   72.8176    3.1012 N.ar    1  UNL1       -0.2551
     16 C          21.5501   72.5835    3.7029 C.ar    1  UNL1        0.3323
     17 N          21.3193   73.0010    4.9618 N.ar    1  UNL1       -0.2743
     18 C          22.2711   73.6734    5.6399 C.ar    1  UNL1        0.2626
     19 C          23.5149   73.9319    5.0163 C.ar    1  UNL1        0.0795
     20 C          23.7217   73.4971    3.7548 C.ar    1  UNL1        0.0869
     21 O          20.6817   71.9783    3.1043 O.2     1  UNL1       -0.2464
     22 O          22.0618   74.0555    6.7764 O.2     1  UNL1       -0.2670
     23 H          20.4645   72.8193    5.3820 H       1  UNL1        0.1734
     24 O          18.2355   72.7770   -3.0987 O.3     1  UNL1       -0.2703
     25 P          17.4960   73.5655   -4.2907 P.3     1  UNL1        0.2208
     26 O          17.6201   75.0230   -4.0693 O.2     1  UNL1       -0.5170
     27 O          15.9385   73.1584   -4.3190 O.3     1  UNL1       -0.4371
     28 O          18.1765   73.1765   -5.6964 O.3     1  UNL1       -0.2865
     29 C          17.3404   72.1892   -6.3025 C.3     1  UNL1        0.2611
     30 C          18.1791   70.9551   -6.6398 C.3     1  UNL1        0.1582
     31 C          19.3110   71.3627   -7.5896 C.3     1  UNL1        0.1625
     32 C          18.7023   72.0868   -8.7952 C.3     1  UNL1        0.1686
     33 C          17.8265   73.2375   -8.2953 C.3     1  UNL1        0.1760
     34 O          20.0098   70.1968   -8.0299 O.3     1  UNL1       -0.3801
     35 O          19.7481   72.6039   -9.6201 O.3     1  UNL1       -0.3794
     36 O          16.7646   72.7220   -7.4933 O.3     1  UNL1       -0.3263
     37 H          20.7113   70.4989   -8.6232 H       1  UNL1        0.2105
     38 H          19.3217   73.0513  -10.3648 H       1  UNL1        0.2105
     39 C          17.9846   69.6415   -4.5975 C.2     1  UNL1        0.2231
     40 C          18.5696   69.0685   -3.3319 C.3     1  UNL1        0.0946
     41 N          18.7470   70.3979   -5.4105 N.am    1  UNL1       -0.2994
     42 O          16.8270   69.4223   -4.8838 O.2     1  UNL1       -0.2751
     43 H          19.6734   70.5737   -5.1814 H       1  UNL1        0.1496
     44 C          17.2395   73.9876   -9.4928 C.3     1  UNL1        0.1693
     45 O          17.6632   73.3582  -10.7038 O.3     1  UNL1       -0.3794
     46 H          17.2728   73.8605  -11.4317 H       1  UNL1        0.2105
@<TRIPOS>BOND
     1    29    30    1
     2    29    28    1
     3    29    36    1
     4    30    31    1
     5    30    41    1
     6    31    32    1
     7    31    34    1
     8    32    33    1
     9    32    35    1
    10    33    44    1
    11    33    36    1
    12    44    45    1
    13    39    40    1
    14    39    41   am
    15    39    42    2
    16    41    43    1
    17    28    25    1
    18    34    37    1
    19    35    38    1
    20    45    46    1
    21    15    16   ar
    22    15    20   ar
    23    15     6    1
    24    16    17   ar
    25    16    21    2
    26    17    18   ar
    27    17    23    1
    28    18    19   ar
    29    18    22    2
    30    19    20   ar
    31     6     7    1
    32     6    11    1
    33     7     8    1
    34     7     9    1
    35     8    13    1
    36     9    10    1
    37     9    12    1
    38    10    11    1
    39    10     5    1
    40    12    14    1
    41     5     4    1
    42     4     1    1
    43     1     2    2
    44     1     3    1
    45     1    24    1
    46    24    25    1
    47    25    26    2
    48    25    27    1
@<TRIPOS>MOLECULE
UD1
 46 48 0 0 0
SMALL
GASTEIGER

@<TRIPOS>ATOM
      1 P          22.4757   71.7619   -3.2312 P.3     1  UNL1        0.2189
      2 O          23.0683   70.4574   -2.8628 O.2     1  UNL1       -0.5170
      3 O          23.6395   72.7610   -3.7211 O.3     1  UNL1       -0.4371
      4 O          21.7316   72.3935   -1.9505 O.3     1  UNL1       -0.3112
      5 C          22.7086   73.1529   -1.2370 C.3     1  UNL1        0.1811
      6 C          22.6871   73.3034    2.3553 C.3     1  UNL1        0.2383
      7 C          21.2696   72.8039    1.9792 C.3     1  UNL1        0.1895
      8 O          20.7429   71.9489    2.9945 O.3     1  UNL1       -0.3779
      9 C          21.5393   72.0116    0.6736 C.3     1  UNL1        0.1713
     10 C          22.8826   72.5711    0.1668 C.3     1  UNL1        0.1764
     11 O          23.2881   73.6065    1.0783 O.3     1  UNL1       -0.3308
     12 O          21.6446   70.6132    0.9496 O.3     1  UNL1       -0.3794
     13 H          19.8631   71.6745    2.7009 H       1  UNL1        0.2106
     14 H          20.7952   70.3366    1.3184 H       1  UNL1        0.2105
     15 N          22.6108   74.5043    3.1879 N.ar    1  UNL1       -0.2551
     16 C          22.6177   74.3881    4.5272 C.ar    1  UNL1        0.3323
     17 N          22.5525   75.4758    5.3177 N.ar    1  UNL1       -0.2743
     18 C          22.4693   76.7069    4.7740 C.ar    1  UNL1        0.2626
     19 C          22.4551   76.8433    3.3655 C.ar    1  UNL1        0.0795
     20 C          22.5270   75.7359    2.5962 C.ar    1  UNL1        0.0869
     21 O          22.6923   73.2846    5.0325 O.2     1  UNL1       -0.2464
     22 O          22.4055   77.6907    5.4878 O.2     1  UNL1       -0.2670
     23 H          22.5634   75.3737    6.2819 H       1  UNL1        0.1734
     24 O          21.4119   71.5517   -4.4200 O.3     1  UNL1       -0.2703
     25 P          21.4408   72.8907   -5.3119 P.3     1  UNL1        0.2208
     26 O          22.7003   72.9401   -6.0867 O.2     1  UNL1       -0.5170
     27 O          21.3525   74.1790   -4.3502 O.3     1  UNL1       -0.4371
     28 O          20.1885   72.8907   -6.3229 O.3     1  UNL1       -0.2865
     29 C          20.0805   71.5668   -6.8490 C.3     1  UNL1        0.2611
     30 C          20.0640   71.6304   -8.3772 C.3     1  UNL1        0.1582
     31 C          18.8793   72.4910   -8.8304 C.3     1  UNL1        0.1625
     32 C          17.6011   71.9432   -8.1867 C.3     1  UNL1        0.1686
     33 C          17.8024   71.8589   -6.6722 C.3     1  UNL1        0.1760
     34 O          18.7642   72.4362  -10.2534 O.3     1  UNL1       -0.3801
     35 O          16.5078   72.8162   -8.4771 O.3     1  UNL1       -0.3794
     36 O          18.8761   70.9663   -6.3775 O.3     1  UNL1       -0.3263
     37 H          18.0089   72.9901  -10.4942 H       1  UNL1        0.2105
     38 H          15.7255   72.4352   -8.0535 H       1  UNL1        0.2105
     39 C          21.3900   73.5519   -9.0728 C.2     1  UNL1        0.2231
     40 C          22.6765   74.1631   -9.5665 C.3     1  UNL1        0.0946
     41 N          21.3137   72.2246   -8.8564 N.am    1  UNL1       -0.2994
     42 O          20.4230   74.2550   -8.8710 O.2     1  UNL1       -0.2751
     43 H          22.0873   71.6617   -9.0181 H       1  UNL1        0.1496
     44 C          16.5197   71.3434   -6.0164 C.3     1  UNL1        0.1693
     45 O          16.7870   70.1056   -5.3544 O.3     1  UNL1       -0.3794
     46 H          15.9551   69.8160   -4.9560 H       1  UNL1        0.2105
@<TRIPOS>BOND
     1    29    30    1
     2    29    28    1
     3    29    36    1
     4    30    31    1
     5    30    41    1
     6    31    32    1
     7    31    34    1
     8    32    33    1
     9    32    35    1
    10    33    44    1
    11    33    36    1
    12    44    45    1
    13    39    40    1
    14    39    41   am
    15    39    42    2
    16    41    43    1
    17    28    25    1
    18    34    37    1
    19    35    38    1
    20    45    46    1
    21    15    16   ar
    22    15    20   ar
    23    15     6    1
    24    16    17   ar
    25    16    21    2
    26    17    18   ar
    27    17    23    1
    28    18    19   ar
    29    18    22    2
    30    19    20   ar
    31     6     7    1
    32     6    11    1
    33     7     8    1
    34     7     9    1
    35     8    13    1
    36     9    10    1
    37     9    12    1
    38    10    11    1
    39    10     5    1
    40    12    14    1
    41     5     4    1
    42     4     1    1
    43     1     2    2
    44     1     3    1
    45     1    24    1
    46    24    25    1
    47    25    26    2
    48    25    27    1
@<TRIPOS>MOLECULE
UD1
 46 48 0 0 0
SMALL
GASTEIGER

@<TRIPOS>ATOM
      1 P          18.6109   74.6545   -2.4821 P.3     1  UNL1        0.2189
      2 O          17.2785   75.0456   -2.9926 O.2     1  UNL1       -0.5170
      3 O          19.7373   75.0523   -3.5617 O.3     1  UNL1       -0.4371
      4 O          18.6444   73.0638   -2.2344 O.3     1  UNL1       -0.3112
      5 C          17.2986   72.5988   -2.3485 C.3     1  UNL1        0.1811
      6 C          17.9108   70.3516   -5.0877 C.3     1  UNL1        0.2383
      7 C          19.1842   70.2509   -4.2109 C.3     1  UNL1        0.1895
      8 O          19.7661   68.9501   -4.3023 O.3     1  UNL1       -0.3779
      9 C          18.6213   70.5067   -2.7886 C.3     1  UNL1        0.1713
     10 C          17.2864   71.2344   -3.0396 C.3     1  UNL1        0.1764
     11 O          17.1518   71.4072   -4.4606 O.3     1  UNL1       -0.3308
     12 O          18.4037   69.2696   -2.1067 O.3     1  UNL1       -0.3794
     13 H          20.5508   68.9538   -3.7368 H       1  UNL1        0.2106
     14 H          19.2643   68.8359   -2.0337 H       1  UNL1        0.2105
     15 N          18.2549   70.7108   -6.4639 N.ar    1  UNL1       -0.2551
     16 C          17.3425   70.5602   -7.4397 C.ar    1  UNL1        0.3323
     17 N          17.6301   70.8861   -8.7138 N.ar    1  UNL1       -0.2743
     18 C          18.8496   71.3634   -9.0344 C.ar    1  UNL1        0.2626
     19 C          19.8216   71.5213   -8.0179 C.ar    1  UNL1        0.0795
     20 C          19.5048   71.1916   -6.7474 C.ar    1  UNL1        0.0869
     21 O          16.2381   70.1310   -7.1664 O.2     1  UNL1       -0.2464
     22 O          19.1123   71.6539  -10.1868 O.2     1  UNL1       -0.2670
     23 H          16.9583   70.7755   -9.4042 H       1  UNL1        0.1734
     24 O          18.9004   75.4194   -1.0964 O.3     1  UNL1       -0.2703
     25 P          20.4496   75.1678   -0.7414 P.3     1  UNL1        0.2208
     26 O          20.7625   75.7855    0.5661 O.2     1  UNL1       -0.5170
     27 O          21.3760   75.8272   -1.8811 O.3     1  UNL1       -0.4371
     28 O          20.7348   73.5854   -0.6691 O.3     1  UNL1       -0.2865
     29 C          22.1468   73.4123   -0.8012 C.3     1  UNL1        0.2611
     30 C          22.4280   72.3501   -1.8654 C.3     1  UNL1        0.1582
     31 C          21.7580   71.0353   -1.4507 C.3     1  UNL1        0.1625
     32 C          22.2182   70.6764   -0.0338 C.3     1  UNL1        0.1686
     33 C          21.9499   71.8640    0.8931 C.3     1  UNL1        0.1760
     34 O          22.1364   69.9981   -2.3577 O.3     1  UNL1       -0.3801
     35 O          21.4947   69.5344    0.4288 O.3     1  UNL1       -0.3794
     36 O          22.6926   72.9990    0.4497 O.3     1  UNL1       -0.3263
     37 H          21.6934   69.1915   -2.0602 H       1  UNL1        0.2105
     38 H          21.8141   69.3439    1.3222 H       1  UNL1        0.2105
     39 C          22.7072   72.9520   -4.2094 C.2     1  UNL1        0.2231
     40 C          22.1503   73.4067   -5.5343 C.3     1  UNL1        0.0946
     41 N          21.8874   72.7914   -3.1528 N.am    1  UNL1       -0.2994
     42 O          23.8939   72.7313   -4.0942 O.2     1  UNL1       -0.2751
     43 H          20.9377   72.9682   -3.2447 H       1  UNL1        0.1496
     44 C          22.3761   71.5038    2.3178 C.3     1  UNL1        0.1693
     45 O          21.3238   71.8314    3.2274 O.3     1  UNL1       -0.3794
     46 H          21.6325   71.5897    4.1111 H       1  UNL1        0.2105
@<TRIPOS>BOND
     1    29    30    1
     2    29    28    1
     3    29    36    1
     4    30    31    1
     5    30    41    1
     6    31    32    1
     7    31    34    1
     8    32    33    1
     9    32    35    1
    10    33    44    1
    11    33    36    1
    12    44    45    1
    13    39    40    1
    14    39    41   am
    15    39    42    2
    16    41    43    1
    17    28    25    1
    18    34    37    1
    19    35    38    1
    20    45    46    1
    21    15    16   ar
    22    15    20   ar
    23    15     6    1
    24    16    17   ar
    25    16    21    2
    26    17    18   ar
    27    17    23    1
    28    18    19   ar
    29    18    22    2
    30    19    20   ar
    31     6     7    1
    32     6    11    1
    33     7     8    1
    34     7     9    1
    35     8    13    1
    36     9    10    1
    37     9    12    1
    38    10    11    1
    39    10     5    1
    40    12    14    1
    41     5     4    1
    42     4     1    1
    43     1     2    2
    44     1     3    1
    45     1    24    1
    46    24    25    1
    47    25    26    2
    48    25    27    1
@<TRIPOS>MOLECULE
UD1
 46 48 0 0 0
SMALL
GASTEIGER

@<TRIPOS>ATOM
      1 P          17.6877   72.0525   -2.7799 P.3     1  UNL1        0.2189
      2 O          16.6985   72.8921   -2.0691 O.2     1  UNL1       -0.5170
      3 O          17.0035   70.6572   -3.2011 O.3     1  UNL1       -0.4371
      4 O          18.9407   71.7635   -1.8106 O.3     1  UNL1       -0.3112
      5 C          19.9724   72.6780   -2.1841 C.3     1  UNL1        0.1811
      6 C          22.4198   72.3549    0.4299 C.3     1  UNL1        0.2383
      7 C          21.5588   71.0720    0.5436 C.3     1  UNL1        0.1895
      8 O          22.3347   69.9772    1.0321 O.3     1  UNL1       -0.3779
      9 C          21.1322   70.8346   -0.9285 C.3     1  UNL1        0.1713
     10 C          21.3052   72.2130   -1.5953 C.3     1  UNL1        0.1764
     11 O          21.7369   73.1317   -0.5770 O.3     1  UNL1       -0.3308
     12 O          21.9806   69.8635   -1.5449 O.3     1  UNL1       -0.3794
     13 H          21.7430   69.2136    1.0797 H       1  UNL1        0.2106
     14 H          21.8724   69.0421   -1.0472 H       1  UNL1        0.2105
     15 N          22.4507   73.0743    1.7039 N.ar    1  UNL1       -0.2551
     16 C          21.6424   72.6887    2.7065 C.ar    1  UNL1        0.3323
     17 N          21.6524   73.3295    3.8904 N.ar    1  UNL1       -0.2743
     18 C          22.4728   74.3813    4.0868 C.ar    1  UNL1        0.2626
     19 C          23.3247   74.8015    3.0377 C.ar    1  UNL1        0.0795
     20 C          23.2982   74.1375    1.8622 C.ar    1  UNL1        0.0869
     21 O          20.8968   71.7418    2.5447 O.2     1  UNL1       -0.2464
     22 O          22.4793   74.9643    5.1551 O.2     1  UNL1       -0.2670
     23 H          21.0660   73.0348    4.6042 H       1  UNL1        0.1734
     24 O          18.1958   72.8218   -4.0985 O.3     1  UNL1       -0.2703
     25 P          16.8894   73.1450   -4.9806 P.3     1  UNL1        0.2208
     26 O          16.4821   74.5504   -4.7620 O.2     1  UNL1       -0.5170
     27 O          15.6894   72.1649   -4.5427 O.3     1  UNL1       -0.4371
     28 O          17.2231   72.9193   -6.5389 O.3     1  UNL1       -0.2865
     29 C          18.0487   74.0110   -6.9483 C.3     1  UNL1        0.2611
     30 C          17.4796   74.6214   -8.2304 C.3     1  UNL1        0.1582
     31 C          17.4288   73.5435   -9.3190 C.3     1  UNL1        0.1625
     32 C          18.8216   72.9195   -9.4563 C.3     1  UNL1        0.1686
     33 C          19.2881   72.4347   -8.0820 C.3     1  UNL1        0.1760
     34 O          17.0408   74.1347  -10.5605 O.3     1  UNL1       -0.3801
     35 O          18.7631   71.8142  -10.3600 O.3     1  UNL1       -0.3794
     36 O          19.3740   73.5406   -7.1842 O.3     1  UNL1       -0.3263
     37 H          17.0215   73.4230  -11.2150 H       1  UNL1        0.2105
     38 H          19.6584   71.4514  -10.4164 H       1  UNL1        0.2105
     39 C          15.0594   74.3443   -8.2233 C.2     1  UNL1        0.2231
     40 C          13.6688   74.8636   -7.9611 C.3     1  UNL1        0.0946
     41 N          16.1285   75.1252   -7.9754 N.am    1  UNL1       -0.2994
     42 O          15.2160   73.2234   -8.6582 O.2     1  UNL1       -0.2751
     43 H          16.0035   76.0224   -7.6275 H       1  UNL1        0.1496
     44 C          20.6649   71.7803   -8.2138 C.3     1  UNL1        0.1693
     45 O          21.4142   72.4471   -9.2316 O.3     1  UNL1       -0.3794
     46 H          22.2724   72.0048   -9.2824 H       1  UNL1        0.2105
@<TRIPOS>BOND
     1    29    30    1
     2    29    28    1
     3    29    36    1
     4    30    31    1
     5    30    41    1
     6    31    32    1
     7    31    34    1
     8    32    33    1
     9    32    35    1
    10    33    44    1
    11    33    36    1
    12    44    45    1
    13    39    40    1
    14    39    41   am
    15    39    42    2
    16    41    43    1
    17    28    25    1
    18    34    37    1
    19    35    38    1
    20    45    46    1
    21    15    16   ar
    22    15    20   ar
    23    15     6    1
    24    16    17   ar
    25    16    21    2
    26    17    18   ar
    27    17    23    1
    28    18    19   ar
    29    18    22    2
    30    19    20   ar
    31     6     7    1
    32     6    11    1
    33     7     8    1
    34     7     9    1
    35     8    13    1
    36     9    10    1
    37     9    12    1
    38    10    11    1
    39    10     5    1
    40    12    14    1
    41     5     4    1
    42     4     1    1
    43     1     2    2
    44     1     3    1
    45     1    24    1
    46    24    25    1
    47    25    26    2
    48    25    27    1
