@<TRIPOS>MOLECULE
GDU
 43 45 0 0 0
SMALL
GASTEIGER

@<TRIPOS>ATOM
      1 P          22.1924   70.8530   -2.4920 P.3     1  UNL1        0.2189
      2 O          21.5833   69.6237   -1.9376 O.2     1  UNL1       -0.5170
      3 O          23.5818   70.4835   -3.2172 O.3     1  UNL1       -0.4371
      4 O          21.1887   71.5148   -3.5605 O.3     1  UNL1       -0.3112
      5 C          20.2112   72.2419   -2.8148 C.3     1  UNL1        0.1811
      6 C          17.9799   71.3141   -5.4771 C.3     1  UNL1        0.2383
      7 C          18.0973   70.0378   -4.6053 C.3     1  UNL1        0.1895
      8 O          16.8904   69.2735   -4.6549 O.3     1  UNL1       -0.3779
      9 C          18.3187   70.6308   -3.1894 C.3     1  UNL1        0.1713
     10 C          18.8353   72.0565   -3.4573 C.3     1  UNL1        0.1764
     11 O          18.9363   72.2172   -4.8829 O.3     1  UNL1       -0.3308
     12 O          17.0879   70.6655   -2.4643 O.3     1  UNL1       -0.3794
     13 H          17.0288   68.4970   -4.0948 H       1  UNL1        0.2106
     14 H          16.7863   69.7507   -2.3805 H       1  UNL1        0.2105
     15 N          18.3369   71.0264   -6.8673 N.ar    1  UNL1       -0.2551
     16 C          17.3752   70.7012   -7.7491 C.ar    1  UNL1        0.3323
     17 N          17.6762   70.4355   -9.0339 N.ar    1  UNL1       -0.2743
     18 C          18.9542   70.4819   -9.4565 C.ar    1  UNL1        0.2626
     19 C          19.9784   70.8175   -8.5374 C.ar    1  UNL1        0.0795
     20 C          19.6484   71.0835   -7.2557 C.ar    1  UNL1        0.0869
     21 O          16.2177   70.6557   -7.3827 O.2     1  UNL1       -0.2464
     22 O          19.2282   70.2370  -10.6181 O.2     1  UNL1       -0.2670
     23 H          16.9689   70.2066   -9.6577 H       1  UNL1        0.1734
     24 O          22.4725   71.8971   -1.2988 O.3     1  UNL1       -0.2703
     25 P          22.4099   71.0626    0.0759 P.3     1  UNL1        0.2208
     26 O          21.0863   70.4129    0.1983 O.2     1  UNL1       -0.5170
     27 O          23.5616   69.9367    0.0728 O.3     1  UNL1       -0.4371
     28 O          22.6374   72.0578    1.3200 O.3     1  UNL1       -0.2858
     29 C          21.3452   72.3779    1.8370 C.3     1  UNL1        0.2704
     30 C          20.9076   73.7433    1.3045 C.3     1  UNL1        0.1967
     31 C          21.9358   74.7967    1.7282 C.3     1  UNL1        0.1715
     32 C          22.1203   74.7179    3.2479 C.3     1  UNL1        0.1694
     33 C          22.4681   73.2778    3.6330 C.3     1  UNL1        0.1761
     34 O          20.8268   73.6975   -0.1212 O.3     1  UNL1       -0.3775
     35 O          21.4678   76.0975    1.3658 O.3     1  UNL1       -0.3794
     36 O          20.9108   75.1123    3.8971 O.3     1  UNL1       -0.3794
     37 O          21.3994   72.4086    3.2614 O.3     1  UNL1       -0.3258
     38 H          20.1752   73.0181   -0.3420 H       1  UNL1        0.2106
     39 H          21.3550   76.0972    0.4069 H       1  UNL1        0.2105
     40 H          20.7285   76.0202    3.6217 H       1  UNL1        0.2105
     41 C          22.6882   73.1952    5.1452 C.3     1  UNL1        0.1693
     42 O          21.4317   73.0090    5.7991 O.3     1  UNL1       -0.3794
     43 H          21.6142   72.9613    6.7477 H       1  UNL1        0.2105
@<TRIPOS>BOND
     1    15    16   ar
     2    15    20   ar
     3    15     6    1
     4    16    17   ar
     5    16    21    2
     6    17    18   ar
     7    17    23    1
     8    18    19   ar
     9    18    22    2
    10    19    20   ar
    11     6     7    1
    12     6    11    1
    13     7     8    1
    14     7     9    1
    15     8    13    1
    16     9    10    1
    17     9    12    1
    18    10    11    1
    19    10     5    1
    20    12    14    1
    21     5     4    1
    22     4     1    1
    23     1     2    2
    24     1     3    1
    25     1    24    1
    26    24    25    1
    27    25    26    2
    28    25    27    1
    29    25    28    1
    30    28    29    1
    31    29    30    1
    32    29    37    1
    33    30    31    1
    34    30    34    1
    35    31    32    1
    36    31    35    1
    37    32    33    1
    38    32    36    1
    39    33    41    1
    40    33    37    1
    41    41    42    1
    42    34    38    1
    43    35    39    1
    44    36    40    1
    45    42    43    1
@<TRIPOS>MOLECULE
GDU
 43 45 0 0 0
SMALL
GASTEIGER

@<TRIPOS>ATOM
      1 P          21.3016   70.2385   -1.5314 P.3     1  UNL1        0.2189
      2 O          20.8039   69.1776   -2.4350 O.2     1  UNL1       -0.5170
      3 O          22.7043   70.8016   -2.0865 O.3     1  UNL1       -0.4371
      4 O          20.2299   71.4361   -1.4677 O.3     1  UNL1       -0.3112
      5 C          20.2893   72.1117   -2.7249 C.3     1  UNL1        0.1811
      6 C          17.9785   71.4316   -5.3942 C.3     1  UNL1        0.2383
      7 C          17.9177   70.1697   -4.4959 C.3     1  UNL1        0.1895
      8 O          16.6205   69.5712   -4.5445 O.3     1  UNL1       -0.3779
      9 C          18.2031   70.7580   -3.0896 C.3     1  UNL1        0.1713
     10 C          18.9068   72.0967   -3.3797 C.3     1  UNL1        0.1764
     11 O          19.0410   72.2123   -4.8069 O.3     1  UNL1       -0.3308
     12 O          16.9813   70.9709   -2.3798 O.3     1  UNL1       -0.3794
     13 H          16.6496   68.7952   -3.9676 H       1  UNL1        0.2106
     14 H          16.5603   70.1062   -2.2813 H       1  UNL1        0.2105
     15 N          18.3066   71.0696   -6.7742 N.ar    1  UNL1       -0.2551
     16 C          17.3190   70.7927   -7.6437 C.ar    1  UNL1        0.3323
     17 N          17.5934   70.4608   -8.9190 N.ar    1  UNL1       -0.2743
     18 C          18.8696   70.3908   -9.3439 C.ar    1  UNL1        0.2626
     19 C          19.9205   70.6743   -8.4375 C.ar    1  UNL1        0.0795
     20 C          19.6171   71.0088   -7.1653 C.ar    1  UNL1        0.0869
     21 O          16.1628   70.8521   -7.2751 O.2     1  UNL1       -0.2464
     22 O          19.1192   70.0858  -10.4968 O.2     1  UNL1       -0.2670
     23 H          16.8679   70.2682   -9.5342 H       1  UNL1        0.1734
     24 O          21.5154   69.6290   -0.0565 O.3     1  UNL1       -0.2703
     25 P          22.3364   70.7263    0.7873 P.3     1  UNL1        0.2208
     26 O          23.2209   70.0425    1.7563 O.2     1  UNL1       -0.5170
     27 O          23.2274   71.6176   -0.2156 O.3     1  UNL1       -0.4371
     28 O          21.3066   71.6776    1.5776 O.3     1  UNL1       -0.2858
     29 C          22.0578   72.7928    2.0590 C.3     1  UNL1        0.2704
     30 C          21.7719   72.9948    3.5479 C.3     1  UNL1        0.1967
     31 C          20.2706   73.2306    3.7398 C.3     1  UNL1        0.1715
     32 C          19.8355   74.3847    2.8297 C.3     1  UNL1        0.1694
     33 C          20.2669   74.0761    1.3938 C.3     1  UNL1        0.1761
     34 O          22.1719   71.8313    4.2742 O.3     1  UNL1       -0.3775
     35 O          20.0079   73.5664    5.1039 O.3     1  UNL1       -0.3794
     36 O          20.4503   75.5970    3.2683 O.3     1  UNL1       -0.3794
     37 O          21.6879   73.9622    1.3321 O.3     1  UNL1       -0.3258
     38 H          23.1195   71.7176    4.1190 H       1  UNL1        0.2106
     39 H          20.3071   72.8201    5.6385 H       1  UNL1        0.2105
     40 H          20.1557   75.7478    4.1759 H       1  UNL1        0.2105
     41 C          19.8069   75.2067    0.4708 C.3     1  UNL1        0.1693
     42 O          18.3791   75.2461    0.4422 O.3     1  UNL1       -0.3794
     43 H          18.1309   75.9705   -0.1484 H       1  UNL1        0.2105
@<TRIPOS>BOND
     1    15    16   ar
     2    15    20   ar
     3    15     6    1
     4    16    17   ar
     5    16    21    2
     6    17    18   ar
     7    17    23    1
     8    18    19   ar
     9    18    22    2
    10    19    20   ar
    11     6     7    1
    12     6    11    1
    13     7     8    1
    14     7     9    1
    15     8    13    1
    16     9    10    1
    17     9    12    1
    18    10    11    1
    19    10     5    1
    20    12    14    1
    21     5     4    1
    22     4     1    1
    23     1     2    2
    24     1     3    1
    25     1    24    1
    26    24    25    1
    27    25    26    2
    28    25    27    1
    29    25    28    1
    30    28    29    1
    31    29    30    1
    32    29    37    1
    33    30    31    1
    34    30    34    1
    35    31    32    1
    36    31    35    1
    37    32    33    1
    38    32    36    1
    39    33    41    1
    40    33    37    1
    41    41    42    1
    42    34    38    1
    43    35    39    1
    44    36    40    1
    45    42    43    1
@<TRIPOS>MOLECULE
GDU
 43 45 0 0 0
SMALL
GASTEIGER

@<TRIPOS>ATOM
      1 P          21.8942   70.4114   -0.4330 P.3     1  UNL1        0.2189
      2 O          22.5086   69.1958    0.1453 O.2     1  UNL1       -0.5170
      3 O          22.9920   71.2051   -1.3036 O.3     1  UNL1       -0.4371
      4 O          20.6611   69.9928   -1.3770 O.3     1  UNL1       -0.3112
      5 C          20.8516   70.6589   -2.6262 C.3     1  UNL1        0.1811
      6 C          18.3644   71.0623   -5.1910 C.3     1  UNL1        0.2383
      7 C          17.9884   69.7318   -4.4902 C.3     1  UNL1        0.1895
      8 O          16.5763   69.5142   -4.5330 O.3     1  UNL1       -0.3779
      9 C          18.4653   69.9843   -3.0363 C.3     1  UNL1        0.1713
     10 C          19.4986   71.1179   -3.1729 C.3     1  UNL1        0.1764
     11 O          19.6167   71.4267   -4.5725 O.3     1  UNL1       -0.3308
     12 O          17.3697   70.3932   -2.2150 O.3     1  UNL1       -0.3794
     13 H          16.4097   68.6743   -4.0828 H       1  UNL1        0.2106
     14 H          16.7318   69.6667   -2.2170 H       1  UNL1        0.2105
     15 N          18.5400   70.8583   -6.6299 N.ar    1  UNL1       -0.2551
     16 C          17.4631   70.8203   -7.4344 C.ar    1  UNL1        0.3323
     17 N          17.5972   70.6376   -8.7612 N.ar    1  UNL1       -0.2743
     18 C          18.8189   70.4791   -9.3057 C.ar    1  UNL1        0.2626
     19 C          19.9619   70.5111   -8.4698 C.ar    1  UNL1        0.0795
     20 C          19.7992   70.7001   -7.1431 C.ar    1  UNL1        0.0869
     21 O          16.3546   70.9622   -6.9577 O.2     1  UNL1       -0.2464
     22 O          18.9409   70.3088  -10.5060 O.2     1  UNL1       -0.2670
     23 H          16.8093   70.6171   -9.3274 H       1  UNL1        0.1734
     24 O          21.3645   71.3608    0.7546 O.3     1  UNL1       -0.2703
     25 P          21.6819   72.8766    0.3171 P.3     1  UNL1        0.2208
     26 O          22.9625   72.9183   -0.4228 O.2     1  UNL1       -0.5170
     27 O          20.4979   73.4209   -0.6295 O.3     1  UNL1       -0.4371
     28 O          21.7881   73.8037    1.6283 O.3     1  UNL1       -0.2858
     29 C          22.6397   73.1224    2.5504 C.3     1  UNL1        0.2704
     30 C          21.8296   72.7053    3.7789 C.3     1  UNL1        0.1967
     31 C          21.2236   73.9553    4.4244 C.3     1  UNL1        0.1715
     32 C          22.3482   74.9611    4.6953 C.3     1  UNL1        0.1694
     33 C          23.1182   75.2087    3.3958 C.3     1  UNL1        0.1761
     34 O          20.7849   71.8146    3.3835 O.3     1  UNL1       -0.3775
     35 O          20.5873   73.6002    5.6539 O.3     1  UNL1       -0.3794
     36 O          23.2313   74.4348    5.6868 O.3     1  UNL1       -0.3794
     37 O          23.7022   73.9884    2.9424 O.3     1  UNL1       -0.3258
     38 H          21.2110   71.0478    2.9769 H       1  UNL1        0.2106
     39 H          19.8980   72.9597    5.4375 H       1  UNL1        0.2105
     40 H          22.7037   74.2896    6.4829 H       1  UNL1        0.2105
     41 C          24.2223   76.2381    3.6475 C.3     1  UNL1        0.1693
     42 O          25.4869   75.6749    3.2943 O.3     1  UNL1       -0.3794
     43 H          26.1536   76.3539    3.4667 H       1  UNL1        0.2105
@<TRIPOS>BOND
     1    15    16   ar
     2    15    20   ar
     3    15     6    1
     4    16    17   ar
     5    16    21    2
     6    17    18   ar
     7    17    23    1
     8    18    19   ar
     9    18    22    2
    10    19    20   ar
    11     6     7    1
    12     6    11    1
    13     7     8    1
    14     7     9    1
    15     8    13    1
    16     9    10    1
    17     9    12    1
    18    10    11    1
    19    10     5    1
    20    12    14    1
    21     5     4    1
    22     4     1    1
    23     1     2    2
    24     1     3    1
    25     1    24    1
    26    24    25    1
    27    25    26    2
    28    25    27    1
    29    25    28    1
    30    28    29    1
    31    29    30    1
    32    29    37    1
    33    30    31    1
    34    30    34    1
    35    31    32    1
    36    31    35    1
    37    32    33    1
    38    32    36    1
    39    33    41    1
    40    33    37    1
    41    41    42    1
    42    34    38    1
    43    35    39    1
    44    36    40    1
    45    42    43    1
@<TRIPOS>MOLECULE
GDU
 43 45 0 0 0
SMALL
GASTEIGER

@<TRIPOS>ATOM
      1 P          21.9899   70.3362   -0.3538 P.3     1  UNL1        0.2189
      2 O          21.3192   70.9272    0.8254 O.2     1  UNL1       -0.5170
      3 O          23.0264   69.2029    0.1304 O.3     1  UNL1       -0.4371
      4 O          20.8889   69.6774   -1.3237 O.3     1  UNL1       -0.3112
      5 C          21.0581   70.2770   -2.6092 C.3     1  UNL1        0.1811
      6 C          18.5233   70.9430   -5.0705 C.3     1  UNL1        0.2383
      7 C          18.0868   69.6084   -4.4138 C.3     1  UNL1        0.1895
      8 O          16.6632   69.4794   -4.4186 O.3     1  UNL1       -0.3779
      9 C          18.6229   69.7675   -2.9673 C.3     1  UNL1        0.1713
     10 C          19.7202   70.8410   -3.0908 C.3     1  UNL1        0.1764
     11 O          19.8142   71.2031   -4.4794 O.3     1  UNL1       -0.3308
     12 O          17.5807   70.2061   -2.0936 O.3     1  UNL1       -0.3794
     13 H          16.4586   68.6323   -3.9985 H       1  UNL1        0.2106
     14 H          16.8990   69.5206   -2.1046 H       1  UNL1        0.2105
     15 N          18.6415   70.7919   -6.5217 N.ar    1  UNL1       -0.2551
     16 C          17.5341   70.7915   -7.2846 C.ar    1  UNL1        0.3323
     17 N          17.6154   70.6577   -8.6215 N.ar    1  UNL1       -0.2743
     18 C          18.8138   70.5114   -9.2186 C.ar    1  UNL1        0.2626
     19 C          19.9885   70.5041   -8.4271 C.ar    1  UNL1        0.0795
     20 C          19.8787   70.6444   -7.0889 C.ar    1  UNL1        0.0869
     21 O          16.4460   70.9231   -6.7603 O.2     1  UNL1       -0.2464
     22 O          18.8881   70.3854  -10.4282 O.2     1  UNL1       -0.2670
     23 H          16.8061   70.6639   -9.1570 H       1  UNL1        0.1734
     24 O          22.7877   71.4868   -1.1489 O.3     1  UNL1       -0.2703
     25 P          22.1758   72.8957   -0.6690 P.3     1  UNL1        0.2208
     26 O          20.7691   72.7058   -0.2516 O.2     1  UNL1       -0.5170
     27 O          23.0326   73.4572    0.5739 O.3     1  UNL1       -0.4371
     28 O          22.2387   73.9507   -1.8827 O.3     1  UNL1       -0.2858
     29 C          23.5286   73.8182   -2.4812 C.3     1  UNL1        0.2704
     30 C          24.2156   75.1842   -2.5179 C.3     1  UNL1        0.1967
     31 C          23.3456   76.1585   -3.3181 C.3     1  UNL1        0.1715
     32 C          23.0507   75.5396   -4.6891 C.3     1  UNL1        0.1694
     33 C          22.4498   74.1463   -4.4874 C.3     1  UNL1        0.1761
     34 O          24.3820   75.6723   -1.1855 O.3     1  UNL1       -0.3775
     35 O          24.0408   77.3957   -3.4867 O.3     1  UNL1       -0.3794
     36 O          24.2625   75.4387   -5.4384 O.3     1  UNL1       -0.3794
     37 O          23.3861   73.3123   -3.8065 O.3     1  UNL1       -0.3258
     38 H          24.9282   75.0259   -0.7178 H       1  UNL1        0.2106
     39 H          24.2152   77.7415   -2.6022 H       1  UNL1        0.2105
     40 H          24.6071   76.3360   -5.5355 H       1  UNL1        0.2105
     41 C          22.1198   73.5330   -5.8501 C.3     1  UNL1        0.1693
     42 O          22.0696   74.5652   -6.8365 O.3     1  UNL1       -0.3794
     43 H          21.8603   74.1378   -7.6785 H       1  UNL1        0.2105
@<TRIPOS>BOND
     1    15    16   ar
     2    15    20   ar
     3    15     6    1
     4    16    17   ar
     5    16    21    2
     6    17    18   ar
     7    17    23    1
     8    18    19   ar
     9    18    22    2
    10    19    20   ar
    11     6     7    1
    12     6    11    1
    13     7     8    1
    14     7     9    1
    15     8    13    1
    16     9    10    1
    17     9    12    1
    18    10    11    1
    19    10     5    1
    20    12    14    1
    21     5     4    1
    22     4     1    1
    23     1     2    2
    24     1     3    1
    25     1    24    1
    26    24    25    1
    27    25    26    2
    28    25    27    1
    29    25    28    1
    30    28    29    1
    31    29    30    1
    32    29    37    1
    33    30    31    1
    34    30    34    1
    35    31    32    1
    36    31    35    1
    37    32    33    1
    38    32    36    1
    39    33    41    1
    40    33    37    1
    41    41    42    1
    42    34    38    1
    43    35    39    1
    44    36    40    1
    45    42    43    1
@<TRIPOS>MOLECULE
GDU
 43 45 0 0 0
SMALL
GASTEIGER

@<TRIPOS>ATOM
      1 P          22.1038   73.9657   -6.8710 P.3     1  UNL1        0.2189
      2 O          22.8427   72.7042   -7.0996 O.2     1  UNL1       -0.5170
      3 O          23.1445   75.1928   -6.8055 O.3     1  UNL1       -0.4371
      4 O          21.0659   74.2061   -8.0760 O.3     1  UNL1       -0.3112
      5 C          21.3276   73.1989   -9.0546 C.3     1  UNL1        0.1811
      6 C          18.6457   71.1739   -7.7764 C.3     1  UNL1        0.2383
      7 C          18.0143   72.5756   -7.9749 C.3     1  UNL1        0.1895
      8 O          16.6251   72.4686   -8.2943 O.3     1  UNL1       -0.3779
      9 C          18.8184   73.1262   -9.1814 C.3     1  UNL1        0.1713
     10 C          20.1081   72.2848   -9.1869 C.3     1  UNL1        0.1764
     11 O          20.0438   71.3905   -8.0624 O.3     1  UNL1       -0.3308
     12 O          18.0873   72.9414  -10.3952 O.3     1  UNL1       -0.3794
     13 H          16.2939   73.3708   -8.4042 H       1  UNL1        0.2106
     14 H          17.2660   73.4437  -10.3068 H       1  UNL1        0.2105
     15 N          18.4662   70.7155   -6.3978 N.ar    1  UNL1       -0.2551
     16 C          17.3136   70.1249   -6.0361 C.ar    1  UNL1        0.3323
     17 N          17.1245   69.6912   -4.7760 N.ar    1  UNL1       -0.2743
     18 C          18.0889   69.8519   -3.8496 C.ar    1  UNL1        0.2626
     19 C          19.3061   70.4775   -4.2148 C.ar    1  UNL1        0.0795
     20 C          19.4712   70.8992   -5.4866 C.ar    1  UNL1        0.0869
     21 O          16.4346   69.9725   -6.8609 O.2     1  UNL1       -0.2464
     22 O          17.9168   69.4640   -2.7075 O.2     1  UNL1       -0.2670
     23 H          16.2879   69.2633   -4.5335 H       1  UNL1        0.1734
     24 O          21.2998   73.8709   -5.4793 O.3     1  UNL1       -0.2703
     25 P          22.4012   73.7924   -4.3085 P.3     1  UNL1        0.2208
     26 O          23.5612   73.0014   -4.7751 O.2     1  UNL1       -0.5170
     27 O          22.8855   75.2804   -3.9269 O.3     1  UNL1       -0.4371
     28 O          21.7580   73.0896   -3.0114 O.3     1  UNL1       -0.2858
     29 C          22.8416   72.7359   -2.1509 C.3     1  UNL1        0.2704
     30 C          22.8193   71.2276   -1.8978 C.3     1  UNL1        0.1967
     31 C          21.4780   70.8485   -1.2624 C.3     1  UNL1        0.1715
     32 C          21.2595   71.7214   -0.0215 C.3     1  UNL1        0.1694
     33 C          21.3982   73.1934   -0.4177 C.3     1  UNL1        0.1761
     34 O          22.9778   70.5322   -3.1357 O.3     1  UNL1       -0.3775
     35 O          21.4980   69.4701   -0.8853 O.3     1  UNL1       -0.3794
     36 O          22.2340   71.3947    0.9703 O.3     1  UNL1       -0.3794
     37 O          22.7132   73.4360   -0.9156 O.3     1  UNL1       -0.3258
     38 H          23.8295   70.8060   -3.5025 H       1  UNL1        0.2106
     39 H          21.6494   68.9614   -1.6919 H       1  UNL1        0.2105
     40 H          22.1132   70.4603    1.1841 H       1  UNL1        0.2105
     41 C          21.1478   74.0754    0.8076 C.3     1  UNL1        0.1693
     42 O          22.3701   74.2485    1.5266 O.3     1  UNL1       -0.3794
     43 H          22.1695   74.8093    2.2886 H       1  UNL1        0.2105
@<TRIPOS>BOND
     1    15    16   ar
     2    15    20   ar
     3    15     6    1
     4    16    17   ar
     5    16    21    2
     6    17    18   ar
     7    17    23    1
     8    18    19   ar
     9    18    22    2
    10    19    20   ar
    11     6     7    1
    12     6    11    1
    13     7     8    1
    14     7     9    1
    15     8    13    1
    16     9    10    1
    17     9    12    1
    18    10    11    1
    19    10     5    1
    20    12    14    1
    21     5     4    1
    22     4     1    1
    23     1     2    2
    24     1     3    1
    25     1    24    1
    26    24    25    1
    27    25    26    2
    28    25    27    1
    29    25    28    1
    30    28    29    1
    31    29    30    1
    32    29    37    1
    33    30    31    1
    34    30    34    1
    35    31    32    1
    36    31    35    1
    37    32    33    1
    38    32    36    1
    39    33    41    1
    40    33    37    1
    41    41    42    1
    42    34    38    1
    43    35    39    1
    44    36    40    1
    45    42    43    1
@<TRIPOS>MOLECULE
GDU
 43 45 0 0 0
SMALL
GASTEIGER

@<TRIPOS>ATOM
      1 P          20.5037   70.4728   -2.2623 P.3     1  UNL1        0.2189
      2 O          21.0324   69.0992   -2.1101 O.2     1  UNL1       -0.5170
      3 O          21.3972   71.2759   -3.3345 O.3     1  UNL1       -0.4371
      4 O          18.9803   70.4082   -2.7742 O.3     1  UNL1       -0.3112
      5 C          18.4883   71.7492   -2.7792 C.3     1  UNL1        0.1811
      6 C          18.8915   72.5989   -6.2495 C.3     1  UNL1        0.2383
      7 C          18.7471   71.0555   -6.2410 C.3     1  UNL1        0.1895
      8 O          18.1281   70.5946   -7.4441 O.3     1  UNL1       -0.3779
      9 C          17.8217   70.8225   -5.0185 C.3     1  UNL1        0.1713
     10 C          17.9816   72.1032   -4.1785 C.3     1  UNL1        0.1764
     11 O          18.9404   72.9404   -4.8479 O.3     1  UNL1       -0.3308
     12 O          16.4666   70.6596   -5.4416 O.3     1  UNL1       -0.3794
     13 H          18.0685   69.6315   -7.3758 H       1  UNL1        0.2106
     14 H          16.4426   69.8778   -6.0099 H       1  UNL1        0.2105
     15 N          20.1286   72.9997   -6.9215 N.ar    1  UNL1       -0.2551
     16 C          20.1011   73.3383   -8.2226 C.ar    1  UNL1        0.3323
     17 N          21.2238   73.7139   -8.8633 N.ar    1  UNL1       -0.2743
     18 C          22.4010   73.7471   -8.2096 C.ar    1  UNL1        0.2626
     19 C          22.4461   73.3875   -6.8403 C.ar    1  UNL1        0.0795
     20 C          21.3046   73.0188   -6.2210 C.ar    1  UNL1        0.0869
     21 O          19.0465   73.3137   -8.8254 O.2     1  UNL1       -0.2464
     22 O          23.4185   74.0824   -8.7898 O.2     1  UNL1       -0.2670
     23 H          21.1848   73.9592   -9.8014 H       1  UNL1        0.1734
     24 O          20.5624   71.2298   -0.8425 O.3     1  UNL1       -0.2703
     25 P          21.9027   70.7322   -0.1035 P.3     1  UNL1        0.2208
     26 O          21.6602   69.4138    0.5226 O.2     1  UNL1       -0.5170
     27 O          23.0930   70.6033   -1.1809 O.3     1  UNL1       -0.4371
     28 O          22.3190   71.7969    1.0293 O.3     1  UNL1       -0.2858
     29 C          21.3979   72.8843    0.9355 C.3     1  UNL1        0.2704
     30 C          22.0982   74.0924    0.3116 C.3     1  UNL1        0.1967
     31 C          23.3003   74.4754    1.1804 C.3     1  UNL1        0.1715
     32 C          22.8196   74.6729    2.6225 C.3     1  UNL1        0.1694
     33 C          22.0657   73.4188    3.0720 C.3     1  UNL1        0.1761
     34 O          22.5435   73.7605   -1.0047 O.3     1  UNL1       -0.3775
     35 O          23.8773   75.6889    0.6937 O.3     1  UNL1       -0.3794
     36 O          21.9525   75.8061    2.6862 O.3     1  UNL1       -0.3794
     37 O          20.9251   73.2182    2.2384 O.3     1  UNL1       -0.3258
     38 H          21.7570   73.5197   -1.5129 H       1  UNL1        0.2106
     39 H          24.1534   75.5222   -0.2164 H       1  UNL1        0.2105
     40 H          22.4663   76.5686    2.3898 H       1  UNL1        0.2105
     41 C          21.6108   73.5919    4.5229 C.3     1  UNL1        0.1693
     42 O          22.0160   72.4549    5.2871 O.3     1  UNL1       -0.3794
     43 H          21.7115   72.6036    6.1929 H       1  UNL1        0.2105
@<TRIPOS>BOND
     1    15    16   ar
     2    15    20   ar
     3    15     6    1
     4    16    17   ar
     5    16    21    2
     6    17    18   ar
     7    17    23    1
     8    18    19   ar
     9    18    22    2
    10    19    20   ar
    11     6     7    1
    12     6    11    1
    13     7     8    1
    14     7     9    1
    15     8    13    1
    16     9    10    1
    17     9    12    1
    18    10    11    1
    19    10     5    1
    20    12    14    1
    21     5     4    1
    22     4     1    1
    23     1     2    2
    24     1     3    1
    25     1    24    1
    26    24    25    1
    27    25    26    2
    28    25    27    1
    29    25    28    1
    30    28    29    1
    31    29    30    1
    32    29    37    1
    33    30    31    1
    34    30    34    1
    35    31    32    1
    36    31    35    1
    37    32    33    1
    38    32    36    1
    39    33    41    1
    40    33    37    1
    41    41    42    1
    42    34    38    1
    43    35    39    1
    44    36    40    1
    45    42    43    1
@<TRIPOS>MOLECULE
GDU
 43 45 0 0 0
SMALL
GASTEIGER

@<TRIPOS>ATOM
      1 P          22.6699   71.0978   -1.9964 P.3     1  UNL1        0.2189
      2 O          23.1576   70.7243   -3.3425 O.2     1  UNL1       -0.5170
      3 O          22.8920   72.6756   -1.7638 O.3     1  UNL1       -0.4371
      4 O          21.1033   70.7532   -1.8780 O.3     1  UNL1       -0.3112
      5 C          20.4732   71.2865   -3.0438 C.3     1  UNL1        0.1811
      6 C          17.1407   71.2135   -4.3915 C.3     1  UNL1        0.2383
      7 C          17.7177   69.8092   -4.7042 C.3     1  UNL1        0.1895
      8 O          16.6827   68.8232   -4.7140 O.3     1  UNL1       -0.3779
      9 C          18.6856   69.5832   -3.5137 C.3     1  UNL1        0.1713
     10 C          18.9710   71.0025   -2.9888 C.3     1  UNL1        0.1764
     11 O          18.2680   71.9255   -3.8386 O.3     1  UNL1       -0.3308
     12 O          18.0603   68.7862   -2.5058 O.3     1  UNL1       -0.3794
     13 H          17.1060   67.9766   -4.9138 H       1  UNL1        0.2106
     14 H          17.8534   67.9333   -2.9115 H       1  UNL1        0.2105
     15 N          16.6696   71.8642   -5.6153 N.ar    1  UNL1       -0.2551
     16 C          17.1088   71.4334   -6.8111 C.ar    1  UNL1        0.3323
     17 N          16.6886   72.0120   -7.9515 N.ar    1  UNL1       -0.2743
     18 C          15.8241   73.0440   -7.9119 C.ar    1  UNL1        0.2626
     19 C          15.3574   73.5122   -6.6592 C.ar    1  UNL1        0.0795
     20 C          15.7916   72.9111   -5.5311 C.ar    1  UNL1        0.0869
     21 O          17.8885   70.5031   -6.8626 O.2     1  UNL1       -0.2464
     22 O          15.4469   73.5714   -8.9435 O.2     1  UNL1       -0.2670
     23 H          17.0127   71.6853   -8.8060 H       1  UNL1        0.1734
     24 O          23.4879   70.2721   -0.8821 O.3     1  UNL1       -0.2703
     25 P          22.7053   70.4662    0.5106 P.3     1  UNL1        0.2208
     26 O          21.3689   69.8382    0.4169 O.2     1  UNL1       -0.5170
     27 O          23.5424   69.7706    1.6979 O.3     1  UNL1       -0.4371
     28 O          22.5406   72.0368    0.8206 O.3     1  UNL1       -0.2858
     29 C          21.2736   72.2033    1.4583 C.3     1  UNL1        0.2704
     30 C          20.6209   73.4953    0.9644 C.3     1  UNL1        0.1967
     31 C          21.5456   74.6744    1.2825 C.3     1  UNL1        0.1715
     32 C          21.8820   74.6437    2.7777 C.3     1  UNL1        0.1694
     33 C          22.4414   73.2642    3.1339 C.3     1  UNL1        0.1761
     34 O          20.4113   73.4166   -0.4466 O.3     1  UNL1       -0.3775
     35 O          20.8870   75.9014    0.9612 O.3     1  UNL1       -0.3794
     36 O          20.7001   74.8964    3.5387 O.3     1  UNL1       -0.3794
     37 O          21.4587   72.2637    2.8707 O.3     1  UNL1       -0.3258
     38 H          19.8313   72.6585   -0.6007 H       1  UNL1        0.2106
     39 H          20.6845   75.8715    0.0176 H       1  UNL1        0.2105
     40 H          20.3809   75.7702    3.2781 H       1  UNL1        0.2105
     41 C          22.8128   73.2340    4.6182 C.3     1  UNL1        0.1693
     42 O          21.7133   72.7220    5.3731 O.3     1  UNL1       -0.3794
     43 H          21.9878   72.7188    6.3004 H       1  UNL1        0.2105
@<TRIPOS>BOND
     1    15    16   ar
     2    15    20   ar
     3    15     6    1
     4    16    17   ar
     5    16    21    2
     6    17    18   ar
     7    17    23    1
     8    18    19   ar
     9    18    22    2
    10    19    20   ar
    11     6     7    1
    12     6    11    1
    13     7     8    1
    14     7     9    1
    15     8    13    1
    16     9    10    1
    17     9    12    1
    18    10    11    1
    19    10     5    1
    20    12    14    1
    21     5     4    1
    22     4     1    1
    23     1     2    2
    24     1     3    1
    25     1    24    1
    26    24    25    1
    27    25    26    2
    28    25    27    1
    29    25    28    1
    30    28    29    1
    31    29    30    1
    32    29    37    1
    33    30    31    1
    34    30    34    1
    35    31    32    1
    36    31    35    1
    37    32    33    1
    38    32    36    1
    39    33    41    1
    40    33    37    1
    41    41    42    1
    42    34    38    1
    43    35    39    1
    44    36    40    1
    45    42    43    1
@<TRIPOS>MOLECULE
GDU
 43 45 0 0 0
SMALL
GASTEIGER

@<TRIPOS>ATOM
      1 P          22.3440   70.9455   -2.0491 P.3     1  UNL1        0.2189
      2 O          21.7678   69.5860   -1.9533 O.2     1  UNL1       -0.5170
      3 O          23.4805   70.9674   -3.1898 O.3     1  UNL1       -0.4371
      4 O          21.1848   71.9947   -2.4263 O.3     1  UNL1       -0.3112
      5 C          20.5770   71.5246   -3.6305 C.3     1  UNL1        0.1811
      6 C          17.1169   71.5533   -4.6072 C.3     1  UNL1        0.2383
      7 C          17.5945   70.1099   -4.9094 C.3     1  UNL1        0.1895
      8 O          16.5228   69.1761   -4.7586 O.3     1  UNL1       -0.3779
      9 C          18.6763   69.8909   -3.8198 C.3     1  UNL1        0.1713
     10 C          19.0790   71.3168   -3.4004 C.3     1  UNL1        0.1764
     11 O          18.3279   72.2337   -4.2148 O.3     1  UNL1       -0.3308
     12 O          18.1312   69.1714   -2.7121 O.3     1  UNL1       -0.3794
     13 H          16.8844   68.3017   -4.9601 H       1  UNL1        0.2106
     14 H          17.8442   68.3123   -3.0500 H       1  UNL1        0.2105
     15 N          16.5433   72.1703   -5.8043 N.ar    1  UNL1       -0.2551
     16 C          16.8939   71.7177   -7.0211 C.ar    1  UNL1        0.3323
     17 N          16.3785   72.2652   -8.1375 N.ar    1  UNL1       -0.2743
     18 C          15.5057   73.2876   -8.0530 C.ar    1  UNL1        0.2626
     19 C          15.1317   73.7786   -6.7782 C.ar    1  UNL1        0.0795
     20 C          15.6604   73.2085   -5.6746 C.ar    1  UNL1        0.0869
     21 O          17.6797   70.7957   -7.1131 O.2     1  UNL1       -0.2464
     22 O          15.0423   73.7870   -9.0632 O.2     1  UNL1       -0.2670
     23 H          16.6394   71.9230   -9.0073 H       1  UNL1        0.1734
     24 O          22.9974   71.3513   -0.6346 O.3     1  UNL1       -0.2703
     25 P          22.1532   70.5904    0.5048 P.3     1  UNL1        0.2208
     26 O          21.2362   69.6170   -0.1282 O.2     1  UNL1       -0.5170
     27 O          23.1621   69.8134    1.4911 O.3     1  UNL1       -0.4371
     28 O          21.2999   71.6630    1.3483 O.3     1  UNL1       -0.2858
     29 C          22.2102   72.6810    1.7664 C.3     1  UNL1        0.2704
     30 C          21.8388   73.1491    3.1743 C.3     1  UNL1        0.1967
     31 C          20.4022   73.6806    3.1603 C.3     1  UNL1        0.1715
     32 C          20.2851   74.7476    2.0660 C.3     1  UNL1        0.1694
     33 C          20.7729   74.1571    0.7407 C.3     1  UNL1        0.1761
     34 O          21.9360   72.0523    4.0846 O.3     1  UNL1       -0.3775
     35 O          20.0908   74.2562    4.4308 O.3     1  UNL1       -0.3794
     36 O          21.0851   75.8786    2.4139 O.3     1  UNL1       -0.3794
     37 O          22.1434   73.7779    0.8582 O.3     1  UNL1       -0.3258
     38 H          22.8526   71.7460    4.0555 H       1  UNL1        0.2106
     39 H          20.1888   73.5550    5.0873 H       1  UNL1        0.2105
     40 H          20.7466   76.2128    3.2547 H       1  UNL1        0.2105
     41 C          20.6280   75.2039   -0.3661 C.3     1  UNL1        0.1693
     42 O          21.4251   74.8224   -1.4887 O.3     1  UNL1       -0.3794
     43 H          21.3055   75.5060   -2.1622 H       1  UNL1        0.2105
@<TRIPOS>BOND
     1    15    16   ar
     2    15    20   ar
     3    15     6    1
     4    16    17   ar
     5    16    21    2
     6    17    18   ar
     7    17    23    1
     8    18    19   ar
     9    18    22    2
    10    19    20   ar
    11     6     7    1
    12     6    11    1
    13     7     8    1
    14     7     9    1
    15     8    13    1
    16     9    10    1
    17     9    12    1
    18    10    11    1
    19    10     5    1
    20    12    14    1
    21     5     4    1
    22     4     1    1
    23     1     2    2
    24     1     3    1
    25     1    24    1
    26    24    25    1
    27    25    26    2
    28    25    27    1
    29    25    28    1
    30    28    29    1
    31    29    30    1
    32    29    37    1
    33    30    31    1
    34    30    34    1
    35    31    32    1
    36    31    35    1
    37    32    33    1
    38    32    36    1
    39    33    41    1
    40    33    37    1
    41    41    42    1
    42    34    38    1
    43    35    39    1
    44    36    40    1
    45    42    43    1
@<TRIPOS>MOLECULE
GDU
 43 45 0 0 0
SMALL
GASTEIGER

@<TRIPOS>ATOM
      1 P          22.3021   71.3678   -2.4079 P.3     1  UNL1        0.2189
      2 O          23.4220   71.1460   -3.3492 O.2     1  UNL1       -0.5170
      3 O          22.1196   70.0678   -1.4752 O.3     1  UNL1       -0.4371
      4 O          22.6195   72.6481   -1.4877 O.3     1  UNL1       -0.3112
      5 C          22.6619   72.1864   -0.1366 C.3     1  UNL1        0.1811
      6 C          20.5725   73.2745    2.5796 C.3     1  UNL1        0.2383
      7 C          20.7503   74.5357    1.6961 C.3     1  UNL1        0.1895
      8 O          19.5988   75.3791    1.7737 O.3     1  UNL1       -0.3779
      9 C          20.8921   73.9222    0.2788 C.3     1  UNL1        0.1713
     10 C          21.3199   72.4665    0.5423 C.3     1  UNL1        0.1764
     11 O          21.4497   72.3066    1.9656 O.3     1  UNL1       -0.3308
     12 O          19.6419   73.9661   -0.4119 O.3     1  UNL1       -0.3794
     13 H          19.7729   76.1418    1.2047 H       1  UNL1        0.2106
     14 H          19.3997   74.8985   -0.4937 H       1  UNL1        0.2105
     15 N          20.9865   73.5447    3.9575 N.ar    1  UNL1       -0.2551
     16 C          20.0677   73.9024    4.8719 C.ar    1  UNL1        0.3323
     17 N          20.4214   74.1530    6.1462 N.ar    1  UNL1       -0.2743
     18 C          21.7104   74.0584    6.5253 C.ar    1  UNL1        0.2626
     19 C          22.6900   73.6883    5.5715 C.ar    1  UNL1        0.0795
     20 C          22.3073   73.4384    4.3012 C.ar    1  UNL1        0.0869
     21 O          18.9009   73.9914    4.5449 O.2     1  UNL1       -0.2464
     22 O          22.0323   74.2897    7.6774 O.2     1  UNL1       -0.2670
     23 H          19.7444   74.4058    6.7940 H       1  UNL1        0.1734
     24 O          20.9470   71.6250   -3.2386 O.3     1  UNL1       -0.2703
     25 P          20.2094   70.2017   -3.3806 P.3     1  UNL1        0.2208
     26 O          21.2027   69.1149   -3.2341 O.2     1  UNL1       -0.5170
     27 O          19.0883   70.0616   -2.2327 O.3     1  UNL1       -0.4371
     28 O          19.5106   70.1000   -4.8267 O.3     1  UNL1       -0.2858
     29 C          18.6783   71.2521   -4.9673 C.3     1  UNL1        0.2704
     30 C          17.2446   70.8111   -5.2663 C.3     1  UNL1        0.1967
     31 C          17.2370   69.9783   -6.5519 C.3     1  UNL1        0.1715
     32 C          17.9161   70.7865   -7.6633 C.3     1  UNL1        0.1694
     33 C          19.3007   71.2279   -7.1828 C.3     1  UNL1        0.1761
     34 O          16.7499   70.0241   -4.1814 O.3     1  UNL1       -0.3775
     35 O          15.8893   69.6829   -6.9246 O.3     1  UNL1       -0.3794
     36 O          17.1238   71.9341   -7.9719 O.3     1  UNL1       -0.3794
     37 O          19.1678   72.0626   -6.0332 O.3     1  UNL1       -0.3258
     38 H          16.7794   70.5845   -3.3940 H       1  UNL1        0.2106
     39 H          15.4993   69.1864   -6.1941 H       1  UNL1        0.2105
     40 H          16.2620   71.6090   -8.2635 H       1  UNL1        0.2105
     41 C          20.0014   72.0069   -8.2983 C.3     1  UNL1        0.1693
     42 O          19.6222   73.3825   -8.2282 O.3     1  UNL1       -0.3794
     43 H          20.0847   73.8372   -8.9456 H       1  UNL1        0.2105
@<TRIPOS>BOND
     1    15    16   ar
     2    15    20   ar
     3    15     6    1
     4    16    17   ar
     5    16    21    2
     6    17    18   ar
     7    17    23    1
     8    18    19   ar
     9    18    22    2
    10    19    20   ar
    11     6     7    1
    12     6    11    1
    13     7     8    1
    14     7     9    1
    15     8    13    1
    16     9    10    1
    17     9    12    1
    18    10    11    1
    19    10     5    1
    20    12    14    1
    21     5     4    1
    22     4     1    1
    23     1     2    2
    24     1     3    1
    25     1    24    1
    26    24    25    1
    27    25    26    2
    28    25    27    1
    29    25    28    1
    30    28    29    1
    31    29    30    1
    32    29    37    1
    33    30    31    1
    34    30    34    1
    35    31    32    1
    36    31    35    1
    37    32    33    1
    38    32    36    1
    39    33    41    1
    40    33    37    1
    41    41    42    1
    42    34    38    1
    43    35    39    1
    44    36    40    1
    45    42    43    1
@<TRIPOS>MOLECULE
GDU
 43 45 0 0 0
SMALL
GASTEIGER

@<TRIPOS>ATOM
      1 P          22.8105   72.0961   -3.5505 P.3     1  UNL1        0.2189
      2 O          23.8248   72.9039   -4.2633 O.2     1  UNL1       -0.5170
      3 O          23.4230   70.6468   -3.2077 O.3     1  UNL1       -0.4371
      4 O          22.3940   72.8390   -2.1862 O.3     1  UNL1       -0.3112
      5 C          22.4389   71.8569   -1.1499 C.3     1  UNL1        0.1811
      6 C          21.3070   73.2922    1.9462 C.3     1  UNL1        0.2383
      7 C          21.0421   74.3928    0.8873 C.3     1  UNL1        0.1895
      8 O          19.9074   75.1841    1.2471 O.3     1  UNL1       -0.3779
      9 C          20.7516   73.5558   -0.3856 C.3     1  UNL1        0.1713
     10 C          21.3895   72.1864   -0.0867 C.3     1  UNL1        0.1764
     11 O          22.0145   72.2753    1.2054 O.3     1  UNL1       -0.3308
     12 O          19.3429   73.4257   -0.5872 O.3     1  UNL1       -0.3794
     13 H          19.7975   75.8469    0.5511 H       1  UNL1        0.2106
     14 H          18.9938   74.3189   -0.7095 H       1  UNL1        0.2105
     15 N          22.1381   73.8097    3.0345 N.ar    1  UNL1       -0.2551
     16 C          23.3177   74.3912    2.7541 C.ar    1  UNL1        0.3323
     17 N          24.0992   74.8784    3.7358 N.ar    1  UNL1       -0.2743
     18 C          23.7140   74.7816    5.0228 C.ar    1  UNL1        0.2626
     19 C          22.4765   74.1664    5.3336 C.ar    1  UNL1        0.0795
     20 C          21.7102   73.6901    4.3294 C.ar    1  UNL1        0.0869
     21 O          23.6784   74.4862    1.5978 O.2     1  UNL1       -0.2464
     22 O          24.4229   75.2180    5.9125 O.2     1  UNL1       -0.2670
     23 H          24.9455   75.2988    3.5149 H       1  UNL1        0.1734
     24 O          21.5116   71.9207   -4.4857 O.3     1  UNL1       -0.2703
     25 P          21.5601   73.1016   -5.5780 P.3     1  UNL1        0.2208
     26 O          21.7102   74.4031   -4.8906 O.2     1  UNL1       -0.5170
     27 O          22.8119   72.8688   -6.5644 O.3     1  UNL1       -0.4371
     28 O          20.1969   73.0993   -6.4333 O.3     1  UNL1       -0.2858
     29 C          19.8376   71.7323   -6.6379 C.3     1  UNL1        0.2704
     30 C          19.8232   71.4285   -8.1368 C.3     1  UNL1        0.1967
     31 C          18.8204   72.3600   -8.8247 C.3     1  UNL1        0.1715
     32 C          17.4658   72.2284   -8.1194 C.3     1  UNL1        0.1694
     33 C          17.6590   72.4737   -6.6208 C.3     1  UNL1        0.1761
     34 O          21.1270   71.6409   -8.6809 O.3     1  UNL1       -0.3775
     35 O          18.6867   71.9909  -10.1989 O.3     1  UNL1       -0.3794
     36 O          16.9428   70.9161   -8.3301 O.3     1  UNL1       -0.3794
     37 O          18.5461   71.4940   -6.0832 O.3     1  UNL1       -0.3258
     38 H          21.7249   71.0407   -8.2149 H       1  UNL1        0.2106
     39 H          19.5616   72.0769  -10.5981 H       1  UNL1        0.2105
     40 H          16.8434   70.8044   -9.2845 H       1  UNL1        0.2105
     41 C          16.3062   72.3785   -5.9116 C.3     1  UNL1        0.1693
     42 O          16.2194   71.1322   -5.2186 O.3     1  UNL1       -0.3794
     43 H          15.3548   71.1123   -4.7858 H       1  UNL1        0.2105
@<TRIPOS>BOND
     1    15    16   ar
     2    15    20   ar
     3    15     6    1
     4    16    17   ar
     5    16    21    2
     6    17    18   ar
     7    17    23    1
     8    18    19   ar
     9    18    22    2
    10    19    20   ar
    11     6     7    1
    12     6    11    1
    13     7     8    1
    14     7     9    1
    15     8    13    1
    16     9    10    1
    17     9    12    1
    18    10    11    1
    19    10     5    1
    20    12    14    1
    21     5     4    1
    22     4     1    1
    23     1     2    2
    24     1     3    1
    25     1    24    1
    26    24    25    1
    27    25    26    2
    28    25    27    1
    29    25    28    1
    30    28    29    1
    31    29    30    1
    32    29    37    1
    33    30    31    1
    34    30    34    1
    35    31    32    1
    36    31    35    1
    37    32    33    1
    38    32    36    1
    39    33    41    1
    40    33    37    1
    41    41    42    1
    42    34    38    1
    43    35    39    1
    44    36    40    1
    45    42    43    1
@<TRIPOS>MOLECULE
GDU
 43 45 0 0 0
SMALL
GASTEIGER

@<TRIPOS>ATOM
      1 P          22.7873   73.8771   -4.3802 P.3     1  UNL1        0.2189
      2 O          23.3959   74.8848   -5.2767 O.2     1  UNL1       -0.5170
      3 O          23.7613   72.5997   -4.2693 O.3     1  UNL1       -0.4371
      4 O          22.5729   74.5169   -2.9202 O.3     1  UNL1       -0.3112
      5 C          21.6595   73.6661   -2.2257 C.3     1  UNL1        0.1811
      6 C          22.4199   72.2122    0.9735 C.3     1  UNL1        0.2383
      7 C          21.4138   71.2258    0.3271 C.3     1  UNL1        0.1895
      8 O          21.6587   69.8875    0.7654 O.3     1  UNL1       -0.3779
      9 C          21.7320   71.3803   -1.1829 C.3     1  UNL1        0.1713
     10 C          22.4344   72.7474   -1.2794 C.3     1  UNL1        0.1764
     11 O          22.4571   73.3142    0.0421 O.3     1  UNL1       -0.3308
     12 O          22.5996   70.3325   -1.6204 O.3     1  UNL1       -0.3794
     13 H          21.0021   69.3267    0.3292 H       1  UNL1        0.2106
     14 H          22.1271   69.5008   -1.4802 H       1  UNL1        0.2105
     15 N          21.9393   72.6588    2.2821 N.ar    1  UNL1       -0.2551
     16 C          20.8712   73.4722    2.3582 C.ar    1  UNL1        0.3323
     17 N          20.4070   73.8945    3.5490 N.ar    1  UNL1       -0.2743
     18 C          21.0149   73.5146    4.6893 C.ar    1  UNL1        0.2626
     19 C          22.1446   72.6627    4.6242 C.ar    1  UNL1        0.0795
     20 C          22.5868   72.2505    3.4171 C.ar    1  UNL1        0.0869
     21 O          20.3121   73.8229    1.3381 O.2     1  UNL1       -0.2464
     22 O          20.5984   73.9002    5.7674 O.2     1  UNL1       -0.2670
     23 H          19.6323   74.4778    3.5854 H       1  UNL1        0.1734
     24 O          21.3658   73.4159   -4.9794 O.3     1  UNL1       -0.2703
     25 P          21.4564   73.5838   -6.5774 P.3     1  UNL1        0.2208
     26 O          21.6640   75.0099   -6.9124 O.2     1  UNL1       -0.5170
     27 O          22.6917   72.7160   -7.1388 O.3     1  UNL1       -0.4371
     28 O          20.0892   73.0669   -7.2508 O.3     1  UNL1       -0.2858
     29 C          19.8359   71.7625   -6.7271 C.3     1  UNL1        0.2704
     30 C          19.6874   70.7703   -7.8816 C.3     1  UNL1        0.1967
     31 C          18.5356   71.2239   -8.7838 C.3     1  UNL1        0.1715
     32 C          17.2828   71.4132   -7.9212 C.3     1  UNL1        0.1694
     33 C          17.6134   72.3590   -6.7640 C.3     1  UNL1        0.1761
     34 O          20.9002   70.7285   -8.6357 O.3     1  UNL1       -0.3775
     35 O          18.2886   70.2318   -9.7824 O.3     1  UNL1       -0.3794
     36 O          16.8618   70.1492   -7.4063 O.3     1  UNL1       -0.3794
     37 O          18.6389   71.7873   -5.9531 O.3     1  UNL1       -0.3258
     38 H          21.5971   70.4460   -8.0279 H       1  UNL1        0.2106
     39 H          19.1038   70.1377  -10.2911 H       1  UNL1        0.2105
     40 H          16.6705   69.5864   -8.1678 H       1  UNL1        0.2105
     41 C          16.3595   72.5819   -5.9156 C.3     1  UNL1        0.1693
     42 O          16.7418   72.8941   -4.5749 O.3     1  UNL1       -0.3794
     43 H          15.9249   73.0276   -4.0748 H       1  UNL1        0.2105
@<TRIPOS>BOND
     1    15    16   ar
     2    15    20   ar
     3    15     6    1
     4    16    17   ar
     5    16    21    2
     6    17    18   ar
     7    17    23    1
     8    18    19   ar
     9    18    22    2
    10    19    20   ar
    11     6     7    1
    12     6    11    1
    13     7     8    1
    14     7     9    1
    15     8    13    1
    16     9    10    1
    17     9    12    1
    18    10    11    1
    19    10     5    1
    20    12    14    1
    21     5     4    1
    22     4     1    1
    23     1     2    2
    24     1     3    1
    25     1    24    1
    26    24    25    1
    27    25    26    2
    28    25    27    1
    29    25    28    1
    30    28    29    1
    31    29    30    1
    32    29    37    1
    33    30    31    1
    34    30    34    1
    35    31    32    1
    36    31    35    1
    37    32    33    1
    38    32    36    1
    39    33    41    1
    40    33    37    1
    41    41    42    1
    42    34    38    1
    43    35    39    1
    44    36    40    1
    45    42    43    1
@<TRIPOS>MOLECULE
GDU
 43 45 0 0 0
SMALL
GASTEIGER

@<TRIPOS>ATOM
      1 P          18.3206   70.1589   -3.2900 P.3     1  UNL1        0.2189
      2 O          18.4584   69.2645   -2.1192 O.2     1  UNL1       -0.5170
      3 O          17.2398   69.5423   -4.3120 O.3     1  UNL1       -0.4371
      4 O          17.8302   71.6108   -2.8019 O.3     1  UNL1       -0.3112
      5 C          16.5964   71.8773   -3.4706 C.3     1  UNL1        0.1811
      6 C          17.4077   73.0962   -6.7543 C.3     1  UNL1        0.2383
      7 C          15.8656   72.9394   -6.7676 C.3     1  UNL1        0.1895
      8 O          15.2626   73.9017   -7.6356 O.3     1  UNL1       -0.3779
      9 C          15.4976   73.2220   -5.2877 C.3     1  UNL1        0.1713
     10 C          16.8089   72.9688   -4.5210 C.3     1  UNL1        0.1764
     11 O          17.7920   72.5400   -5.4791 O.3     1  UNL1       -0.3308
     12 O          15.0709   74.5765   -5.1289 O.3     1  UNL1       -0.3794
     13 H          14.3077   73.7507   -7.5988 H       1  UNL1        0.2106
     14 H          14.2828   74.6880   -5.6777 H       1  UNL1        0.2105
     15 N          18.0147   72.3400   -7.8509 N.ar    1  UNL1       -0.2551
     16 C          18.2837   72.9548   -9.0162 C.ar    1  UNL1        0.3323
     17 N          18.8448   72.2833  -10.0390 N.ar    1  UNL1       -0.2743
     18 C          19.1382   70.9747   -9.9137 C.ar    1  UNL1        0.2626
     19 C          18.8551   70.3126   -8.6940 C.ar    1  UNL1        0.0795
     20 C          18.2961   71.0108   -7.6829 C.ar    1  UNL1        0.0869
     21 O          18.0251   74.1350   -9.1439 O.2     1  UNL1       -0.2464
     22 O          19.6417   70.3648  -10.8406 O.2     1  UNL1       -0.2670
     23 H          19.0360   72.7440  -10.8714 H       1  UNL1        0.1734
     24 O          19.7432   70.2929   -4.0320 O.3     1  UNL1       -0.2703
     25 P          20.8744   70.2159   -2.8899 P.3     1  UNL1        0.2208
     26 O          20.8895   68.8583   -2.3017 O.2     1  UNL1       -0.5170
     27 O          22.3138   70.5353   -3.5381 O.3     1  UNL1       -0.4371
     28 O          20.5530   71.2960   -1.7410 O.3     1  UNL1       -0.2858
     29 C          21.7626   72.0153   -1.4975 C.3     1  UNL1        0.2704
     30 C          22.4289   71.4769   -0.2305 C.3     1  UNL1        0.1967
     31 C          21.4610   71.6325    0.9465 C.3     1  UNL1        0.1715
     32 C          21.0083   73.0952    1.0187 C.3     1  UNL1        0.1694
     33 C          20.4475   73.5105   -0.3437 C.3     1  UNL1        0.1761
     34 O          22.7504   70.0963   -0.4084 O.3     1  UNL1       -0.3775
     35 O          22.1206   71.2710    2.1617 O.3     1  UNL1       -0.3794
     36 O          22.1219   73.9239    1.3551 O.3     1  UNL1       -0.3794
     37 O          21.4657   73.4005   -1.3372 O.3     1  UNL1       -0.3258
     38 H          23.3543   70.0453   -1.1618 H       1  UNL1        0.2106
     39 H          22.3974   70.3508    2.0669 H       1  UNL1        0.2105
     40 H          22.4449   73.6233    2.2145 H       1  UNL1        0.2105
     41 C          19.9609   74.9597   -0.2727 C.3     1  UNL1        0.1693
     42 O          18.5757   74.9796    0.0765 O.3     1  UNL1       -0.3794
     43 H          18.3092   75.9085    0.1113 H       1  UNL1        0.2105
@<TRIPOS>BOND
     1    15    16   ar
     2    15    20   ar
     3    15     6    1
     4    16    17   ar
     5    16    21    2
     6    17    18   ar
     7    17    23    1
     8    18    19   ar
     9    18    22    2
    10    19    20   ar
    11     6     7    1
    12     6    11    1
    13     7     8    1
    14     7     9    1
    15     8    13    1
    16     9    10    1
    17     9    12    1
    18    10    11    1
    19    10     5    1
    20    12    14    1
    21     5     4    1
    22     4     1    1
    23     1     2    2
    24     1     3    1
    25     1    24    1
    26    24    25    1
    27    25    26    2
    28    25    27    1
    29    25    28    1
    30    28    29    1
    31    29    30    1
    32    29    37    1
    33    30    31    1
    34    30    34    1
    35    31    32    1
    36    31    35    1
    37    32    33    1
    38    32    36    1
    39    33    41    1
    40    33    37    1
    41    41    42    1
    42    34    38    1
    43    35    39    1
    44    36    40    1
    45    42    43    1
@<TRIPOS>MOLECULE
GDU
 43 45 0 0 0
SMALL
GASTEIGER

@<TRIPOS>ATOM
      1 P          20.8884   70.5322   -2.8470 P.3     1  UNL1        0.2189
      2 O          22.2493   70.2107   -3.3309 O.2     1  UNL1       -0.5170
      3 O          20.7770   72.1147   -2.5709 O.3     1  UNL1       -0.4371
      4 O          19.8079   70.1041   -3.9588 O.3     1  UNL1       -0.3112
      5 C          18.5613   70.6822   -3.5685 C.3     1  UNL1        0.1811
      6 C          18.7379   72.5077   -6.6610 C.3     1  UNL1        0.2383
      7 C          18.4768   71.0410   -7.0894 C.3     1  UNL1        0.1895
      8 O          17.7262   70.9906   -8.3048 O.3     1  UNL1       -0.3779
      9 C          17.6413   70.4991   -5.9004 C.3     1  UNL1        0.1713
     10 C          17.9684   71.4617   -4.7437 C.3     1  UNL1        0.1764
     11 O          18.9295   72.4128   -5.2335 O.3     1  UNL1       -0.3308
     12 O          16.2472   70.5359   -6.2117 O.3     1  UNL1       -0.3794
     13 H          17.5988   70.0550   -8.5153 H       1  UNL1        0.2106
     14 H          16.1161   69.9614   -6.9782 H       1  UNL1        0.2105
     15 N          19.9418   73.0302   -7.3094 N.ar    1  UNL1       -0.2551
     16 C          19.8277   73.8056   -8.4021 C.ar    1  UNL1        0.3323
     17 N          20.9186   74.3017   -9.0151 N.ar    1  UNL1       -0.2743
     18 C          22.1493   74.0192   -8.5465 C.ar    1  UNL1        0.2626
     19 C          22.2851   73.1989   -7.3998 C.ar    1  UNL1        0.0795
     20 C          21.1744   72.7181   -6.8019 C.ar    1  UNL1        0.0869
     21 O          18.7240   74.0695   -8.8361 O.2     1  UNL1       -0.2464
     22 O          23.1376   74.4638   -9.1035 O.2     1  UNL1       -0.2670
     23 H          20.8174   74.8632   -9.8001 H       1  UNL1        0.1734
     24 O          20.6019   69.7291   -1.4812 O.3     1  UNL1       -0.2703
     25 P          21.7081   70.2105   -0.4160 P.3     1  UNL1        0.2208
     26 O          22.1057   69.0660    0.4332 O.2     1  UNL1       -0.5170
     27 O          22.9991   70.7707   -1.1994 O.3     1  UNL1       -0.4371
     28 O          21.0941   71.3771    0.5070 O.3     1  UNL1       -0.2858
     29 C          22.1640   72.2736    0.8092 C.3     1  UNL1        0.2704
     30 C          22.5131   72.1673    2.2946 C.3     1  UNL1        0.1967
     31 C          21.2713   72.5079    3.1242 C.3     1  UNL1        0.1715
     32 C          20.7414   73.8743    2.6749 C.3     1  UNL1        0.1694
     33 C          20.5247   73.8504    1.1598 C.3     1  UNL1        0.1761
     34 O          22.9390   70.8364    2.5921 O.3     1  UNL1       -0.3775
     35 O          21.6182   72.5568    4.5098 O.3     1  UNL1       -0.3794
     36 O          21.6894   74.8885    3.0108 O.3     1  UNL1       -0.3794
     37 O          21.7661   73.6072    0.4997 O.3     1  UNL1       -0.3258
     38 H          23.7162   70.6630    2.0436 H       1  UNL1        0.2106
     39 H          21.9564   71.6834    4.7446 H       1  UNL1        0.2105
     40 H          21.7984   74.8629    3.9704 H       1  UNL1        0.2105
     41 C          19.9630   75.1994    0.7053 C.3     1  UNL1        0.1693
     42 O          19.1776   75.7657    1.7558 O.3     1  UNL1       -0.3794
     43 H          18.8437   76.6129    1.4301 H       1  UNL1        0.2105
@<TRIPOS>BOND
     1    15    16   ar
     2    15    20   ar
     3    15     6    1
     4    16    17   ar
     5    16    21    2
     6    17    18   ar
     7    17    23    1
     8    18    19   ar
     9    18    22    2
    10    19    20   ar
    11     6     7    1
    12     6    11    1
    13     7     8    1
    14     7     9    1
    15     8    13    1
    16     9    10    1
    17     9    12    1
    18    10    11    1
    19    10     5    1
    20    12    14    1
    21     5     4    1
    22     4     1    1
    23     1     2    2
    24     1     3    1
    25     1    24    1
    26    24    25    1
    27    25    26    2
    28    25    27    1
    29    25    28    1
    30    28    29    1
    31    29    30    1
    32    29    37    1
    33    30    31    1
    34    30    34    1
    35    31    32    1
    36    31    35    1
    37    32    33    1
    38    32    36    1
    39    33    41    1
    40    33    37    1
    41    41    42    1
    42    34    38    1
    43    35    39    1
    44    36    40    1
    45    42    43    1
@<TRIPOS>MOLECULE
GDU
 43 45 0 0 0
SMALL
GASTEIGER

@<TRIPOS>ATOM
      1 P          18.6016   70.2285   -3.2389 P.3     1  UNL1        0.2189
      2 O          17.1482   70.4661   -3.0944 O.2     1  UNL1       -0.5170
      3 O          18.9194   68.6717   -2.9776 O.3     1  UNL1       -0.4371
      4 O          19.0660   70.6289   -4.7258 O.3     1  UNL1       -0.3112
      5 C          17.9562   70.3747   -5.5885 C.3     1  UNL1        0.1811
      6 C          18.9587   73.0737   -7.7419 C.3     1  UNL1        0.2383
      7 C          18.6231   71.9090   -8.7083 C.3     1  UNL1        0.1895
      8 O          18.1316   72.4064   -9.9550 O.3     1  UNL1       -0.3779
      9 C          17.5092   71.1562   -7.9352 C.3     1  UNL1        0.1713
     10 C          17.7049   71.5974   -6.4728 C.3     1  UNL1        0.1764
     11 O          18.8472   72.4703   -6.4354 O.3     1  UNL1       -0.3308
     12 O          16.2197   71.5439   -8.4135 O.3     1  UNL1       -0.3794
     13 H          17.9429   71.6353  -10.5079 H       1  UNL1        0.2106
     14 H          16.1806   71.2948   -9.3468 H       1  UNL1        0.2105
     15 N          20.3201   73.5606   -7.9706 N.ar    1  UNL1       -0.2551
     16 C          21.3612   72.7217   -7.8274 C.ar    1  UNL1        0.3323
     17 N          22.6226   73.1431   -8.0353 N.ar    1  UNL1       -0.2743
     18 C          22.8637   74.4220   -8.3824 C.ar    1  UNL1        0.2626
     19 C          21.7773   75.3185   -8.5312 C.ar    1  UNL1        0.0795
     20 C          20.5220   74.8685   -8.3210 C.ar    1  UNL1        0.0869
     21 O          21.1593   71.5650   -7.5152 O.2     1  UNL1       -0.2464
     22 O          24.0055   74.8056   -8.5660 O.2     1  UNL1       -0.2670
     23 H          23.3617   72.5229   -7.9316 H       1  UNL1        0.1734
     24 O          19.4001   71.1252   -2.1662 O.3     1  UNL1       -0.2703
     25 P          20.9603   71.0327   -2.5499 P.3     1  UNL1        0.2208
     26 O          21.3533   69.6120   -2.6774 O.2     1  UNL1       -0.5170
     27 O          21.2139   71.7868   -3.9503 O.3     1  UNL1       -0.4371
     28 O          21.8398   71.7326   -1.3981 O.3     1  UNL1       -0.2858
     29 C          20.9940   72.6838   -0.7504 C.3     1  UNL1        0.2704
     30 C          21.5756   74.0871   -0.9290 C.3     1  UNL1        0.1967
     31 C          22.9856   74.1221   -0.3316 C.3     1  UNL1        0.1715
     32 C          22.9169   73.6239    1.1164 C.3     1  UNL1        0.1694
     33 C          22.2348   72.2538    1.1396 C.3     1  UNL1        0.1761
     34 O          21.6355   74.4069   -2.3201 O.3     1  UNL1       -0.3775
     35 O          23.4852   75.4608   -0.3580 O.3     1  UNL1       -0.3794
     36 O          22.1676   74.5494    1.9051 O.3     1  UNL1       -0.3794
     37 O          20.9042   72.3699    0.6374 O.3     1  UNL1       -0.3258
     38 H          20.7294   74.3658   -2.6551 H       1  UNL1        0.2106
     39 H          23.4997   75.7358   -1.2835 H       1  UNL1        0.2105
     40 H          22.6295   75.3965    1.8567 H       1  UNL1        0.2105
     41 C          22.1917   71.7316    2.5774 C.3     1  UNL1        0.1693
     42 O          20.9039   71.9908    3.1391 O.3     1  UNL1       -0.3794
     43 H          20.9183   71.6467    4.0428 H       1  UNL1        0.2105
@<TRIPOS>BOND
     1    15    16   ar
     2    15    20   ar
     3    15     6    1
     4    16    17   ar
     5    16    21    2
     6    17    18   ar
     7    17    23    1
     8    18    19   ar
     9    18    22    2
    10    19    20   ar
    11     6     7    1
    12     6    11    1
    13     7     8    1
    14     7     9    1
    15     8    13    1
    16     9    10    1
    17     9    12    1
    18    10    11    1
    19    10     5    1
    20    12    14    1
    21     5     4    1
    22     4     1    1
    23     1     2    2
    24     1     3    1
    25     1    24    1
    26    24    25    1
    27    25    26    2
    28    25    27    1
    29    25    28    1
    30    28    29    1
    31    29    30    1
    32    29    37    1
    33    30    31    1
    34    30    34    1
    35    31    32    1
    36    31    35    1
    37    32    33    1
    38    32    36    1
    39    33    41    1
    40    33    37    1
    41    41    42    1
    42    34    38    1
    43    35    39    1
    44    36    40    1
    45    42    43    1
@<TRIPOS>MOLECULE
GDU
 43 45 0 0 0
SMALL
GASTEIGER

@<TRIPOS>ATOM
      1 P          21.3707   74.9154   -4.5334 P.3     1  UNL1        0.2189
      2 O          19.9886   75.2720   -4.1435 O.2     1  UNL1       -0.5170
      3 O          22.3873   76.0436   -3.9979 O.3     1  UNL1       -0.4371
      4 O          21.7602   73.4935   -3.8905 O.3     1  UNL1       -0.3112
      5 C          21.2463   73.4873   -2.5577 C.3     1  UNL1        0.1811
      6 C          22.2928   72.0507    0.5677 C.3     1  UNL1        0.2383
      7 C          21.2651   71.0391   -0.0007 C.3     1  UNL1        0.1895
      8 O          21.5782   69.7071    0.4130 O.3     1  UNL1       -0.3779
      9 C          21.4597   71.2032   -1.5306 C.3     1  UNL1        0.1713
     10 C          22.1167   72.5882   -1.6778 C.3     1  UNL1        0.1764
     11 O          22.2282   73.1542   -0.3605 O.3     1  UNL1       -0.3308
     12 O          22.3172   70.1788   -2.0378 O.3     1  UNL1       -0.3794
     13 H          20.9042   69.1298    0.0280 H       1  UNL1        0.2106
     14 H          21.8789   69.3349   -1.8635 H       1  UNL1        0.2105
     15 N          21.9050   72.4835    1.9113 N.ar    1  UNL1       -0.2551
     16 C          20.9038   73.3682    2.0639 C.ar    1  UNL1        0.3323
     17 N          20.5253   73.7797    3.2883 N.ar    1  UNL1       -0.2743
     18 C          21.1537   73.3164    4.3858 C.ar    1  UNL1        0.2626
     19 C          22.2139   72.3885    4.2401 C.ar    1  UNL1        0.0795
     20 C          22.5705   71.9892    3.0008 C.ar    1  UNL1        0.0869
     21 O          20.3272   73.7946    1.0832 O.2     1  UNL1       -0.2464
     22 O          20.8150   73.6920    5.4943 O.2     1  UNL1       -0.2670
     23 H          19.7978   74.4155    3.3800 H       1  UNL1        0.1734
     24 O          21.4683   74.8252   -6.1380 O.3     1  UNL1       -0.2703
     25 P          21.8204   73.2969   -6.4988 P.3     1  UNL1        0.2208
     26 O          22.2802   73.2151   -7.9028 O.2     1  UNL1       -0.5170
     27 O          22.9870   72.7700   -5.5212 O.3     1  UNL1       -0.4371
     28 O          20.5091   72.3835   -6.3085 O.3     1  UNL1       -0.2858
     29 C          19.4853   72.9517   -7.1262 C.3     1  UNL1        0.2704
     30 C          18.1370   72.8252   -6.4153 C.3     1  UNL1        0.1967
     31 C          17.8532   71.3446   -6.1443 C.3     1  UNL1        0.1715
     32 C          17.9696   70.5737   -7.4641 C.3     1  UNL1        0.1694
     33 C          19.3325   70.8697   -8.0949 C.3     1  UNL1        0.1761
     34 O          18.1788   73.5402   -5.1791 O.3     1  UNL1       -0.3775
     35 O          16.5341   71.1977   -5.6144 O.3     1  UNL1       -0.3794
     36 O          16.9280   70.9845   -8.3509 O.3     1  UNL1       -0.3794
     37 O          19.4407   72.2647   -8.3747 O.3     1  UNL1       -0.3258
     38 H          18.3666   74.4633   -5.3969 H       1  UNL1        0.2106
     39 H          16.5036   71.7066   -4.7945 H       1  UNL1        0.2105
     40 H          16.0912   70.7850   -7.9112 H       1  UNL1        0.2105
     41 C          19.4728   70.0777   -9.3969 C.3     1  UNL1        0.1693
     42 O          18.8148   70.7791  -10.4533 O.3     1  UNL1       -0.3794
     43 H          18.9270   70.2484  -11.2540 H       1  UNL1        0.2105
@<TRIPOS>BOND
     1    15    16   ar
     2    15    20   ar
     3    15     6    1
     4    16    17   ar
     5    16    21    2
     6    17    18   ar
     7    17    23    1
     8    18    19   ar
     9    18    22    2
    10    19    20   ar
    11     6     7    1
    12     6    11    1
    13     7     8    1
    14     7     9    1
    15     8    13    1
    16     9    10    1
    17     9    12    1
    18    10    11    1
    19    10     5    1
    20    12    14    1
    21     5     4    1
    22     4     1    1
    23     1     2    2
    24     1     3    1
    25     1    24    1
    26    24    25    1
    27    25    26    2
    28    25    27    1
    29    25    28    1
    30    28    29    1
    31    29    30    1
    32    29    37    1
    33    30    31    1
    34    30    34    1
    35    31    32    1
    36    31    35    1
    37    32    33    1
    38    32    36    1
    39    33    41    1
    40    33    37    1
    41    41    42    1
    42    34    38    1
    43    35    39    1
    44    36    40    1
    45    42    43    1
@<TRIPOS>MOLECULE
GDU
 43 45 0 0 0
SMALL
GASTEIGER

@<TRIPOS>ATOM
      1 P          22.4513   71.9698   -3.2862 P.3     1  UNL1        0.2189
      2 O          23.2675   73.1610   -3.6094 O.2     1  UNL1       -0.5170
      3 O          23.3966   70.6669   -3.2444 O.3     1  UNL1       -0.4371
      4 O          21.7514   72.1713   -1.8522 O.3     1  UNL1       -0.3112
      5 C          22.5334   73.1325   -1.1416 C.3     1  UNL1        0.1811
      6 C          22.5885   73.4204    2.4419 C.3     1  UNL1        0.2383
      7 C          21.2192   72.7666    2.1251 C.3     1  UNL1        0.1895
      8 O          20.8089   71.9022    3.1871 O.3     1  UNL1       -0.3779
      9 C          21.5359   71.9547    0.8422 C.3     1  UNL1        0.1713
     10 C          22.8011   72.6264    0.2770 C.3     1  UNL1        0.1764
     11 O          23.1225   73.7328    1.1378 O.3     1  UNL1       -0.3308
     12 O          21.7902   70.5865    1.1669 O.3     1  UNL1       -0.3794
     13 H          19.9544   71.5295    2.9289 H       1  UNL1        0.2106
     14 H          20.9827   70.2394    1.5695 H       1  UNL1        0.2105
     15 N          22.4099   74.6398    3.2318 N.ar    1  UNL1       -0.2551
     16 C          22.4902   74.5835    4.5729 C.ar    1  UNL1        0.3323
     17 N          22.3333   75.6906    5.3222 N.ar    1  UNL1       -0.2743
     18 C          22.0821   76.8776    4.7373 C.ar    1  UNL1        0.2626
     19 C          21.9890   76.9510    3.3258 C.ar    1  UNL1        0.0795
     20 C          22.1547   75.8262    2.5980 C.ar    1  UNL1        0.0869
     21 O          22.7167   73.5199    5.1148 O.2     1  UNL1       -0.2464
     22 O          21.9351   77.8794    5.4149 O.2     1  UNL1       -0.2670
     23 H          22.3987   75.6323    6.2887 H       1  UNL1        0.1734
     24 O          21.3194   71.7738   -4.4145 O.3     1  UNL1       -0.2703
     25 P          21.4648   73.0054   -5.4402 P.3     1  UNL1        0.2208
     26 O          21.4125   74.2800   -4.6907 O.2     1  UNL1       -0.5170
     27 O          22.8732   72.8957   -6.2138 O.3     1  UNL1       -0.4371
     28 O          20.2621   72.9602   -6.5086 O.3     1  UNL1       -0.2858
     29 C          20.4742   71.8067   -7.3236 C.3     1  UNL1        0.2704
     30 C          20.2035   72.1603   -8.7868 C.3     1  UNL1        0.1967
     31 C          18.7615   72.6594   -8.9206 C.3     1  UNL1        0.1715
     32 C          17.8215   71.6087   -8.3189 C.3     1  UNL1        0.1694
     33 C          18.2721   71.2982   -6.8893 C.3     1  UNL1        0.1761
     34 O          21.1069   73.1844   -9.2067 O.3     1  UNL1       -0.3775
     35 O          18.4470   72.8541  -10.3011 O.3     1  UNL1       -0.3794
     36 O          17.8666   70.4192   -9.1082 O.3     1  UNL1       -0.3794
     37 O          19.5952   70.7644   -6.9069 O.3     1  UNL1       -0.3258
     38 H          22.0000   72.8300   -9.0989 H       1  UNL1        0.2106
     39 H          19.0682   73.5111  -10.6397 H       1  UNL1        0.2105
     40 H          17.5813   70.6631   -9.9984 H       1  UNL1        0.2105
     41 C          17.3193   70.2750   -6.2670 C.3     1  UNL1        0.1693
     42 O          16.0627   70.3216   -6.9451 O.3     1  UNL1       -0.3794
     43 H          15.4929   69.6632   -6.5241 H       1  UNL1        0.2105
@<TRIPOS>BOND
     1    15    16   ar
     2    15    20   ar
     3    15     6    1
     4    16    17   ar
     5    16    21    2
     6    17    18   ar
     7    17    23    1
     8    18    19   ar
     9    18    22    2
    10    19    20   ar
    11     6     7    1
    12     6    11    1
    13     7     8    1
    14     7     9    1
    15     8    13    1
    16     9    10    1
    17     9    12    1
    18    10    11    1
    19    10     5    1
    20    12    14    1
    21     5     4    1
    22     4     1    1
    23     1     2    2
    24     1     3    1
    25     1    24    1
    26    24    25    1
    27    25    26    2
    28    25    27    1
    29    25    28    1
    30    28    29    1
    31    29    30    1
    32    29    37    1
    33    30    31    1
    34    30    34    1
    35    31    32    1
    36    31    35    1
    37    32    33    1
    38    32    36    1
    39    33    41    1
    40    33    37    1
    41    41    42    1
    42    34    38    1
    43    35    39    1
    44    36    40    1
    45    42    43    1
@<TRIPOS>MOLECULE
GDU
 43 45 0 0 0
SMALL
GASTEIGER

@<TRIPOS>ATOM
      1 P          22.3196   71.2105   -2.7952 P.3     1  UNL1        0.2189
      2 O          22.0297   69.7753   -3.0093 O.2     1  UNL1       -0.5170
      3 O          23.5336   71.6613   -3.7523 O.3     1  UNL1       -0.4371
      4 O          21.0117   72.0801   -3.1417 O.3     1  UNL1       -0.3112
      5 C          21.3959   73.0246   -4.1421 C.3     1  UNL1        0.1811
      6 C          19.6402   72.5009   -7.2358 C.3     1  UNL1        0.2383
      7 C          20.6242   73.6600   -7.5382 C.3     1  UNL1        0.1895
      8 O          21.0316   73.6387   -8.9081 O.3     1  UNL1       -0.3779
      9 C          21.8151   73.3277   -6.6018 C.3     1  UNL1        0.1713
     10 C          21.2024   72.4085   -5.5289 C.3     1  UNL1        0.1764
     11 O          19.7989   72.2858   -5.8173 O.3     1  UNL1       -0.3308
     12 O          22.8440   72.6483   -7.3240 O.3     1  UNL1       -0.3794
     13 H          21.6394   74.3814   -9.0299 H       1  UNL1        0.2106
     14 H          23.1452   73.2517   -8.0168 H       1  UNL1        0.2105
     15 N          18.2651   72.8944   -7.5472 N.ar    1  UNL1       -0.2551
     16 C          17.3897   71.9713   -7.9827 C.ar    1  UNL1        0.3323
     17 N          16.1186   72.3061   -8.2726 N.ar    1  UNL1       -0.2743
     18 C          15.7039   73.5807   -8.1395 C.ar    1  UNL1        0.2626
     19 C          16.6166   74.5649   -7.6873 C.ar    1  UNL1        0.0795
     20 C          17.8844   74.2011   -7.3995 C.ar    1  UNL1        0.0869
     21 O          17.7490   70.8174   -8.1072 O.2     1  UNL1       -0.2464
     22 O          14.5548   73.8856   -8.4062 O.2     1  UNL1       -0.2670
     23 H          15.4991   71.6260   -8.5816 H       1  UNL1        0.1734
     24 O          22.7329   71.4499   -1.2576 O.3     1  UNL1       -0.2703
     25 P          21.7232   70.5741   -0.3612 P.3     1  UNL1        0.2208
     26 O          20.5844   70.1285   -1.1941 O.2     1  UNL1       -0.5170
     27 O          22.4992   69.2873    0.2187 O.3     1  UNL1       -0.4371
     28 O          21.1779   71.4666    0.8620 O.3     1  UNL1       -0.2858
     29 C          22.2003   72.4143    1.1722 C.3     1  UNL1        0.2704
     30 C          22.6821   72.1922    2.6068 C.3     1  UNL1        0.1967
     31 C          21.4939   72.3464    3.5613 C.3     1  UNL1        0.1715
     32 C          20.8277   73.7019    3.2994 C.3     1  UNL1        0.1694
     33 C          20.4845   73.8086    1.8115 C.3     1  UNL1        0.1761
     34 O          23.2294   70.8783    2.7298 O.3     1  UNL1       -0.3775
     35 O          21.9535   72.2878    4.9133 O.3     1  UNL1       -0.3794
     36 O          21.7231   74.7529    3.6648 O.3     1  UNL1       -0.3794
     37 O          21.6796   73.7345    1.0354 O.3     1  UNL1       -0.3258
     38 H          23.9676   70.8242    2.1077 H       1  UNL1        0.2106
     39 H          22.3743   71.4265    5.0287 H       1  UNL1        0.2105
     40 H          21.9153   74.6426    4.6051 H       1  UNL1        0.2105
     41 C          19.7875   75.1448    1.5452 C.3     1  UNL1        0.1693
     42 O          19.9214   75.4839    0.1639 O.3     1  UNL1       -0.3794
     43 H          19.4692   76.3295    0.0382 H       1  UNL1        0.2105
@<TRIPOS>BOND
     1    15    16   ar
     2    15    20   ar
     3    15     6    1
     4    16    17   ar
     5    16    21    2
     6    17    18   ar
     7    17    23    1
     8    18    19   ar
     9    18    22    2
    10    19    20   ar
    11     6     7    1
    12     6    11    1
    13     7     8    1
    14     7     9    1
    15     8    13    1
    16     9    10    1
    17     9    12    1
    18    10    11    1
    19    10     5    1
    20    12    14    1
    21     5     4    1
    22     4     1    1
    23     1     2    2
    24     1     3    1
    25     1    24    1
    26    24    25    1
    27    25    26    2
    28    25    27    1
    29    25    28    1
    30    28    29    1
    31    29    30    1
    32    29    37    1
    33    30    31    1
    34    30    34    1
    35    31    32    1
    36    31    35    1
    37    32    33    1
    38    32    36    1
    39    33    41    1
    40    33    37    1
    41    41    42    1
    42    34    38    1
    43    35    39    1
    44    36    40    1
    45    42    43    1
@<TRIPOS>MOLECULE
GDU
 43 45 0 0 0
SMALL
GASTEIGER

@<TRIPOS>ATOM
      1 P          16.8848   71.4550   -4.7512 P.3     1  UNL1        0.2189
      2 O          15.7207   72.2979   -4.3996 O.2     1  UNL1       -0.5170
      3 O          17.0476   70.2825   -3.6595 O.3     1  UNL1       -0.4371
      4 O          16.6586   70.8064   -6.2055 O.3     1  UNL1       -0.3112
      5 C          17.6330   71.3872   -7.0737 C.3     1  UNL1        0.1811
      6 C          15.4536   73.8871   -8.4623 C.3     1  UNL1        0.2383
      7 C          16.8598   74.5391   -8.4879 C.3     1  UNL1        0.1895
      8 O          16.9801   75.4490   -9.5838 O.3     1  UNL1       -0.3779
      9 C          17.7843   73.3098   -8.6858 C.3     1  UNL1        0.1713
     10 C          16.9281   72.1184   -8.2177 C.3     1  UNL1        0.1764
     11 O          15.6709   72.6452   -7.7595 O.3     1  UNL1       -0.3308
     12 O          18.1400   73.1686  -10.0625 O.3     1  UNL1       -0.3794
     13 H          17.8731   75.8186   -9.5426 H       1  UNL1        0.2106
     14 H          18.6213   73.9694  -10.3110 H       1  UNL1        0.2105
     15 N          14.5042   74.7318   -7.7357 N.ar    1  UNL1       -0.2551
     16 C          13.2878   74.9690   -8.2574 C.ar    1  UNL1        0.3323
     17 N          12.3950   75.7391   -7.6080 N.ar    1  UNL1       -0.2743
     18 C          12.7118   76.2955   -6.4229 C.ar    1  UNL1        0.2626
     19 C          13.9916   76.0590   -5.8640 C.ar    1  UNL1        0.0795
     20 C          14.8663   75.2793   -6.5343 C.ar    1  UNL1        0.0869
     21 O          12.9875   74.4735   -9.3253 O.2     1  UNL1       -0.2464
     22 O          11.9061   76.9966   -5.8366 O.2     1  UNL1       -0.2670
     23 H          11.5200   75.8962   -7.9972 H       1  UNL1        0.1734
     24 O          18.2163   72.3601   -4.7671 O.3     1  UNL1       -0.2703
     25 P          18.3193   73.0640   -3.3235 P.3     1  UNL1        0.2208
     26 O          18.4331   74.5291   -3.4963 O.2     1  UNL1       -0.5170
     27 O          16.9980   72.7263   -2.4666 O.3     1  UNL1       -0.4371
     28 O          19.6164   72.5119   -2.5473 O.3     1  UNL1       -0.2858
     29 C          20.2912   71.6279   -3.4434 C.3     1  UNL1        0.2704
     30 C          20.7065   70.3615   -2.6929 C.3     1  UNL1        0.1967
     31 C          21.6200   70.7502   -1.5264 C.3     1  UNL1        0.1715
     32 C          22.7775   71.5949   -2.0708 C.3     1  UNL1        0.1694
     33 C          22.2046   72.7698   -2.8674 C.3     1  UNL1        0.1761
     34 O          19.5439   69.6990   -2.1922 O.3     1  UNL1       -0.3775
     35 O          22.1343   69.5701   -0.9055 O.3     1  UNL1       -0.3794
     36 O          23.5979   70.7908   -2.9195 O.3     1  UNL1       -0.3794
     37 O          21.4450   72.2784   -3.9708 O.3     1  UNL1       -0.3258
     38 H          18.9961   69.4798   -2.9582 H       1  UNL1        0.2106
     39 H          21.3738   69.0658   -0.5900 H       1  UNL1        0.2105
     40 H          23.9310   70.0629   -2.3787 H       1  UNL1        0.2105
     41 C          23.3518   73.6393   -3.3868 C.3     1  UNL1        0.1693
     42 O          24.1452   72.8823   -4.3024 O.3     1  UNL1       -0.3794
     43 H          24.8547   73.4651   -4.6062 H       1  UNL1        0.2105
@<TRIPOS>BOND
     1    15    16   ar
     2    15    20   ar
     3    15     6    1
     4    16    17   ar
     5    16    21    2
     6    17    18   ar
     7    17    23    1
     8    18    19   ar
     9    18    22    2
    10    19    20   ar
    11     6     7    1
    12     6    11    1
    13     7     8    1
    14     7     9    1
    15     8    13    1
    16     9    10    1
    17     9    12    1
    18    10    11    1
    19    10     5    1
    20    12    14    1
    21     5     4    1
    22     4     1    1
    23     1     2    2
    24     1     3    1
    25     1    24    1
    26    24    25    1
    27    25    26    2
    28    25    27    1
    29    25    28    1
    30    28    29    1
    31    29    30    1
    32    29    37    1
    33    30    31    1
    34    30    34    1
    35    31    32    1
    36    31    35    1
    37    32    33    1
    38    32    36    1
    39    33    41    1
    40    33    37    1
    41    41    42    1
    42    34    38    1
    43    35    39    1
    44    36    40    1
    45    42    43    1
@<TRIPOS>MOLECULE
GDU
 43 45 0 0 0
SMALL
GASTEIGER

@<TRIPOS>ATOM
      1 P          22.7027   74.1766   -4.8613 P.3     1  UNL1        0.2189
      2 O          23.4696   75.0201   -5.8046 O.2     1  UNL1       -0.5170
      3 O          22.3760   75.0213   -3.5299 O.3     1  UNL1       -0.4371
      4 O          21.3272   73.7116   -5.5529 O.3     1  UNL1       -0.3112
      5 C          21.6810   72.9902   -6.7340 C.3     1  UNL1        0.1811
      6 C          18.3800   72.4204   -8.0399 C.3     1  UNL1        0.2383
      7 C          19.3069   72.3483   -9.2803 C.3     1  UNL1        0.1895
      8 O          18.7787   71.4515  -10.2601 O.3     1  UNL1       -0.3779
      9 C          20.6206   71.7917   -8.6722 C.3     1  UNL1        0.1713
     10 C          20.5047   72.1154   -7.1711 C.3     1  UNL1        0.1764
     11 O          19.2693   72.8259   -6.9778 O.3     1  UNL1       -0.3308
     12 O          20.7094   70.3809   -8.8812 O.3     1  UNL1       -0.3794
     13 H          19.3992   71.4525  -11.0023 H       1  UNL1        0.2106
     14 H          20.7188   70.2394   -9.8375 H       1  UNL1        0.2105
     15 N          17.3258   73.4165   -8.2384 N.ar    1  UNL1       -0.2551
     16 C          17.6554   74.6882   -8.5254 C.ar    1  UNL1        0.3323
     17 N          16.7055   75.6227   -8.7160 N.ar    1  UNL1       -0.2743
     18 C          15.4023   75.2986   -8.6119 C.ar    1  UNL1        0.2626
     19 C          15.0403   73.9642   -8.3044 C.ar    1  UNL1        0.0795
     20 C          16.0130   73.0459   -8.1223 C.ar    1  UNL1        0.0869
     21 O          18.8268   74.9955   -8.6231 O.2     1  UNL1       -0.2464
     22 O          14.5418   76.1448   -8.7796 O.2     1  UNL1       -0.2670
     23 H          16.9614   76.5347   -8.9267 H       1  UNL1        0.1734
     24 O          23.5743   72.8799   -4.4720 O.3     1  UNL1       -0.2703
     25 P          22.7221   72.0540   -3.3851 P.3     1  UNL1        0.2208
     26 O          21.3495   71.8396   -3.8941 O.2     1  UNL1       -0.5170
     27 O          23.4252   70.6289   -3.1225 O.3     1  UNL1       -0.4371
     28 O          22.6611   72.8828   -2.0069 O.3     1  UNL1       -0.2858
     29 C          21.4027   72.5865   -1.3998 C.3     1  UNL1        0.2704
     30 C          21.0176   73.7195   -0.4473 C.3     1  UNL1        0.1967
     31 C          22.1095   73.8693    0.6166 C.3     1  UNL1        0.1715
     32 C          22.3361   72.5068    1.2814 C.3     1  UNL1        0.1694
     33 C          22.6234   71.4654    0.1969 C.3     1  UNL1        0.1761
     34 O          20.8913   74.9392   -1.1805 O.3     1  UNL1       -0.3775
     35 O          21.6960   74.8223    1.5981 O.3     1  UNL1       -0.3794
     36 O          21.1681   72.1320    2.0131 O.3     1  UNL1       -0.3794
     37 O          21.5018   71.3606   -0.6789 O.3     1  UNL1       -0.3258
     38 H          20.2002   74.7969   -1.8417 H       1  UNL1        0.2106
     39 H          21.5542   75.6575    1.1349 H       1  UNL1        0.2105
     40 H          21.0229   72.8171    2.6786 H       1  UNL1        0.2105
     41 C          22.8851   70.1077    0.8526 C.3     1  UNL1        0.1693
     42 O          21.7434   69.2669    0.6771 O.3     1  UNL1       -0.3794
     43 H          21.9490   68.4233    1.1028 H       1  UNL1        0.2105
@<TRIPOS>BOND
     1    15    16   ar
     2    15    20   ar
     3    15     6    1
     4    16    17   ar
     5    16    21    2
     6    17    18   ar
     7    17    23    1
     8    18    19   ar
     9    18    22    2
    10    19    20   ar
    11     6     7    1
    12     6    11    1
    13     7     8    1
    14     7     9    1
    15     8    13    1
    16     9    10    1
    17     9    12    1
    18    10    11    1
    19    10     5    1
    20    12    14    1
    21     5     4    1
    22     4     1    1
    23     1     2    2
    24     1     3    1
    25     1    24    1
    26    24    25    1
    27    25    26    2
    28    25    27    1
    29    25    28    1
    30    28    29    1
    31    29    30    1
    32    29    37    1
    33    30    31    1
    34    30    34    1
    35    31    32    1
    36    31    35    1
    37    32    33    1
    38    32    36    1
    39    33    41    1
    40    33    37    1
    41    41    42    1
    42    34    38    1
    43    35    39    1
    44    36    40    1
    45    42    43    1
@<TRIPOS>MOLECULE
GDU
 43 45 0 0 0
SMALL
GASTEIGER

@<TRIPOS>ATOM
      1 P          20.3762   70.4310   -2.3479 P.3     1  UNL1        0.2189
      2 O          21.2563   69.2428   -2.2917 O.2     1  UNL1       -0.5170
      3 O          20.8105   71.3623   -3.5877 O.3     1  UNL1       -0.4371
      4 O          18.8501   69.9604   -2.5390 O.3     1  UNL1       -0.3112
      5 C          18.0518   71.1447   -2.5623 C.3     1  UNL1        0.1811
      6 C          16.6513   72.0258   -5.7544 C.3     1  UNL1        0.2383
      7 C          17.5662   70.8106   -6.0529 C.3     1  UNL1        0.1895
      8 O          17.0568   70.0457   -7.1478 O.3     1  UNL1       -0.3779
      9 C          17.4807   70.0067   -4.7294 C.3     1  UNL1        0.1713
     10 C          17.0222   71.0457   -3.6894 C.3     1  UNL1        0.1764
     11 O          16.9133   72.3112   -4.3639 O.3     1  UNL1       -0.3308
     12 O          16.5248   68.9511   -4.8469 O.3     1  UNL1       -0.3794
     13 H          17.6689   69.3085   -7.2816 H       1  UNL1        0.2106
     14 H          16.8371   68.3676   -5.5517 H       1  UNL1        0.2105
     15 N          17.0175   73.1683   -6.5932 N.ar    1  UNL1       -0.2551
     16 C          16.0761   74.0565   -6.9582 C.ar    1  UNL1        0.3323
     17 N          16.3870   75.1174   -7.7260 N.ar    1  UNL1       -0.2743
     18 C          17.6516   75.3016   -8.1515 C.ar    1  UNL1        0.2626
     19 C          18.6526   74.3709   -7.7798 C.ar    1  UNL1        0.0795
     20 C          18.3143   73.3180   -7.0054 C.ar    1  UNL1        0.0869
     21 O          14.9311   73.9039   -6.5816 O.2     1  UNL1       -0.2464
     22 O          17.9331   76.2590   -8.8506 O.2     1  UNL1       -0.2670
     23 H          15.6958   75.7509   -7.9763 H       1  UNL1        0.1734
     24 O          20.5143   71.2652   -0.9777 O.3     1  UNL1       -0.2703
     25 P          21.8522   70.7469   -0.2486 P.3     1  UNL1        0.2208
     26 O          21.6052   69.4147    0.3458 O.2     1  UNL1       -0.5170
     27 O          23.0438   70.6404   -1.3270 O.3     1  UNL1       -0.4371
     28 O          22.2694   71.7835    0.9096 O.3     1  UNL1       -0.2858
     29 C          21.3620   72.8834    0.8288 C.3     1  UNL1        0.2704
     30 C          22.0746   74.0870    0.2100 C.3     1  UNL1        0.1967
     31 C          23.2862   74.4478    1.0750 C.3     1  UNL1        0.1715
     32 C          22.8159   74.6408    2.5210 C.3     1  UNL1        0.1694
     33 C          22.0482   73.3934    2.9655 C.3     1  UNL1        0.1761
     34 O          22.5084   73.7591   -1.1112 O.3     1  UNL1       -0.3775
     35 O          23.8763   75.6573    0.5940 O.3     1  UNL1       -0.3794
     36 O          21.9640   75.7847    2.5978 O.3     1  UNL1       -0.3794
     37 O          20.9007   73.2137    2.1367 O.3     1  UNL1       -0.3258
     38 H          21.7161   73.5322   -1.6167 H       1  UNL1        0.2106
     39 H          24.1453   75.4938   -0.3188 H       1  UNL1        0.2105
     40 H          22.4861   76.5427    2.3042 H       1  UNL1        0.2105
     41 C          21.6035   73.5616    4.4201 C.3     1  UNL1        0.1693
     42 O          21.9786   72.4042    5.1689 O.3     1  UNL1       -0.3794
     43 H          21.6817   72.5504    6.0776 H       1  UNL1        0.2105
@<TRIPOS>BOND
     1    15    16   ar
     2    15    20   ar
     3    15     6    1
     4    16    17   ar
     5    16    21    2
     6    17    18   ar
     7    17    23    1
     8    18    19   ar
     9    18    22    2
    10    19    20   ar
    11     6     7    1
    12     6    11    1
    13     7     8    1
    14     7     9    1
    15     8    13    1
    16     9    10    1
    17     9    12    1
    18    10    11    1
    19    10     5    1
    20    12    14    1
    21     5     4    1
    22     4     1    1
    23     1     2    2
    24     1     3    1
    25     1    24    1
    26    24    25    1
    27    25    26    2
    28    25    27    1
    29    25    28    1
    30    28    29    1
    31    29    30    1
    32    29    37    1
    33    30    31    1
    34    30    34    1
    35    31    32    1
    36    31    35    1
    37    32    33    1
    38    32    36    1
    39    33    41    1
    40    33    37    1
    41    41    42    1
    42    34    38    1
    43    35    39    1
    44    36    40    1
    45    42    43    1
