@<TRIPOS>MOLECULE
GDU
 43 45 0 0 0
SMALL
GASTEIGER

@<TRIPOS>ATOM
      1 P          20.2896   71.2256   -2.2173 P.3     1  UNL1        0.2189
      2 O          19.6079   70.3050   -1.2806 O.2     1  UNL1       -0.5170
      3 O          21.4185   70.4198   -3.0353 O.3     1  UNL1       -0.4371
      4 O          19.2154   71.8375   -3.2461 O.3     1  UNL1       -0.3112
      5 C          17.9432   71.7795   -2.5992 C.3     1  UNL1        0.1811
      6 C          16.8193   70.5419   -5.7823 C.3     1  UNL1        0.2383
      7 C          17.1899   69.2691   -4.9788 C.3     1  UNL1        0.1895
      8 O          16.3739   68.1629   -5.3709 O.3     1  UNL1       -0.3779
      9 C          16.8743   69.7006   -3.5230 C.3     1  UNL1        0.1713
     10 C          16.8967   71.2395   -3.5756 C.3     1  UNL1        0.1764
     11 O          17.2403   71.6196   -4.9193 O.3     1  UNL1       -0.3308
     12 O          15.5855   69.2255   -3.1293 O.3     1  UNL1       -0.3794
     13 H          16.6539   67.4067   -4.8366 H       1  UNL1        0.2106
     14 H          15.6174   68.2602   -3.1732 H       1  UNL1        0.2105
     15 N          17.5472   70.5832   -7.0517 N.ar    1  UNL1       -0.2551
     16 C          16.8684   70.5341   -8.2115 C.ar    1  UNL1        0.3323
     17 N          17.5132   70.5741   -9.3924 N.ar    1  UNL1       -0.2743
     18 C          18.8572   70.6544   -9.4309 C.ar    1  UNL1        0.2626
     19 C          19.5857   70.7011   -8.2171 C.ar    1  UNL1        0.0795
     20 C          18.9138   70.6637   -7.0468 C.ar    1  UNL1        0.0869
     21 O          15.6557   70.4621   -8.1927 O.2     1  UNL1       -0.2464
     22 O          19.4420   70.6858  -10.4992 O.2     1  UNL1       -0.2670
     23 H          17.0070   70.5420  -10.2198 H       1  UNL1        0.1734
     24 O          20.9802   72.4199   -1.3870 O.3     1  UNL1       -0.2703
     25 P          21.8244   71.7356   -0.2000 P.3     1  UNL1        0.2208
     26 O          21.0186   70.6626    0.4230 O.2     1  UNL1       -0.5170
     27 O          23.1811   71.1079   -0.7996 O.3     1  UNL1       -0.4371
     28 O          22.1912   72.8444    0.9073 O.3     1  UNL1       -0.2858
     29 C          22.7118   72.1449    2.0384 C.3     1  UNL1        0.2704
     30 C          21.9088   72.5223    3.2842 C.3     1  UNL1        0.1967
     31 C          21.9996   74.0367    3.4961 C.3     1  UNL1        0.1715
     32 C          23.4783   74.4395    3.5263 C.3     1  UNL1        0.1694
     33 C          24.1622   73.9179    2.2602 C.3     1  UNL1        0.1761
     34 O          20.5428   72.1435    3.1061 O.3     1  UNL1       -0.3775
     35 O          21.3788   74.3863    4.7350 O.3     1  UNL1       -0.3794
     36 O          24.1036   73.8754    4.6799 O.3     1  UNL1       -0.3794
     37 O          24.0819   72.4938    2.2215 O.3     1  UNL1       -0.3258
     38 H          20.5342   71.1864    2.9694 H       1  UNL1        0.2106
     39 H          20.4572   74.1047    4.6755 H       1  UNL1        0.2105
     40 H          23.6381   74.2262    5.4503 H       1  UNL1        0.2105
     41 C          25.6320   74.3443    2.2639 C.3     1  UNL1        0.1693
     42 O          26.0771   74.5046    3.6120 O.3     1  UNL1       -0.3794
     43 H          27.0055   74.7721    3.5702 H       1  UNL1        0.2105
@<TRIPOS>BOND
     1    15    16   ar
     2    15    20   ar
     3    15     6    1
     4    16    17   ar
     5    16    21    2
     6    17    18   ar
     7    17    23    1
     8    18    19   ar
     9    18    22    2
    10    19    20   ar
    11     6     7    1
    12     6    11    1
    13     7     8    1
    14     7     9    1
    15     8    13    1
    16     9    10    1
    17     9    12    1
    18    10    11    1
    19    10     5    1
    20    12    14    1
    21     5     4    1
    22     4     1    1
    23     1     2    2
    24     1     3    1
    25     1    24    1
    26    24    25    1
    27    25    26    2
    28    25    27    1
    29    25    28    1
    30    28    29    1
    31    29    30    1
    32    29    37    1
    33    30    31    1
    34    30    34    1
    35    31    32    1
    36    31    35    1
    37    32    33    1
    38    32    36    1
    39    33    41    1
    40    33    37    1
    41    41    42    1
    42    34    38    1
    43    35    39    1
    44    36    40    1
    45    42    43    1
@<TRIPOS>MOLECULE
GDU
 43 45 0 0 0
SMALL
GASTEIGER

@<TRIPOS>ATOM
      1 P          20.7456   71.1429   -3.2137 P.3     1  UNL1        0.2189
      2 O          21.0800   71.5161   -4.6060 O.2     1  UNL1       -0.5170
      3 O          20.3356   72.4632   -2.3880 O.3     1  UNL1       -0.4371
      4 O          19.5148   70.1076   -3.2160 O.3     1  UNL1       -0.3112
      5 C          18.4091   70.7780   -2.6090 C.3     1  UNL1        0.1811
      6 C          16.8444   70.4753   -5.8319 C.3     1  UNL1        0.2383
      7 C          16.7959   69.0435   -5.2399 C.3     1  UNL1        0.1895
      8 O          15.6481   68.3348   -5.7127 O.3     1  UNL1       -0.3779
      9 C          16.6846   69.3246   -3.7187 C.3     1  UNL1        0.1713
     10 C          17.2142   70.7623   -3.5641 C.3     1  UNL1        0.1764
     11 O          17.6243   71.2128   -4.8668 O.3     1  UNL1       -0.3308
     12 O          15.3234   69.2371   -3.2928 O.3     1  UNL1       -0.3794
     13 H          15.6774   67.4560   -5.3094 H       1  UNL1        0.2106
     14 H          15.0323   68.3323   -3.4694 H       1  UNL1        0.2105
     15 N          17.5067   70.4739   -7.1374 N.ar    1  UNL1       -0.2551
     16 C          16.7674   70.5032   -8.2603 C.ar    1  UNL1        0.3323
     17 N          17.3516   70.5061   -9.4729 N.ar    1  UNL1       -0.2743
     18 C          18.6936   70.4696   -9.5813 C.ar    1  UNL1        0.2626
     19 C          19.4850   70.4326   -8.4071 C.ar    1  UNL1        0.0795
     20 C          18.8735   70.4348   -7.2036 C.ar    1  UNL1        0.0869
     21 O          15.5557   70.5369   -8.1784 O.2     1  UNL1       -0.2464
     22 O          19.2232   70.4674  -10.6786 O.2     1  UNL1       -0.2670
     23 H          16.8026   70.5319  -10.2728 H       1  UNL1        0.1734
     24 O          22.0261   70.4548   -2.5214 O.3     1  UNL1       -0.2703
     25 P          23.1062   71.6219   -2.2739 P.3     1  UNL1        0.2208
     26 O          24.4604   71.1150   -2.5872 O.2     1  UNL1       -0.5170
     27 O          22.7692   72.8756   -3.2271 O.3     1  UNL1       -0.4371
     28 O          23.0499   72.0891   -0.7348 O.3     1  UNL1       -0.2858
     29 C          23.1160   70.9051    0.0610 C.3     1  UNL1        0.2704
     30 C          21.9024   70.8476    0.9900 C.3     1  UNL1        0.1967
     31 C          21.8943   72.0960    1.8775 C.3     1  UNL1        0.1715
     32 C          23.2509   72.2048    2.5827 C.3     1  UNL1        0.1694
     33 C          24.3630   72.1613    1.5318 C.3     1  UNL1        0.1761
     34 O          20.7052   70.8043    0.2114 O.3     1  UNL1       -0.3775
     35 O          20.8524   71.9872    2.8498 O.3     1  UNL1       -0.3794
     36 O          23.4047   71.1153    3.4935 O.3     1  UNL1       -0.3794
     37 O          24.3154   70.9189    0.8317 O.3     1  UNL1       -0.3258
     38 H          20.7568   70.0085   -0.3355 H       1  UNL1        0.2106
     39 H          20.0223   71.9093    2.3629 H       1  UNL1        0.2105
     40 H          22.6819   71.1796    4.1313 H       1  UNL1        0.2105
     41 C          25.7211   72.3037    2.2228 C.3     1  UNL1        0.1693
     42 O          26.2630   71.0067    2.4781 O.3     1  UNL1       -0.3794
     43 H          27.1167   71.1405    2.9123 H       1  UNL1        0.2105
@<TRIPOS>BOND
     1    15    16   ar
     2    15    20   ar
     3    15     6    1
     4    16    17   ar
     5    16    21    2
     6    17    18   ar
     7    17    23    1
     8    18    19   ar
     9    18    22    2
    10    19    20   ar
    11     6     7    1
    12     6    11    1
    13     7     8    1
    14     7     9    1
    15     8    13    1
    16     9    10    1
    17     9    12    1
    18    10    11    1
    19    10     5    1
    20    12    14    1
    21     5     4    1
    22     4     1    1
    23     1     2    2
    24     1     3    1
    25     1    24    1
    26    24    25    1
    27    25    26    2
    28    25    27    1
    29    25    28    1
    30    28    29    1
    31    29    30    1
    32    29    37    1
    33    30    31    1
    34    30    34    1
    35    31    32    1
    36    31    35    1
    37    32    33    1
    38    32    36    1
    39    33    41    1
    40    33    37    1
    41    41    42    1
    42    34    38    1
    43    35    39    1
    44    36    40    1
    45    42    43    1
@<TRIPOS>MOLECULE
GDU
 43 45 0 0 0
SMALL
GASTEIGER

@<TRIPOS>ATOM
      1 P          20.8995   71.8624   -1.5542 P.3     1  UNL1        0.2189
      2 O          22.0870   71.2107   -2.1499 O.2     1  UNL1       -0.5170
      3 O          20.3708   73.0197   -2.5412 O.3     1  UNL1       -0.4371
      4 O          19.7391   70.7698   -1.3382 O.3     1  UNL1       -0.3112
      5 C          19.6412   70.0245   -2.5529 C.3     1  UNL1        0.1811
      6 C          17.5409   70.4477   -5.4403 C.3     1  UNL1        0.2383
      7 C          17.2612   68.9991   -4.9646 C.3     1  UNL1        0.1895
      8 O          15.9191   68.6127   -5.2690 O.3     1  UNL1       -0.3779
      9 C          17.4694   69.1145   -3.4321 C.3     1  UNL1        0.1713
     10 C          18.3347   70.3775   -3.2661 C.3     1  UNL1        0.1764
     11 O          18.6178   70.8819   -4.5828 O.3     1  UNL1       -0.3308
     12 O          16.2139   69.2692   -2.7675 O.3     1  UNL1       -0.3794
     13 H          15.8105   67.7062   -4.9491 H       1  UNL1        0.2106
     14 H          15.6967   68.4747   -2.9575 H       1  UNL1        0.2105
     15 N          17.9611   70.4603   -6.8425 N.ar    1  UNL1       -0.2551
     16 C          17.0345   70.5073   -7.8159 C.ar    1  UNL1        0.3323
     17 N          17.3943   70.5234   -9.1129 N.ar    1  UNL1       -0.2743
     18 C          18.6956   70.4826   -9.4581 C.ar    1  UNL1        0.2626
     19 C          19.6825   70.4272   -8.4436 C.ar    1  UNL1        0.0795
     20 C          19.2942   70.4164   -7.1507 C.ar    1  UNL1        0.0869
     21 O          15.8568   70.5449   -7.5199 O.2     1  UNL1       -0.2464
     22 O          19.0221   70.4924  -10.6319 O.2     1  UNL1       -0.2670
     23 H          16.7123   70.5618   -9.8022 H       1  UNL1        0.1734
     24 O          21.2992   72.5102   -0.1354 O.3     1  UNL1       -0.2703
     25 P          22.2843   71.4667    0.5931 P.3     1  UNL1        0.2208
     26 O          21.5127   70.2813    1.0274 O.2     1  UNL1       -0.5170
     27 O          23.4365   71.0092   -0.4351 O.3     1  UNL1       -0.4371
     28 O          22.9584   72.1686    1.8749 O.3     1  UNL1       -0.2858
     29 C          22.6025   73.5508    1.8261 C.3     1  UNL1        0.2704
     30 C          23.8026   74.3689    1.3467 C.3     1  UNL1        0.1967
     31 C          24.9743   74.1457    2.3078 C.3     1  UNL1        0.1715
     32 C          24.5035   74.4525    3.7339 C.3     1  UNL1        0.1694
     33 C          23.2504   73.6259    4.0332 C.3     1  UNL1        0.1761
     34 O          24.1733   73.9496    0.0322 O.3     1  UNL1       -0.3775
     35 O          26.0539   75.0145    1.9586 O.3     1  UNL1       -0.3794
     36 O          24.2025   75.8440    3.8488 O.3     1  UNL1       -0.3794
     37 O          22.2092   73.9846    3.1260 O.3     1  UNL1       -0.3258
     38 H          23.4057   74.1012   -0.5359 H       1  UNL1        0.2106
     39 H          26.3085   74.7948    1.0535 H       1  UNL1        0.2105
     40 H          25.0162   76.3240    3.6468 H       1  UNL1        0.2105
     41 C          22.7917   73.8991    5.4674 C.3     1  UNL1        0.1693
     42 O          22.3500   72.6794    6.0658 O.3     1  UNL1       -0.3794
     43 H          22.0710   72.8946    6.9665 H       1  UNL1        0.2105
@<TRIPOS>BOND
     1    15    16   ar
     2    15    20   ar
     3    15     6    1
     4    16    17   ar
     5    16    21    2
     6    17    18   ar
     7    17    23    1
     8    18    19   ar
     9    18    22    2
    10    19    20   ar
    11     6     7    1
    12     6    11    1
    13     7     8    1
    14     7     9    1
    15     8    13    1
    16     9    10    1
    17     9    12    1
    18    10    11    1
    19    10     5    1
    20    12    14    1
    21     5     4    1
    22     4     1    1
    23     1     2    2
    24     1     3    1
    25     1    24    1
    26    24    25    1
    27    25    26    2
    28    25    27    1
    29    25    28    1
    30    28    29    1
    31    29    30    1
    32    29    37    1
    33    30    31    1
    34    30    34    1
    35    31    32    1
    36    31    35    1
    37    32    33    1
    38    32    36    1
    39    33    41    1
    40    33    37    1
    41    41    42    1
    42    34    38    1
    43    35    39    1
    44    36    40    1
    45    42    43    1
@<TRIPOS>MOLECULE
GDU
 43 45 0 0 0
SMALL
GASTEIGER

@<TRIPOS>ATOM
      1 P          21.0747   71.5240   -1.8272 P.3     1  UNL1        0.2189
      2 O          20.7966   72.9135   -1.4010 O.2     1  UNL1       -0.5170
      3 O          20.8066   70.5213   -0.5960 O.3     1  UNL1       -0.4371
      4 O          20.1110   71.1358   -3.0550 O.3     1  UNL1       -0.3112
      5 C          19.0299   70.3785   -2.5090 C.3     1  UNL1        0.1811
      6 C          17.2328   70.4706   -5.6218 C.3     1  UNL1        0.2383
      7 C          17.0414   69.0218   -5.1047 C.3     1  UNL1        0.1895
      8 O          15.7845   68.4904   -5.5302 O.3     1  UNL1       -0.3779
      9 C          17.0661   69.2199   -3.5667 C.3     1  UNL1        0.1713
     10 C          17.7831   70.5691   -3.3746 C.3     1  UNL1        0.1764
     11 O          18.1613   71.0453   -4.6778 O.3     1  UNL1       -0.3308
     12 O          15.7355   69.2745   -3.0487 O.3     1  UNL1       -0.3794
     13 H          15.7280   67.5914   -5.1774 H       1  UNL1        0.2106
     14 H          15.3208   68.4251   -3.2515 H       1  UNL1        0.2105
     15 N          17.8031   70.4682   -6.9700 N.ar    1  UNL1       -0.2551
     16 C          16.9876   70.4482   -8.0390 C.ar    1  UNL1        0.3323
     17 N          17.4862   70.4491   -9.2893 N.ar    1  UNL1       -0.2743
     18 C          18.8180   70.4603   -9.4902 C.ar    1  UNL1        0.2626
     19 C          19.6893   70.4757   -8.3735 C.ar    1  UNL1        0.0795
     20 C          19.1626   70.4787   -7.1305 C.ar    1  UNL1        0.0869
     21 O          15.7840   70.4384   -7.8735 O.2     1  UNL1       -0.2464
     22 O          19.2704   70.4563  -10.6215 O.2     1  UNL1       -0.2670
     23 H          16.8828   70.4388  -10.0493 H       1  UNL1        0.1734
     24 O          22.6119   71.4034   -2.2908 O.3     1  UNL1       -0.2703
     25 P          22.9197   72.6789   -3.2225 P.3     1  UNL1        0.2208
     26 O          22.9807   73.8976   -2.3857 O.2     1  UNL1       -0.5170
     27 O          24.3317   72.4699   -3.9687 O.3     1  UNL1       -0.4371
     28 O          21.7529   72.8378   -4.3194 O.3     1  UNL1       -0.2858
     29 C          21.4753   74.2344   -4.4307 C.3     1  UNL1        0.2704
     30 C          19.9983   74.4342   -4.7739 C.3     1  UNL1        0.1967
     31 C          19.6906   73.7149   -6.0909 C.3     1  UNL1        0.1715
     32 C          20.6794   74.2004   -7.1569 C.3     1  UNL1        0.1694
     33 C          22.1059   74.0163   -6.6333 C.3     1  UNL1        0.1761
     34 O          19.1869   73.8924   -3.7301 O.3     1  UNL1       -0.3775
     35 O          18.3544   74.0138   -6.5003 O.3     1  UNL1       -0.3794
     36 O          20.4419   75.5810   -7.4355 O.3     1  UNL1       -0.3794
     37 O          22.2909   74.7990   -5.4548 O.3     1  UNL1       -0.3258
     38 H          19.4187   74.3684   -2.9210 H       1  UNL1        0.2106
     39 H          17.7701   73.7029   -5.7973 H       1  UNL1        0.2105
     40 H          19.5331   75.6496   -7.7558 H       1  UNL1        0.2105
     41 C          23.1024   74.4663   -7.7041 C.3     1  UNL1        0.1693
     42 O          23.3729   73.3780   -8.5893 O.3     1  UNL1       -0.3794
     43 H          24.0027   73.7026   -9.2475 H       1  UNL1        0.2105
@<TRIPOS>BOND
     1    15    16   ar
     2    15    20   ar
     3    15     6    1
     4    16    17   ar
     5    16    21    2
     6    17    18   ar
     7    17    23    1
     8    18    19   ar
     9    18    22    2
    10    19    20   ar
    11     6     7    1
    12     6    11    1
    13     7     8    1
    14     7     9    1
    15     8    13    1
    16     9    10    1
    17     9    12    1
    18    10    11    1
    19    10     5    1
    20    12    14    1
    21     5     4    1
    22     4     1    1
    23     1     2    2
    24     1     3    1
    25     1    24    1
    26    24    25    1
    27    25    26    2
    28    25    27    1
    29    25    28    1
    30    28    29    1
    31    29    30    1
    32    29    37    1
    33    30    31    1
    34    30    34    1
    35    31    32    1
    36    31    35    1
    37    32    33    1
    38    32    36    1
    39    33    41    1
    40    33    37    1
    41    41    42    1
    42    34    38    1
    43    35    39    1
    44    36    40    1
    45    42    43    1
@<TRIPOS>MOLECULE
GDU
 43 45 0 0 0
SMALL
GASTEIGER

@<TRIPOS>ATOM
      1 P          20.5523   71.1021   -1.3510 P.3     1  UNL1        0.2189
      2 O          20.6328   72.5776   -1.4278 O.2     1  UNL1       -0.5170
      3 O          20.8346   70.6273    0.1616 O.3     1  UNL1       -0.4371
      4 O          19.0849   70.6202   -1.7997 O.3     1  UNL1       -0.3112
      5 C          18.4754   71.7225   -2.4734 C.3     1  UNL1        0.1811
      6 C          17.0402   70.5369   -5.5495 C.3     1  UNL1        0.2383
      7 C          17.4506   69.2494   -4.7899 C.3     1  UNL1        0.1895
      8 O          16.5761   68.1659   -5.1132 O.3     1  UNL1       -0.3779
      9 C          17.2778   69.6768   -3.3091 C.3     1  UNL1        0.1713
     10 C          17.3326   71.2151   -3.3547 C.3     1  UNL1        0.1764
     11 O          17.5631   71.5975   -4.7217 O.3     1  UNL1       -0.3308
     12 O          16.0184   69.2291   -2.8037 O.3     1  UNL1       -0.3794
     13 H          16.8846   67.3991   -4.6106 H       1  UNL1        0.2106
     14 H          16.0228   68.2637   -2.8558 H       1  UNL1        0.2105
     15 N          17.6517   70.5711   -6.8790 N.ar    1  UNL1       -0.2551
     16 C          16.8765   70.4637   -7.9725 C.ar    1  UNL1        0.3323
     17 N          17.4133   70.4957   -9.2065 N.ar    1  UNL1       -0.2743
     18 C          18.7443   70.6267   -9.3659 C.ar    1  UNL1        0.2626
     19 C          19.5738   70.7351   -8.2230 C.ar    1  UNL1        0.0795
     20 C          19.0091   70.7043   -6.9972 C.ar    1  UNL1        0.0869
     21 O          15.6741   70.3454   -7.8446 O.2     1  UNL1       -0.2464
     22 O          19.2315   70.6510  -10.4824 O.2     1  UNL1       -0.2670
     23 H          16.8383   70.4211   -9.9848 H       1  UNL1        0.1734
     24 O          21.6542   70.4539   -2.3299 O.3     1  UNL1       -0.2703
     25 P          22.9190   71.4490   -2.3326 P.3     1  UNL1        0.2208
     26 O          23.2133   71.8762   -0.9470 O.2     1  UNL1       -0.5170
     27 O          24.2001   70.6865   -2.9421 O.3     1  UNL1       -0.4371
     28 O          22.5855   72.7400   -3.2338 O.3     1  UNL1       -0.2858
     29 C          23.7838   73.0783   -3.9336 C.3     1  UNL1        0.2704
     30 C          24.1501   74.5343   -3.6416 C.3     1  UNL1        0.1967
     31 C          22.9936   75.4373   -4.0814 C.3     1  UNL1        0.1715
     32 C          22.6611   75.1294   -5.5458 C.3     1  UNL1        0.1694
     33 C          22.4056   73.6274   -5.6930 C.3     1  UNL1        0.1761
     34 O          24.3812   74.6981   -2.2412 O.3     1  UNL1       -0.3775
     35 O          23.3782   76.8076   -3.9518 O.3     1  UNL1       -0.3794
     36 O          23.7571   75.5162   -6.3761 O.3     1  UNL1       -0.3794
     37 O          23.5804   72.9017   -5.3336 O.3     1  UNL1       -0.3258
     38 H          25.1103   74.1073   -2.0078 H       1  UNL1        0.2106
     39 H          23.5889   76.9522   -3.0207 H       1  UNL1        0.2105
     40 H          23.8849   76.4650   -6.2469 H       1  UNL1        0.2105
     41 C          22.0390   73.3141   -7.1454 C.3     1  UNL1        0.1693
     42 O          20.8822   74.0659   -7.5166 O.3     1  UNL1       -0.3794
     43 H          20.6855   73.8409   -8.4363 H       1  UNL1        0.2105
@<TRIPOS>BOND
     1    15    16   ar
     2    15    20   ar
     3    15     6    1
     4    16    17   ar
     5    16    21    2
     6    17    18   ar
     7    17    23    1
     8    18    19   ar
     9    18    22    2
    10    19    20   ar
    11     6     7    1
    12     6    11    1
    13     7     8    1
    14     7     9    1
    15     8    13    1
    16     9    10    1
    17     9    12    1
    18    10    11    1
    19    10     5    1
    20    12    14    1
    21     5     4    1
    22     4     1    1
    23     1     2    2
    24     1     3    1
    25     1    24    1
    26    24    25    1
    27    25    26    2
    28    25    27    1
    29    25    28    1
    30    28    29    1
    31    29    30    1
    32    29    37    1
    33    30    31    1
    34    30    34    1
    35    31    32    1
    36    31    35    1
    37    32    33    1
    38    32    36    1
    39    33    41    1
    40    33    37    1
    41    41    42    1
    42    34    38    1
    43    35    39    1
    44    36    40    1
    45    42    43    1
@<TRIPOS>MOLECULE
GDU
 43 45 0 0 0
SMALL
GASTEIGER

@<TRIPOS>ATOM
      1 P          23.5019   72.1870   -3.3128 P.3     1  UNL1        0.2189
      2 O          24.2797   72.9689   -4.2993 O.2     1  UNL1       -0.5170
      3 O          24.2588   70.7978   -3.0124 O.3     1  UNL1       -0.4371
      4 O          23.3637   73.0286   -1.9492 O.3     1  UNL1       -0.3112
      5 C          21.9943   72.9485   -1.5506 C.3     1  UNL1        0.1811
      6 C          23.2659   72.0548    1.6916 C.3     1  UNL1        0.2383
      7 C          22.5503   73.4117    1.9148 C.3     1  UNL1        0.1895
      8 O          22.0150   73.4945    3.2376 O.3     1  UNL1       -0.3779
      9 C          21.4140   73.3570    0.8607 C.3     1  UNL1        0.1713
     10 C          21.9019   72.3138   -0.1617 C.3     1  UNL1        0.1764
     11 O          23.2036   71.8724    0.2611 O.3     1  UNL1       -0.3308
     12 O          20.1897   72.9384    1.4671 O.3     1  UNL1       -0.3794
     13 H          21.5856   74.3582    3.3111 H       1  UNL1        0.2106
     14 H          19.9684   73.5998    2.1367 H       1  UNL1        0.2105
     15 N          24.6567   72.1223    2.1430 N.ar    1  UNL1       -0.2551
     16 C          25.3792   70.9931    2.2484 C.ar    1  UNL1        0.3323
     17 N          26.6611   71.0279    2.6575 N.ar    1  UNL1       -0.2743
     18 C          27.2406   72.2005    2.9791 C.ar    1  UNL1        0.2626
     19 C          26.4900   73.3975    2.8784 C.ar    1  UNL1        0.0795
     20 C          25.2076   73.3345    2.4613 C.ar    1  UNL1        0.0869
     21 O          24.8702   69.9279    1.9613 O.2     1  UNL1       -0.2464
     22 O          28.3994   72.2325    3.3541 O.2     1  UNL1       -0.2670
     23 H          27.1689   70.2036    2.7237 H       1  UNL1        0.1734
     24 O          22.0371   71.8808   -3.9069 O.3     1  UNL1       -0.2703
     25 P          21.8909   72.7451   -5.2566 P.3     1  UNL1        0.2208
     26 O          22.0571   74.1814   -4.9428 O.2     1  UNL1       -0.5170
     27 O          23.0228   72.2918   -6.3090 O.3     1  UNL1       -0.4371
     28 O          20.4351   72.4996   -5.8973 O.3     1  UNL1       -0.2858
     29 C          20.4038   71.1454   -6.3497 C.3     1  UNL1        0.2704
     30 C          19.9026   71.1026   -7.7941 C.3     1  UNL1        0.1967
     31 C          18.5047   71.7258   -7.8555 C.3     1  UNL1        0.1715
     32 C          17.6079   71.0193   -6.8327 C.3     1  UNL1        0.1694
     33 C          18.2827   71.0703   -5.4597 C.3     1  UNL1        0.1761
     34 O          20.7943   71.8400   -8.6321 O.3     1  UNL1       -0.3775
     35 O          17.9628   71.5610   -9.1676 O.3     1  UNL1       -0.3794
     36 O          17.4145   69.6597   -7.2252 O.3     1  UNL1       -0.3794
     37 O          19.5340   70.3866   -5.5128 O.3     1  UNL1       -0.3258
     38 H          21.6610   71.4180   -8.5570 H       1  UNL1        0.2106
     39 H          18.5632   72.0092   -9.7767 H       1  UNL1        0.2105
     40 H          16.9937   69.6766   -8.0947 H       1  UNL1        0.2105
     41 C          17.3793   70.3973   -4.4239 C.3     1  UNL1        0.1693
     42 O          16.0124   70.5682   -4.8027 O.3     1  UNL1       -0.3794
     43 H          15.4777   70.1302   -4.1262 H       1  UNL1        0.2105
@<TRIPOS>BOND
     1    15    16   ar
     2    15    20   ar
     3    15     6    1
     4    16    17   ar
     5    16    21    2
     6    17    18   ar
     7    17    23    1
     8    18    19   ar
     9    18    22    2
    10    19    20   ar
    11     6     7    1
    12     6    11    1
    13     7     8    1
    14     7     9    1
    15     8    13    1
    16     9    10    1
    17     9    12    1
    18    10    11    1
    19    10     5    1
    20    12    14    1
    21     5     4    1
    22     4     1    1
    23     1     2    2
    24     1     3    1
    25     1    24    1
    26    24    25    1
    27    25    26    2
    28    25    27    1
    29    25    28    1
    30    28    29    1
    31    29    30    1
    32    29    37    1
    33    30    31    1
    34    30    34    1
    35    31    32    1
    36    31    35    1
    37    32    33    1
    38    32    36    1
    39    33    41    1
    40    33    37    1
    41    41    42    1
    42    34    38    1
    43    35    39    1
    44    36    40    1
    45    42    43    1
@<TRIPOS>MOLECULE
GDU
 43 45 0 0 0
SMALL
GASTEIGER

@<TRIPOS>ATOM
      1 P          21.4979   71.0997   -0.1734 P.3     1  UNL1        0.2189
      2 O          22.7978   71.1181   -0.8801 O.2     1  UNL1       -0.5170
      3 O          21.6069   70.1548    1.1259 O.3     1  UNL1       -0.4371
      4 O          21.1121   72.5937    0.2804 O.3     1  UNL1       -0.3112
      5 C          21.2343   72.6386    1.7029 C.3     1  UNL1        0.1811
      6 C          24.5266   73.8843    2.4351 C.3     1  UNL1        0.2383
      7 C          24.3306   74.1677    0.9238 C.3     1  UNL1        0.1895
      8 O          25.0497   75.3376    0.5269 O.3     1  UNL1       -0.3779
      9 C          22.8001   74.4018    0.8330 C.3     1  UNL1        0.1713
     10 C          22.2417   73.7205    2.0962 C.3     1  UNL1        0.1764
     11 O          23.3514   73.1254    2.7908 O.3     1  UNL1       -0.3308
     12 O          22.5074   75.8005    0.8399 O.3     1  UNL1       -0.3794
     13 H          24.8868   75.4574   -0.4191 H       1  UNL1        0.2106
     14 H          22.9322   76.1794    0.0585 H       1  UNL1        0.2105
     15 N          25.7384   73.0947    2.6611 N.ar    1  UNL1       -0.2551
     16 C          25.7695   71.8012    2.2948 C.ar    1  UNL1        0.3323
     17 N          26.8723   71.0541    2.4882 N.ar    1  UNL1       -0.2743
     18 C          27.9651   71.5911    3.0641 C.ar    1  UNL1        0.2626
     19 C          27.9448   72.9508    3.4603 C.ar    1  UNL1        0.0795
     20 C          26.8272   73.6785    3.2508 C.ar    1  UNL1        0.0869
     21 O          24.7915   71.3030    1.7737 O.2     1  UNL1       -0.2464
     22 O          28.9622   70.9143    3.2439 O.2     1  UNL1       -0.2670
     23 H          26.8786   70.1233    2.2138 H       1  UNL1        0.1734
     24 O          20.3607   70.5261   -1.1584 O.3     1  UNL1       -0.2703
     25 P          20.0078   71.7023   -2.1986 P.3     1  UNL1        0.2208
     26 O          19.0354   72.6311   -1.5813 O.2     1  UNL1       -0.5170
     27 O          21.3516   72.5060   -2.5758 O.3     1  UNL1       -0.4371
     28 O          19.3715   71.0669   -3.5333 O.3     1  UNL1       -0.2858
     29 C          19.0172   72.1578   -4.3842 C.3     1  UNL1        0.2704
     30 C          17.5418   72.0437   -4.7707 C.3     1  UNL1        0.1967
     31 C          17.3149   70.7066   -5.4828 C.3     1  UNL1        0.1715
     32 C          18.3048   70.5978   -6.6481 C.3     1  UNL1        0.1694
     33 C          19.7236   70.8198   -6.1183 C.3     1  UNL1        0.1761
     34 O          16.7328   72.1047   -3.5947 O.3     1  UNL1       -0.3775
     35 O          15.9762   70.6484   -5.9799 O.3     1  UNL1       -0.3794
     36 O          17.9964   71.5871   -7.6310 O.3     1  UNL1       -0.3794
     37 O          19.8285   72.1271   -5.5561 O.3     1  UNL1       -0.3258
     38 H          16.9129   72.9575   -3.1761 H       1  UNL1        0.2106
     39 H          15.3905   70.7323   -5.2169 H       1  UNL1        0.2105
     40 H          17.0949   71.4121   -7.9310 H       1  UNL1        0.2105
     41 C          20.7235   70.6793   -7.2683 C.3     1  UNL1        0.1693
     42 O          20.1553   69.8650   -8.2955 O.3     1  UNL1       -0.3794
     43 H          20.8150   69.8021   -8.9999 H       1  UNL1        0.2105
@<TRIPOS>BOND
     1    15    16   ar
     2    15    20   ar
     3    15     6    1
     4    16    17   ar
     5    16    21    2
     6    17    18   ar
     7    17    23    1
     8    18    19   ar
     9    18    22    2
    10    19    20   ar
    11     6     7    1
    12     6    11    1
    13     7     8    1
    14     7     9    1
    15     8    13    1
    16     9    10    1
    17     9    12    1
    18    10    11    1
    19    10     5    1
    20    12    14    1
    21     5     4    1
    22     4     1    1
    23     1     2    2
    24     1     3    1
    25     1    24    1
    26    24    25    1
    27    25    26    2
    28    25    27    1
    29    25    28    1
    30    28    29    1
    31    29    30    1
    32    29    37    1
    33    30    31    1
    34    30    34    1
    35    31    32    1
    36    31    35    1
    37    32    33    1
    38    32    36    1
    39    33    41    1
    40    33    37    1
    41    41    42    1
    42    34    38    1
    43    35    39    1
    44    36    40    1
    45    42    43    1
@<TRIPOS>MOLECULE
GDU
 43 45 0 0 0
SMALL
GASTEIGER

@<TRIPOS>ATOM
      1 P          22.6991   72.5121   -3.4351 P.3     1  UNL1        0.2189
      2 O          22.7398   73.8853   -2.8853 O.2     1  UNL1       -0.5170
      3 O          23.7549   72.3870   -4.6446 O.3     1  UNL1       -0.4371
      4 O          23.0792   71.4596   -2.2799 O.3     1  UNL1       -0.3112
      5 C          23.5105   72.2217   -1.1514 C.3     1  UNL1        0.1811
      6 C          25.0240   71.3014    1.9775 C.3     1  UNL1        0.2383
      7 C          23.6674   71.9382    2.3739 C.3     1  UNL1        0.1895
      8 O          23.1616   71.3535    3.5761 O.3     1  UNL1       -0.3779
      9 C          22.7710   71.5738    1.1619 C.3     1  UNL1        0.1713
     10 C          23.7731   71.2845    0.0288 C.3     1  UNL1        0.1764
     11 O          25.0928   71.5153    0.5517 O.3     1  UNL1       -0.3308
     12 O          21.9854   70.4159    1.4518 O.3     1  UNL1       -0.3794
     13 H          22.3205   71.7916    3.7669 H       1  UNL1        0.2106
     14 H          21.4227   70.6407    2.2051 H       1  UNL1        0.2105
     15 N          26.1314   71.9783    2.6545 N.ar    1  UNL1       -0.2551
     16 C          25.9757   73.2418    3.0878 C.ar    1  UNL1        0.3323
     17 N          26.9769   73.8856    3.7164 N.ar    1  UNL1       -0.2743
     18 C          28.1607   73.2739    3.9135 C.ar    1  UNL1        0.2626
     19 C          28.3410   71.9452    3.4573 C.ar    1  UNL1        0.0795
     20 C          27.3190   71.3213    2.8338 C.ar    1  UNL1        0.0869
     21 O          24.9135   73.8063    2.9176 O.2     1  UNL1       -0.2464
     22 O          29.0691   73.8575    4.4781 O.2     1  UNL1       -0.2670
     23 H          26.8456   74.7958    4.0263 H       1  UNL1        0.1734
     24 O          21.2180   72.1981   -3.9829 O.3     1  UNL1       -0.2703
     25 P          20.2992   71.8953   -2.6968 P.3     1  UNL1        0.2208
     26 O          20.8370   70.7230   -1.9717 O.2     1  UNL1       -0.5170
     27 O          20.3028   73.1769   -1.7213 O.3     1  UNL1       -0.4371
     28 O          18.7926   71.5886   -3.1724 O.3     1  UNL1       -0.2858
     29 C          18.8044   70.2964   -3.7805 C.3     1  UNL1        0.2704
     30 C          18.1464   70.3763   -5.1589 C.3     1  UNL1        0.1967
     31 C          16.7106   70.8850   -4.9972 C.3     1  UNL1        0.1715
     32 C          15.9872   69.9955   -3.9797 C.3     1  UNL1        0.1694
     33 C          16.8087   69.9461   -2.6891 C.3     1  UNL1        0.1761
     34 O          18.8835   71.2750   -5.9897 O.3     1  UNL1       -0.3775
     35 O          16.0357   70.8258   -6.2556 O.3     1  UNL1       -0.3794
     36 O          15.8456   68.6779   -4.5124 O.3     1  UNL1       -0.3794
     37 O          18.0904   69.3785   -2.9557 O.3     1  UNL1       -0.3258
     38 H          19.7803   70.9202   -6.0576 H       1  UNL1        0.2106
     39 H          16.5303   71.3881   -6.8651 H       1  UNL1        0.2105
     40 H          15.3285   68.7584   -5.3245 H       1  UNL1        0.2105
     41 C          16.0779   69.0879   -1.6540 C.3     1  UNL1        0.1693
     42 O          14.6680   69.2700   -1.7954 O.3     1  UNL1       -0.3794
     43 H          14.2455   68.7129   -1.1273 H       1  UNL1        0.2105
@<TRIPOS>BOND
     1    15    16   ar
     2    15    20   ar
     3    15     6    1
     4    16    17   ar
     5    16    21    2
     6    17    18   ar
     7    17    23    1
     8    18    19   ar
     9    18    22    2
    10    19    20   ar
    11     6     7    1
    12     6    11    1
    13     7     8    1
    14     7     9    1
    15     8    13    1
    16     9    10    1
    17     9    12    1
    18    10    11    1
    19    10     5    1
    20    12    14    1
    21     5     4    1
    22     4     1    1
    23     1     2    2
    24     1     3    1
    25     1    24    1
    26    24    25    1
    27    25    26    2
    28    25    27    1
    29    25    28    1
    30    28    29    1
    31    29    30    1
    32    29    37    1
    33    30    31    1
    34    30    34    1
    35    31    32    1
    36    31    35    1
    37    32    33    1
    38    32    36    1
    39    33    41    1
    40    33    37    1
    41    41    42    1
    42    34    38    1
    43    35    39    1
    44    36    40    1
    45    42    43    1
@<TRIPOS>MOLECULE
GDU
 43 45 0 0 0
SMALL
GASTEIGER

@<TRIPOS>ATOM
      1 P          22.3347   72.9793   -1.4969 P.3     1  UNL1        0.2189
      2 O          23.1612   71.7719   -1.2767 O.2     1  UNL1       -0.5170
      3 O          23.2917   74.2670   -1.6338 O.3     1  UNL1       -0.4371
      4 O          21.4756   72.8034   -2.8452 O.3     1  UNL1       -0.3112
      5 C          21.4965   71.4127   -3.1708 C.3     1  UNL1        0.1811
      6 C          20.4367   71.1816   -6.5987 C.3     1  UNL1        0.2383
      7 C          20.7722   72.6813   -6.3954 C.3     1  UNL1        0.1895
      8 O          21.2420   73.2681   -7.6112 O.3     1  UNL1       -0.3779
      9 C          21.9042   72.6204   -5.3371 C.3     1  UNL1        0.1713
     10 C          21.7229   71.2423   -4.6740 C.3     1  UNL1        0.1764
     11 O          20.5718   70.6236   -5.2744 O.3     1  UNL1       -0.3308
     12 O          23.1831   72.7154   -5.9674 O.3     1  UNL1       -0.3794
     13 H          21.4317   74.1967   -7.4175 H       1  UNL1        0.2106
     14 H          23.2126   73.5728   -6.4132 H       1  UNL1        0.2105
     15 N          19.0672   71.0192   -7.0896 N.ar    1  UNL1       -0.2551
     16 C          18.8429   70.8876   -8.4089 C.ar    1  UNL1        0.3323
     17 N          17.5937   70.7333   -8.8860 N.ar    1  UNL1       -0.2743
     18 C          16.5417   70.7181   -8.0450 C.ar    1  UNL1        0.2626
     19 C          16.7623   70.8614   -6.6532 C.ar    1  UNL1        0.0795
     20 C          18.0256   71.0104   -6.2012 C.ar    1  UNL1        0.0869
     21 O          19.7819   70.8989   -9.1797 O.2     1  UNL1       -0.2464
     22 O          15.4102   70.5834   -8.4762 O.2     1  UNL1       -0.2670
     23 H          17.4506   70.6355   -9.8408 H       1  UNL1        0.1734
     24 O          21.3395   73.1824   -0.2476 O.3     1  UNL1       -0.2703
     25 P          21.7643   72.1028    0.8677 P.3     1  UNL1        0.2208
     26 O          20.6901   71.9898    1.8789 O.2     1  UNL1       -0.5170
     27 O          21.9944   70.6706    0.1676 O.3     1  UNL1       -0.4371
     28 O          23.1272   72.5749    1.5816 O.3     1  UNL1       -0.2858
     29 C          22.9644   73.9538    1.9159 C.3     1  UNL1        0.2704
     30 C          24.3234   74.6537    1.8657 C.3     1  UNL1        0.1967
     31 C          25.2746   73.9670    2.8507 C.3     1  UNL1        0.1715
     32 C          24.6092   73.9325    4.2312 C.3     1  UNL1        0.1694
     33 C          23.2283   73.2849    4.1021 C.3     1  UNL1        0.1761
     34 O          24.8575   74.5678    0.5434 O.3     1  UNL1       -0.3775
     35 O          26.5001   74.6986    2.9239 O.3     1  UNL1       -0.3794
     36 O          24.4732   75.2641    4.7295 O.3     1  UNL1       -0.3794
     37 O          22.4125   74.0614    3.2260 O.3     1  UNL1       -0.3258
     38 H          24.2245   75.0052   -0.0422 H       1  UNL1        0.2106
     39 H          26.8760   74.7047    2.0345 H       1  UNL1        0.2105
     40 H          25.3640   75.6332    4.7886 H       1  UNL1        0.2105
     41 C          22.5690   73.2143    5.4813 C.3     1  UNL1        0.1693
     42 O          21.1746   73.4989    5.3570 O.3     1  UNL1       -0.3794
     43 H          20.7973   73.4436    6.2457 H       1  UNL1        0.2105
@<TRIPOS>BOND
     1    15    16   ar
     2    15    20   ar
     3    15     6    1
     4    16    17   ar
     5    16    21    2
     6    17    18   ar
     7    17    23    1
     8    18    19   ar
     9    18    22    2
    10    19    20   ar
    11     6     7    1
    12     6    11    1
    13     7     8    1
    14     7     9    1
    15     8    13    1
    16     9    10    1
    17     9    12    1
    18    10    11    1
    19    10     5    1
    20    12    14    1
    21     5     4    1
    22     4     1    1
    23     1     2    2
    24     1     3    1
    25     1    24    1
    26    24    25    1
    27    25    26    2
    28    25    27    1
    29    25    28    1
    30    28    29    1
    31    29    30    1
    32    29    37    1
    33    30    31    1
    34    30    34    1
    35    31    32    1
    36    31    35    1
    37    32    33    1
    38    32    36    1
    39    33    41    1
    40    33    37    1
    41    41    42    1
    42    34    38    1
    43    35    39    1
    44    36    40    1
    45    42    43    1
@<TRIPOS>MOLECULE
GDU
 43 45 0 0 0
SMALL
GASTEIGER

@<TRIPOS>ATOM
      1 P          22.7861   72.2273   -1.3024 P.3     1  UNL1        0.2189
      2 O          23.2499   72.4715   -2.6862 O.2     1  UNL1       -0.5170
      3 O          22.9750   73.5668   -0.4290 O.3     1  UNL1       -0.4371
      4 O          21.2318   71.8142   -1.3220 O.3     1  UNL1       -0.3112
      5 C          21.0237   71.0424   -2.5059 C.3     1  UNL1        0.1811
      6 C          18.2823   70.8222   -4.8219 C.3     1  UNL1        0.2383
      7 C          18.3892   69.4022   -4.2094 C.3     1  UNL1        0.1895
      8 O          17.1077   68.7711   -4.1585 O.3     1  UNL1       -0.3779
      9 C          18.9147   69.7030   -2.7815 C.3     1  UNL1        0.1713
     10 C          19.5475   71.1018   -2.9026 C.3     1  UNL1        0.1764
     11 O          19.4268   71.5117   -4.2757 O.3     1  UNL1       -0.3308
     12 O          17.8361   69.7139   -1.8443 O.3     1  UNL1       -0.3794
     13 H          17.2432   67.8957   -3.7696 H       1  UNL1        0.2106
     14 H          17.4446   68.8300   -1.8575 H       1  UNL1        0.2105
     15 N          18.3639   70.7638   -6.2823 N.ar    1  UNL1       -0.2551
     16 C          19.5585   70.5989   -6.8774 C.ar    1  UNL1        0.3323
     17 N          19.6606   70.5384   -8.2182 N.ar    1  UNL1       -0.2743
     18 C          18.5624   70.6527   -8.9896 C.ar    1  UNL1        0.2626
     19 C          17.2981   70.8325   -8.3768 C.ar    1  UNL1        0.0795
     20 C          17.2236   70.8854   -7.0299 C.ar    1  UNL1        0.0869
     21 O          20.5579   70.4939   -6.1946 O.2     1  UNL1       -0.2464
     22 O          18.6544   70.6028  -10.2035 O.2     1  UNL1       -0.2670
     23 H          20.5302   70.4147   -8.6307 H       1  UNL1        0.1734
     24 O          23.6511   71.0363   -0.6499 O.3     1  UNL1       -0.2703
     25 P          23.1758   70.8995    0.8816 P.3     1  UNL1        0.2208
     26 O          21.8829   70.1821    0.9344 O.2     1  UNL1       -0.5170
     27 O          24.2807   70.0751    1.7145 O.3     1  UNL1       -0.4371
     28 O          23.0042   72.3649    1.5244 O.3     1  UNL1       -0.2858
     29 C          23.0145   72.1995    2.9430 C.3     1  UNL1        0.2704
     30 C          21.7328   72.7891    3.5336 C.3     1  UNL1        0.1967
     31 C          21.6494   74.2730    3.1626 C.3     1  UNL1        0.1715
     32 C          22.9467   74.9615    3.6015 C.3     1  UNL1        0.1694
     33 C          24.1372   74.2076    3.0036 C.3     1  UNL1        0.1761
     34 O          20.5999   72.0976    3.0048 O.3     1  UNL1       -0.3775
     35 O          20.5359   74.8725    3.8283 O.3     1  UNL1       -0.3794
     36 O          23.0350   74.9501    5.0270 O.3     1  UNL1       -0.3794
     37 O          24.1504   72.8660    3.4891 O.3     1  UNL1       -0.3258
     38 H          20.6978   71.1690    3.2556 H       1  UNL1        0.2106
     39 H          19.7464   74.4019    3.5323 H       1  UNL1        0.2105
     40 H          22.2646   75.4293    5.3590 H       1  UNL1        0.2105
     41 C          25.4368   74.9074    3.4078 C.3     1  UNL1        0.1693
     42 O          25.9076   74.3606    4.6408 O.3     1  UNL1       -0.3794
     43 H          26.7262   74.8268    4.8593 H       1  UNL1        0.2105
@<TRIPOS>BOND
     1    15    16   ar
     2    15    20   ar
     3    15     6    1
     4    16    17   ar
     5    16    21    2
     6    17    18   ar
     7    17    23    1
     8    18    19   ar
     9    18    22    2
    10    19    20   ar
    11     6     7    1
    12     6    11    1
    13     7     8    1
    14     7     9    1
    15     8    13    1
    16     9    10    1
    17     9    12    1
    18    10    11    1
    19    10     5    1
    20    12    14    1
    21     5     4    1
    22     4     1    1
    23     1     2    2
    24     1     3    1
    25     1    24    1
    26    24    25    1
    27    25    26    2
    28    25    27    1
    29    25    28    1
    30    28    29    1
    31    29    30    1
    32    29    37    1
    33    30    31    1
    34    30    34    1
    35    31    32    1
    36    31    35    1
    37    32    33    1
    38    32    36    1
    39    33    41    1
    40    33    37    1
    41    41    42    1
    42    34    38    1
    43    35    39    1
    44    36    40    1
    45    42    43    1
@<TRIPOS>MOLECULE
GDU
 43 45 0 0 0
SMALL
GASTEIGER

@<TRIPOS>ATOM
      1 P          23.2353   73.2072   -4.5512 P.3     1  UNL1        0.2189
      2 O          24.6001   73.1069   -3.9883 O.2     1  UNL1       -0.5170
      3 O          22.9840   74.7054   -5.0852 O.3     1  UNL1       -0.4371
      4 O          23.0796   72.1698   -5.7704 O.3     1  UNL1       -0.3112
      5 C          21.7873   72.3893   -6.3380 C.3     1  UNL1        0.1811
      6 C          18.8334   70.4660   -5.6289 C.3     1  UNL1        0.2383
      7 C          18.7076   70.8334   -7.1296 C.3     1  UNL1        0.1895
      8 O          18.0002   69.8183   -7.8454 O.3     1  UNL1       -0.3779
      9 C          20.1919   70.8921   -7.5753 C.3     1  UNL1        0.1713
     10 C          20.9691   71.0990   -6.2620 C.3     1  UNL1        0.1764
     11 O          20.0034   71.1949   -5.2006 O.3     1  UNL1       -0.3308
     12 O          20.5740   69.6665   -8.2028 O.3     1  UNL1       -0.3794
     13 H          17.9565   70.1066   -8.7678 H       1  UNL1        0.2106
     14 H          20.0131   69.5649   -8.9836 H       1  UNL1        0.2105
     15 N          17.6510   70.9066   -4.8868 N.ar    1  UNL1       -0.2551
     16 C          16.8246   69.9938   -4.3462 C.ar    1  UNL1        0.3323
     17 N          15.7326   70.3724   -3.6562 N.ar    1  UNL1       -0.2743
     18 C          15.4436   71.6791   -3.5041 C.ar    1  UNL1        0.2626
     19 C          16.3020   72.6517   -4.0729 C.ar    1  UNL1        0.0795
     20 C          17.3927   72.2446   -4.7564 C.ar    1  UNL1        0.0869
     21 O          17.0725   68.8114   -4.4748 O.2     1  UNL1       -0.2464
     22 O          14.4528   72.0227   -2.8837 O.2     1  UNL1       -0.2670
     23 H          15.1495   69.7001   -3.2692 H       1  UNL1        0.1734
     24 O          22.1571   72.8588   -3.4073 O.3     1  UNL1       -0.2703
     25 P          22.7531   71.6238   -2.5649 P.3     1  UNL1        0.2208
     26 O          21.7421   70.5463   -2.4874 O.2     1  UNL1       -0.5170
     27 O          24.0764   71.0660   -3.2942 O.3     1  UNL1       -0.4371
     28 O          23.1280   72.1172   -1.0796 O.3     1  UNL1       -0.2858
     29 C          22.5054   71.2081   -0.1709 C.3     1  UNL1        0.2704
     30 C          21.4388   71.9476    0.6384 C.3     1  UNL1        0.1967
     31 C          22.1001   73.1026    1.3968 C.3     1  UNL1        0.1715
     32 C          23.2701   72.5451    2.2153 C.3     1  UNL1        0.1694
     33 C          24.1995   71.7614    1.2853 C.3     1  UNL1        0.1761
     34 O          20.4398   72.4621   -0.2439 O.3     1  UNL1       -0.3775
     35 O          21.1468   73.7115    2.2703 O.3     1  UNL1       -0.3794
     36 O          22.7698   71.6817    3.2372 O.3     1  UNL1       -0.3794
     37 O          23.4902   70.6669    0.7066 O.3     1  UNL1       -0.3258
     38 H          20.0564   71.7032   -0.7042 H       1  UNL1        0.2106
     39 H          20.4261   74.0358    1.7157 H       1  UNL1        0.2105
     40 H          22.1869   72.2148    3.7934 H       1  UNL1        0.2105
     41 C          25.3897   71.2292    2.0866 C.3     1  UNL1        0.1693
     42 O          25.0519   69.9629    2.6553 O.3     1  UNL1       -0.3794
     43 H          25.8267   69.6626    3.1501 H       1  UNL1        0.2105
@<TRIPOS>BOND
     1    15    16   ar
     2    15    20   ar
     3    15     6    1
     4    16    17   ar
     5    16    21    2
     6    17    18   ar
     7    17    23    1
     8    18    19   ar
     9    18    22    2
    10    19    20   ar
    11     6     7    1
    12     6    11    1
    13     7     8    1
    14     7     9    1
    15     8    13    1
    16     9    10    1
    17     9    12    1
    18    10    11    1
    19    10     5    1
    20    12    14    1
    21     5     4    1
    22     4     1    1
    23     1     2    2
    24     1     3    1
    25     1    24    1
    26    24    25    1
    27    25    26    2
    28    25    27    1
    29    25    28    1
    30    28    29    1
    31    29    30    1
    32    29    37    1
    33    30    31    1
    34    30    34    1
    35    31    32    1
    36    31    35    1
    37    32    33    1
    38    32    36    1
    39    33    41    1
    40    33    37    1
    41    41    42    1
    42    34    38    1
    43    35    39    1
    44    36    40    1
    45    42    43    1
@<TRIPOS>MOLECULE
GDU
 43 45 0 0 0
SMALL
GASTEIGER

@<TRIPOS>ATOM
      1 P          22.8113   70.9307    0.5559 P.3     1  UNL1        0.2189
      2 O          24.0758   70.3039    1.0005 O.2     1  UNL1       -0.5170
      3 O          21.5647   70.0732    1.1069 O.3     1  UNL1       -0.4371
      4 O          22.7254   72.4313    1.1285 O.3     1  UNL1       -0.3112
      5 C          23.5428   72.4749    2.2991 C.3     1  UNL1        0.1811
      6 C          22.4374   73.5009    5.5630 C.3     1  UNL1        0.2383
      7 C          21.5262   74.2805    4.5807 C.3     1  UNL1        0.1895
      8 O          20.2376   74.5113    5.1546 O.3     1  UNL1       -0.3779
      9 C          21.4303   73.3025    3.3808 C.3     1  UNL1        0.1713
     10 C          22.6585   72.3880    3.5443 C.3     1  UNL1        0.1764
     11 O          23.3883   72.8484    4.6948 O.3     1  UNL1       -0.3308
     12 O          20.2210   72.5445    3.4496 O.3     1  UNL1       -0.3794
     13 H          19.7223   74.9981    4.4963 H       1  UNL1        0.2106
     14 H          19.4911   73.1766    3.4015 H       1  UNL1        0.2105
     15 N          23.1190   74.4191    6.4769 N.ar    1  UNL1       -0.2551
     16 C          22.5217   74.7820    7.6258 C.ar    1  UNL1        0.3323
     17 N          23.1282   75.6221    8.4850 N.ar    1  UNL1       -0.2743
     18 C          24.3459   76.1230    8.2011 C.ar    1  UNL1        0.2626
     19 C          24.9846   75.7540    6.9919 C.ar    1  UNL1        0.0795
     20 C          24.3558   74.9065    6.1500 C.ar    1  UNL1        0.0869
     21 O          21.4235   74.3380    7.8957 O.2     1  UNL1       -0.2464
     22 O          24.8936   76.8872    8.9761 O.2     1  UNL1       -0.2670
     23 H          22.6843   75.8700    9.3117 H       1  UNL1        0.1734
     24 O          22.7675   70.9656   -1.0532 O.3     1  UNL1       -0.2703
     25 P          21.2861   71.4368   -1.4696 P.3     1  UNL1        0.2208
     26 O          20.2910   70.7348   -0.6293 O.2     1  UNL1       -0.5170
     27 O          21.1472   73.0263   -1.2500 O.3     1  UNL1       -0.4371
     28 O          21.0255   71.0855   -3.0184 O.3     1  UNL1       -0.2858
     29 C          20.1313   72.0776   -3.5241 C.3     1  UNL1        0.2704
     30 C          18.7745   71.4368   -3.8201 C.3     1  UNL1        0.1967
     31 C          18.9668   70.3111   -4.8411 C.3     1  UNL1        0.1715
     32 C          19.7012   70.8770   -6.0618 C.3     1  UNL1        0.1694
     33 C          20.9897   71.5591   -5.5955 C.3     1  UNL1        0.1761
     34 O          18.2242   70.9027   -2.6146 O.3     1  UNL1       -0.3775
     35 O          17.6926   69.8004   -5.2384 O.3     1  UNL1       -0.3794
     36 O          18.8651   71.8265   -6.7246 O.3     1  UNL1       -0.3794
     37 O          20.6725   72.6385   -4.7179 O.3     1  UNL1       -0.3258
     38 H          18.1273   71.6430   -2.0003 H       1  UNL1        0.2106
     39 H          17.2632   69.4675   -4.4403 H       1  UNL1        0.2105
     40 H          18.0660   71.3555   -6.9946 H       1  UNL1        0.2105
     41 C          21.7480   72.0979   -6.8107 C.3     1  UNL1        0.1693
     42 O          23.1195   72.2985   -6.4646 O.3     1  UNL1       -0.3794
     43 H          23.5612   72.6369   -7.2557 H       1  UNL1        0.2105
@<TRIPOS>BOND
     1    15    16   ar
     2    15    20   ar
     3    15     6    1
     4    16    17   ar
     5    16    21    2
     6    17    18   ar
     7    17    23    1
     8    18    19   ar
     9    18    22    2
    10    19    20   ar
    11     6     7    1
    12     6    11    1
    13     7     8    1
    14     7     9    1
    15     8    13    1
    16     9    10    1
    17     9    12    1
    18    10    11    1
    19    10     5    1
    20    12    14    1
    21     5     4    1
    22     4     1    1
    23     1     2    2
    24     1     3    1
    25     1    24    1
    26    24    25    1
    27    25    26    2
    28    25    27    1
    29    25    28    1
    30    28    29    1
    31    29    30    1
    32    29    37    1
    33    30    31    1
    34    30    34    1
    35    31    32    1
    36    31    35    1
    37    32    33    1
    38    32    36    1
    39    33    41    1
    40    33    37    1
    41    41    42    1
    42    34    38    1
    43    35    39    1
    44    36    40    1
    45    42    43    1
@<TRIPOS>MOLECULE
GDU
 43 45 0 0 0
SMALL
GASTEIGER

@<TRIPOS>ATOM
      1 P          21.8047   72.2796   -6.2456 P.3     1  UNL1        0.2189
      2 O          23.1570   72.7285   -6.6451 O.2     1  UNL1       -0.5170
      3 O          20.7340   73.4328   -6.5871 O.3     1  UNL1       -0.4371
      4 O          21.4245   70.9393   -7.0493 O.3     1  UNL1       -0.3112
      5 C          20.5514   71.3272   -8.1112 C.3     1  UNL1        0.1811
      6 C          17.3843   70.1291   -6.9023 C.3     1  UNL1        0.2383
      7 C          17.0169   71.1683   -7.9922 C.3     1  UNL1        0.1895
      8 O          15.7873   70.8216   -8.6335 O.3     1  UNL1       -0.3779
      9 C          18.2088   71.0421   -8.9764 C.3     1  UNL1        0.1713
     10 C          19.3282   70.4088   -8.1294 C.3     1  UNL1        0.1764
     11 O          18.8189   70.2472   -6.7942 O.3     1  UNL1       -0.3308
     12 O          17.8628   70.1951  -10.0741 O.3     1  UNL1       -0.3794
     13 H          15.6165   71.5046   -9.2969 H       1  UNL1        0.2106
     14 H          17.1203   70.6152  -10.5288 H       1  UNL1        0.2105
     15 N          16.7420   70.4637   -5.6301 N.ar    1  UNL1       -0.2551
     16 C          16.4146   69.4830   -4.7702 C.ar    1  UNL1        0.3323
     17 N          15.8264   69.7639   -3.5925 N.ar    1  UNL1       -0.2743
     18 C          15.5460   71.0385   -3.2593 C.ar    1  UNL1        0.2626
     19 C          15.8800   72.0813   -4.1578 C.ar    1  UNL1        0.0795
     20 C          16.4731   71.7721   -5.3304 C.ar    1  UNL1        0.0869
     21 O          16.6617   68.3285   -5.0567 O.2     1  UNL1       -0.2464
     22 O          15.0093   71.2933   -2.1956 O.2     1  UNL1       -0.2670
     23 H          15.6009   69.0440   -2.9821 H       1  UNL1        0.1734
     24 O          21.7847   71.9821   -4.6634 O.3     1  UNL1       -0.2703
     25 P          22.8637   72.9679   -3.9895 P.3     1  UNL1        0.2208
     26 O          24.2269   72.4463   -4.2319 O.2     1  UNL1       -0.5170
     27 O          22.7280   74.4357   -4.6384 O.3     1  UNL1       -0.4371
     28 O          22.5956   73.0561   -2.4051 O.3     1  UNL1       -0.2858
     29 C          22.0004   71.8177   -2.0153 C.3     1  UNL1        0.2704
     30 C          20.6278   72.0853   -1.3959 C.3     1  UNL1        0.1967
     31 C          20.7984   73.0081   -0.1852 C.3     1  UNL1        0.1715
     32 C          21.8317   72.3878    0.7619 C.3     1  UNL1        0.1694
     33 C          23.1147   72.0990   -0.0214 C.3     1  UNL1        0.1761
     34 O          19.7808   72.7114   -2.3613 O.3     1  UNL1       -0.3775
     35 O          19.5473   73.1490    0.4911 O.3     1  UNL1       -0.3794
     36 O          21.3136   71.1724    1.3045 O.3     1  UNL1       -0.3794
     37 O          22.8412   71.1663   -1.0660 O.3     1  UNL1       -0.3258
     38 H          19.7077   72.0998   -3.1066 H       1  UNL1        0.2106
     39 H          18.9274   73.5300   -0.1436 H       1  UNL1        0.2105
     40 H          20.5059   71.4013    1.7826 H       1  UNL1        0.2105
     41 C          24.1654   71.5108    0.9231 C.3     1  UNL1        0.1693
     42 O          23.8358   70.1514    1.2136 O.3     1  UNL1       -0.3794
     43 H          24.5211   69.8185    1.8093 H       1  UNL1        0.2105
@<TRIPOS>BOND
     1    15    16   ar
     2    15    20   ar
     3    15     6    1
     4    16    17   ar
     5    16    21    2
     6    17    18   ar
     7    17    23    1
     8    18    19   ar
     9    18    22    2
    10    19    20   ar
    11     6     7    1
    12     6    11    1
    13     7     8    1
    14     7     9    1
    15     8    13    1
    16     9    10    1
    17     9    12    1
    18    10    11    1
    19    10     5    1
    20    12    14    1
    21     5     4    1
    22     4     1    1
    23     1     2    2
    24     1     3    1
    25     1    24    1
    26    24    25    1
    27    25    26    2
    28    25    27    1
    29    25    28    1
    30    28    29    1
    31    29    30    1
    32    29    37    1
    33    30    31    1
    34    30    34    1
    35    31    32    1
    36    31    35    1
    37    32    33    1
    38    32    36    1
    39    33    41    1
    40    33    37    1
    41    41    42    1
    42    34    38    1
    43    35    39    1
    44    36    40    1
    45    42    43    1
@<TRIPOS>MOLECULE
GDU
 43 45 0 0 0
SMALL
GASTEIGER

@<TRIPOS>ATOM
      1 P          21.2031   73.0722   -4.2784 P.3     1  UNL1        0.2189
      2 O          21.4251   71.8115   -3.5361 O.2     1  UNL1       -0.5170
      3 O          21.4388   72.8175   -5.8508 O.3     1  UNL1       -0.4371
      4 O          19.6961   73.5794   -4.0369 O.3     1  UNL1       -0.3112
      5 C          19.0564   72.6002   -3.2167 C.3     1  UNL1        0.1811
      6 C          17.4206   70.9848   -5.9811 C.3     1  UNL1        0.2383
      7 C          17.7803   69.8292   -5.0126 C.3     1  UNL1        0.1895
      8 O          16.8261   68.7691   -5.1069 O.3     1  UNL1       -0.3779
      9 C          17.6974   70.5265   -3.6298 C.3     1  UNL1        0.1713
     10 C          17.8476   72.0240   -3.9562 C.3     1  UNL1        0.1764
     11 O          18.0440   72.1376   -5.3763 O.3     1  UNL1       -0.3308
     12 O          16.4347   70.2660   -3.0138 O.3     1  UNL1       -0.3794
     13 H          17.1063   68.0853   -4.4827 H       1  UNL1        0.2106
     14 H          16.3758   69.3091   -2.8895 H       1  UNL1        0.2105
     15 N          17.9765   70.7368   -7.3124 N.ar    1  UNL1       -0.2551
     16 C          17.1494   70.5351   -8.3534 C.ar    1  UNL1        0.3323
     17 N          17.6347   70.3085   -9.5883 N.ar    1  UNL1       -0.2743
     18 C          18.9644   70.2703   -9.8000 C.ar    1  UNL1        0.2626
     19 C          19.8476   70.4753   -8.7118 C.ar    1  UNL1        0.0795
     20 C          19.3342   70.7048   -7.4845 C.ar    1  UNL1        0.0869
     21 O          15.9477   70.5672   -8.1780 O.2     1  UNL1       -0.2464
     22 O          19.4046   70.0605  -10.9165 O.2     1  UNL1       -0.2670
     23 H          17.0232   70.1693  -10.3289 H       1  UNL1        0.1734
     24 O          22.2372   74.1904   -3.7564 O.3     1  UNL1       -0.2703
     25 P          23.4812   73.4065   -3.1020 P.3     1  UNL1        0.2208
     26 O          24.1439   72.5823   -4.1367 O.2     1  UNL1       -0.5170
     27 O          24.5342   74.4713   -2.5090 O.3     1  UNL1       -0.4371
     28 O          22.9538   72.4569   -1.9146 O.3     1  UNL1       -0.2858
     29 C          23.3439   73.0728   -0.6864 C.3     1  UNL1        0.2704
     30 C          23.4376   72.0095    0.4091 C.3     1  UNL1        0.1967
     31 C          22.0756   71.3241    0.5564 C.3     1  UNL1        0.1715
     32 C          21.0073   72.4000    0.7813 C.3     1  UNL1        0.1694
     33 C          21.0967   73.4333   -0.3444 C.3     1  UNL1        0.1761
     34 O          24.4263   71.0415    0.0533 O.3     1  UNL1       -0.3775
     35 O          22.1051   70.4325    1.6730 O.3     1  UNL1       -0.3794
     36 O          21.2287   73.0374    2.0402 O.3     1  UNL1       -0.3794
     37 O          22.3794   74.0580   -0.3236 O.3     1  UNL1       -0.3258
     38 H          25.2633   71.5174   -0.0356 H       1  UNL1        0.2106
     39 H          22.7966   69.7828    1.4941 H       1  UNL1        0.2105
     40 H          21.1690   72.3500    2.7163 H       1  UNL1        0.2105
     41 C          20.0113   74.4941   -0.1481 C.3     1  UNL1        0.1693
     42 O          18.9888   73.9761    0.7046 O.3     1  UNL1       -0.3794
     43 H          18.3265   74.6738    0.8032 H       1  UNL1        0.2105
@<TRIPOS>BOND
     1    15    16   ar
     2    15    20   ar
     3    15     6    1
     4    16    17   ar
     5    16    21    2
     6    17    18   ar
     7    17    23    1
     8    18    19   ar
     9    18    22    2
    10    19    20   ar
    11     6     7    1
    12     6    11    1
    13     7     8    1
    14     7     9    1
    15     8    13    1
    16     9    10    1
    17     9    12    1
    18    10    11    1
    19    10     5    1
    20    12    14    1
    21     5     4    1
    22     4     1    1
    23     1     2    2
    24     1     3    1
    25     1    24    1
    26    24    25    1
    27    25    26    2
    28    25    27    1
    29    25    28    1
    30    28    29    1
    31    29    30    1
    32    29    37    1
    33    30    31    1
    34    30    34    1
    35    31    32    1
    36    31    35    1
    37    32    33    1
    38    32    36    1
    39    33    41    1
    40    33    37    1
    41    41    42    1
    42    34    38    1
    43    35    39    1
    44    36    40    1
    45    42    43    1
@<TRIPOS>MOLECULE
GDU
 43 45 0 0 0
SMALL
GASTEIGER

@<TRIPOS>ATOM
      1 P          20.0458   71.1522   -1.9020 P.3     1  UNL1        0.2189
      2 O          20.3721   70.7776   -0.5082 O.2     1  UNL1       -0.5170
      3 O          21.2021   70.6163   -2.8863 O.3     1  UNL1       -0.4371
      4 O          18.6385   70.4948   -2.3195 O.3     1  UNL1       -0.3112
      5 C          17.7528   71.5729   -2.6256 C.3     1  UNL1        0.1811
      6 C          16.6804   70.4803   -5.8788 C.3     1  UNL1        0.2383
      7 C          16.9698   69.1693   -5.1039 C.3     1  UNL1        0.1895
      8 O          16.1202   68.1121   -5.5551 O.3     1  UNL1       -0.3779
      9 C          16.6262   69.5711   -3.6459 C.3     1  UNL1        0.1713
     10 C          16.7162   71.1084   -3.6502 C.3     1  UNL1        0.1764
     11 O          17.1191   71.5126   -4.9702 O.3     1  UNL1       -0.3308
     12 O          15.3060   69.1415   -3.3073 O.3     1  UNL1       -0.3794
     13 H          16.3501   67.3288   -5.0360 H       1  UNL1        0.2106
     14 H          15.2979   68.1775   -3.3799 H       1  UNL1        0.2105
     15 N          17.4499   70.5272   -7.1231 N.ar    1  UNL1       -0.2551
     16 C          16.8072   70.5660   -8.3036 C.ar    1  UNL1        0.3323
     17 N          17.4910   70.6130   -9.4621 N.ar    1  UNL1       -0.2743
     18 C          18.8379   70.6120   -9.4572 C.ar    1  UNL1        0.2626
     19 C          19.5284   70.5656   -8.2213 C.ar    1  UNL1        0.0795
     20 C          18.8180   70.5232   -7.0741 C.ar    1  UNL1        0.0869
     21 O          15.5924   70.5679   -8.3240 O.2     1  UNL1       -0.2464
     22 O          19.4578   70.6497  -10.5054 O.2     1  UNL1       -0.2670
     23 H          17.0108   70.6449  -10.3048 H       1  UNL1        0.1734
     24 O          19.9459   72.7551   -2.0165 O.3     1  UNL1       -0.2703
     25 P          21.3444   73.3489   -1.4860 P.3     1  UNL1        0.2208
     26 O          22.3793   73.1806   -2.5299 O.2     1  UNL1       -0.5170
     27 O          21.1699   74.9148   -1.1516 O.3     1  UNL1       -0.4371
     28 O          21.7914   72.5636   -0.1542 O.3     1  UNL1       -0.2858
     29 C          23.1106   73.0073    0.1660 C.3     1  UNL1        0.2704
     30 C          24.0395   71.7981    0.2853 C.3     1  UNL1        0.1967
     31 C          23.5040   70.8634    1.3744 C.3     1  UNL1        0.1715
     32 C          23.3153   71.6707    2.6637 C.3     1  UNL1        0.1694
     33 C          22.4389   72.8894    2.3641 C.3     1  UNL1        0.1761
     34 O          24.0850   71.1045   -0.9629 O.3     1  UNL1       -0.3775
     35 O          24.4372   69.8048    1.6001 O.3     1  UNL1       -0.3794
     36 O          24.5881   72.0993    3.1497 O.3     1  UNL1       -0.3794
     37 O          23.0837   73.7207    1.4001 O.3     1  UNL1       -0.3258
     38 H          24.4202   71.7314   -1.6183 H       1  UNL1        0.2106
     39 H          24.5335   69.3335    0.7630 H       1  UNL1        0.2105
     40 H          25.1062   71.3016    3.3187 H       1  UNL1        0.2105
     41 C          22.2158   73.6842    3.6527 C.3     1  UNL1        0.1693
     42 O          22.0006   72.7801    4.7377 O.3     1  UNL1       -0.3794
     43 H          21.8653   73.3196    5.5289 H       1  UNL1        0.2105
@<TRIPOS>BOND
     1    15    16   ar
     2    15    20   ar
     3    15     6    1
     4    16    17   ar
     5    16    21    2
     6    17    18   ar
     7    17    23    1
     8    18    19   ar
     9    18    22    2
    10    19    20   ar
    11     6     7    1
    12     6    11    1
    13     7     8    1
    14     7     9    1
    15     8    13    1
    16     9    10    1
    17     9    12    1
    18    10    11    1
    19    10     5    1
    20    12    14    1
    21     5     4    1
    22     4     1    1
    23     1     2    2
    24     1     3    1
    25     1    24    1
    26    24    25    1
    27    25    26    2
    28    25    27    1
    29    25    28    1
    30    28    29    1
    31    29    30    1
    32    29    37    1
    33    30    31    1
    34    30    34    1
    35    31    32    1
    36    31    35    1
    37    32    33    1
    38    32    36    1
    39    33    41    1
    40    33    37    1
    41    41    42    1
    42    34    38    1
    43    35    39    1
    44    36    40    1
    45    42    43    1
@<TRIPOS>MOLECULE
GDU
 43 45 0 0 0
SMALL
GASTEIGER

@<TRIPOS>ATOM
      1 P          15.6803   69.9904   -2.8257 P.3     1  UNL1        0.2189
      2 O          15.8214   68.9834   -3.9006 O.2     1  UNL1       -0.5170
      3 O          15.5698   71.4588   -3.4773 O.3     1  UNL1       -0.4371
      4 O          14.3533   69.6814   -1.9711 O.3     1  UNL1       -0.3112
      5 C          14.7843   69.1988   -0.6976 C.3     1  UNL1        0.1811
      6 C          11.5517   67.8151    0.0528 C.3     1  UNL1        0.2383
      7 C          12.5583   66.7650    0.5884 C.3     1  UNL1        0.1895
      8 O          12.0226   66.0763    1.7207 O.3     1  UNL1       -0.3779
      9 C          13.7638   67.6502    0.9989 C.3     1  UNL1        0.1713
     10 C          13.5665   68.9479    0.1935 C.3     1  UNL1        0.1764
     11 O          12.3931   68.7758   -0.6200 O.3     1  UNL1       -0.3308
     12 O          13.7338   67.9154    2.4028 O.3     1  UNL1       -0.3794
     13 H          12.6945   65.4404    2.0038 H       1  UNL1        0.2106
     14 H          13.8016   67.0612    2.8506 H       1  UNL1        0.2105
     15 N          10.6148   67.2009   -0.8894 N.ar    1  UNL1       -0.2551
     16 C           9.7713   67.9771   -1.5926 C.ar    1  UNL1        0.3323
     17 N           8.9024   67.4379   -2.4680 N.ar    1  UNL1       -0.2743
     18 C           8.8573   66.1037   -2.6469 C.ar    1  UNL1        0.2626
     19 C           9.7358   65.2732   -1.9088 C.ar    1  UNL1        0.0795
     20 C          10.6002   65.8404   -1.0406 C.ar    1  UNL1        0.0869
     21 O           9.8007   69.1823   -1.4423 O.2     1  UNL1       -0.2464
     22 O           8.0679   65.6143   -3.4355 O.2     1  UNL1       -0.2670
     23 H           8.3039   68.0134   -2.9702 H       1  UNL1        0.1734
     24 O          16.9680   69.9284   -1.8611 O.3     1  UNL1       -0.2703
     25 P          18.2565   69.7717   -2.8124 P.3     1  UNL1        0.2208
     26 O          19.4831   70.0374   -2.0289 O.2     1  UNL1       -0.5170
     27 O          18.3101   68.2731   -3.4004 O.3     1  UNL1       -0.4371
     28 O          18.1577   70.8208   -4.0288 O.3     1  UNL1       -0.2858
     29 C          18.8663   70.2486   -5.1289 C.3     1  UNL1        0.2704
     30 C          20.0165   71.1735   -5.5301 C.3     1  UNL1        0.1967
     31 C          19.4457   72.5438   -5.9083 C.3     1  UNL1        0.1715
     32 C          18.3644   72.3463   -6.9767 C.3     1  UNL1        0.1694
     33 C          17.3377   71.3332   -6.4644 C.3     1  UNL1        0.1761
     34 O          20.9208   71.3162   -4.4333 O.3     1  UNL1       -0.3775
     35 O          20.4891   73.3725   -6.4251 O.3     1  UNL1       -0.3794
     36 O          18.9635   71.8606   -8.1788 O.3     1  UNL1       -0.3794
     37 O          17.9755   70.0787   -6.2290 O.3     1  UNL1       -0.3258
     38 H          21.2490   70.4308   -4.2253 H       1  UNL1        0.2106
     39 H          21.1498   73.4591   -5.7264 H       1  UNL1        0.2105
     40 H          19.6049   72.5258   -8.4605 H       1  UNL1        0.2105
     41 C          16.2347   71.1544   -7.5100 C.3     1  UNL1        0.1693
     42 O          16.7433   70.4040   -8.6142 O.3     1  UNL1       -0.3794
     43 H          16.0188   70.3133   -9.2484 H       1  UNL1        0.2105
@<TRIPOS>BOND
     1    15    16   ar
     2    15    20   ar
     3    15     6    1
     4    16    17   ar
     5    16    21    2
     6    17    18   ar
     7    17    23    1
     8    18    19   ar
     9    18    22    2
    10    19    20   ar
    11     6     7    1
    12     6    11    1
    13     7     8    1
    14     7     9    1
    15     8    13    1
    16     9    10    1
    17     9    12    1
    18    10    11    1
    19    10     5    1
    20    12    14    1
    21     5     4    1
    22     4     1    1
    23     1     2    2
    24     1     3    1
    25     1    24    1
    26    24    25    1
    27    25    26    2
    28    25    27    1
    29    25    28    1
    30    28    29    1
    31    29    30    1
    32    29    37    1
    33    30    31    1
    34    30    34    1
    35    31    32    1
    36    31    35    1
    37    32    33    1
    38    32    36    1
    39    33    41    1
    40    33    37    1
    41    41    42    1
    42    34    38    1
    43    35    39    1
    44    36    40    1
    45    42    43    1
@<TRIPOS>MOLECULE
GDU
 43 45 0 0 0
SMALL
GASTEIGER

@<TRIPOS>ATOM
      1 P          22.6806   71.3125   -2.5818 P.3     1  UNL1        0.2189
      2 O          22.3178   72.7449   -2.6589 O.2     1  UNL1       -0.5170
      3 O          24.0985   71.0782   -3.3083 O.3     1  UNL1       -0.4371
      4 O          22.7876   70.8677   -1.0399 O.3     1  UNL1       -0.3112
      5 C          21.4839   71.0154   -0.4752 C.3     1  UNL1        0.1811
      6 C          23.2464   71.9145    2.5269 C.3     1  UNL1        0.2383
      7 C          22.6190   73.2426    2.0315 C.3     1  UNL1        0.1895
      8 O          22.3125   74.1031    3.1309 O.3     1  UNL1       -0.3779
      9 C          21.3229   72.7503    1.3365 C.3     1  UNL1        0.1713
     10 C          21.6033   71.2676    1.0289 C.3     1  UNL1        0.1764
     11 O          22.9430   70.9826    1.4671 O.3     1  UNL1       -0.3308
     12 O          20.2037   72.8830    2.2149 O.3     1  UNL1       -0.3794
     13 H          21.9275   74.9077    2.7564 H       1  UNL1        0.2106
     14 H          20.1162   73.8244    2.4168 H       1  UNL1        0.2105
     15 N          24.6942   72.0552    2.6912 N.ar    1  UNL1       -0.2551
     16 C          25.4898   70.9814    2.5417 C.ar    1  UNL1        0.3323
     17 N          26.8243   71.0844    2.6840 N.ar    1  UNL1       -0.2743
     18 C          27.3861   72.2698    2.9898 C.ar    1  UNL1        0.2626
     19 C          26.5599   73.4082    3.1559 C.ar    1  UNL1        0.0795
     20 C          25.2249   73.2779    3.0034 C.ar    1  UNL1        0.0869
     21 O          24.9975   69.9056    2.2653 O.2     1  UNL1       -0.2464
     22 O          28.5935   72.3630    3.1235 O.2     1  UNL1       -0.2670
     23 H          27.3837   70.2999    2.5683 H       1  UNL1        0.1734
     24 O          21.5503   70.4333   -3.3181 O.3     1  UNL1       -0.2703
     25 P          20.7747   71.4197   -4.3258 P.3     1  UNL1        0.2208
     26 O          20.1109   72.4922   -3.5524 O.2     1  UNL1       -0.5170
     27 O          21.8285   72.0735   -5.3535 O.3     1  UNL1       -0.4371
     28 O          19.6700   70.5877   -5.1487 O.3     1  UNL1       -0.2858
     29 C          18.5289   71.4355   -5.2856 C.3     1  UNL1        0.2704
     30 C          17.3208   70.7747   -4.6199 C.3     1  UNL1        0.1967
     31 C          17.0679   69.4165   -5.2814 C.3     1  UNL1        0.1715
     32 C          16.9460   69.6239   -6.7953 C.3     1  UNL1        0.1694
     33 C          18.1844   70.3708   -7.2967 C.3     1  UNL1        0.1761
     34 O          17.5834   70.5893   -3.2278 O.3     1  UNL1       -0.3775
     35 O          15.8572   68.8526   -4.7726 O.3     1  UNL1       -0.3794
     36 O          15.7734   70.3881   -7.0800 O.3     1  UNL1       -0.3794
     37 O          18.2617   71.6501   -6.6695 O.3     1  UNL1       -0.3258
     38 H          17.7434   71.4668   -2.8548 H       1  UNL1        0.2106
     39 H          15.9745   68.7514   -3.8196 H       1  UNL1        0.2105
     40 H          15.0218   69.8835   -6.7426 H       1  UNL1        0.2105
     41 C          18.0889   70.5529   -8.8131 C.3     1  UNL1        0.1693
     42 O          17.4653   71.8051   -9.1033 O.3     1  UNL1       -0.3794
     43 H          17.4251   71.8812  -10.0665 H       1  UNL1        0.2105
@<TRIPOS>BOND
     1    15    16   ar
     2    15    20   ar
     3    15     6    1
     4    16    17   ar
     5    16    21    2
     6    17    18   ar
     7    17    23    1
     8    18    19   ar
     9    18    22    2
    10    19    20   ar
    11     6     7    1
    12     6    11    1
    13     7     8    1
    14     7     9    1
    15     8    13    1
    16     9    10    1
    17     9    12    1
    18    10    11    1
    19    10     5    1
    20    12    14    1
    21     5     4    1
    22     4     1    1
    23     1     2    2
    24     1     3    1
    25     1    24    1
    26    24    25    1
    27    25    26    2
    28    25    27    1
    29    25    28    1
    30    28    29    1
    31    29    30    1
    32    29    37    1
    33    30    31    1
    34    30    34    1
    35    31    32    1
    36    31    35    1
    37    32    33    1
    38    32    36    1
    39    33    41    1
    40    33    37    1
    41    41    42    1
    42    34    38    1
    43    35    39    1
    44    36    40    1
    45    42    43    1
@<TRIPOS>MOLECULE
GDU
 43 45 0 0 0
SMALL
GASTEIGER

@<TRIPOS>ATOM
      1 P          21.1291   72.0865   -2.7726 P.3     1  UNL1        0.2189
      2 O          22.4786   72.6652   -2.9559 O.2     1  UNL1       -0.5170
      3 O          21.2565   70.6339   -2.0894 O.3     1  UNL1       -0.4371
      4 O          20.2557   73.0499   -1.8262 O.3     1  UNL1       -0.3112
      5 C          20.0435   72.3454   -0.6018 C.3     1  UNL1        0.1811
      6 C          22.6363   73.3435    1.6804 C.3     1  UNL1        0.2383
      7 C          22.7398   74.3528    0.5084 C.3     1  UNL1        0.1895
      8 O          23.2093   75.6221    0.9686 O.3     1  UNL1       -0.3779
      9 C          21.2674   74.4478    0.0305 C.3     1  UNL1        0.1713
     10 C          20.6176   73.1564    0.5613 C.3     1  UNL1        0.1764
     11 O          21.6443   72.3990    1.2250 O.3     1  UNL1       -0.3308
     12 O          20.6342   75.6005    0.5892 O.3     1  UNL1       -0.3794
     13 H          23.2511   76.2012    0.1948 H       1  UNL1        0.2106
     14 H          21.1214   76.3712    0.2676 H       1  UNL1        0.2105
     15 N          23.9198   72.6759    1.9038 N.ar    1  UNL1       -0.2551
     16 C          24.1710   71.4970    1.3077 C.ar    1  UNL1        0.3323
     17 N          25.3444   70.8642    1.4937 N.ar    1  UNL1       -0.2743
     18 C          26.2870   71.4005    2.2925 C.ar    1  UNL1        0.2626
     19 C          26.0340   72.6389    2.9316 C.ar    1  UNL1        0.0795
     20 C          24.8505   73.2544    2.7244 C.ar    1  UNL1        0.0869
     21 O          23.3306   71.0012    0.5839 O.2     1  UNL1       -0.2464
     22 O          27.3475   70.8261    2.4652 O.2     1  UNL1       -0.2670
     23 H          25.5104   70.0162    1.0521 H       1  UNL1        0.1734
     24 O          20.4088   71.9427   -4.2054 O.3     1  UNL1       -0.2703
     25 P          19.6135   70.5437   -4.1896 P.3     1  UNL1        0.2208
     26 O          20.5808   69.4276   -4.1015 O.2     1  UNL1       -0.5170
     27 O          18.6283   70.5011   -2.9161 O.3     1  UNL1       -0.4371
     28 O          18.7495   70.4010   -5.5398 O.3     1  UNL1       -0.2858
     29 C          18.8386   71.6517   -6.2236 C.3     1  UNL1        0.2704
     30 C          17.5399   72.4346   -6.0243 C.3     1  UNL1        0.1967
     31 C          16.3702   71.6055   -6.5636 C.3     1  UNL1        0.1715
     32 C          16.6772   71.2092   -8.0122 C.3     1  UNL1        0.1694
     33 C          18.0415   70.5169   -8.0603 C.3     1  UNL1        0.1761
     34 O          17.3447   72.6917   -4.6326 O.3     1  UNL1       -0.3775
     35 O          15.1709   72.3816   -6.5195 O.3     1  UNL1       -0.3794
     36 O          16.6998   72.3779   -8.8328 O.3     1  UNL1       -0.3794
     37 O          19.0542   71.4173   -7.6133 O.3     1  UNL1       -0.3258
     38 H          18.1059   73.2083   -4.3349 H       1  UNL1        0.2106
     39 H          15.0242   72.6177   -5.5948 H       1  UNL1        0.2105
     40 H          15.8251   72.7828   -8.7673 H       1  UNL1        0.2105
     41 C          18.3426   70.0863   -9.4976 C.3     1  UNL1        0.1693
     42 O          18.7153   71.2299  -10.2685 O.3     1  UNL1       -0.3794
     43 H          18.8969   70.9160  -11.1650 H       1  UNL1        0.2105
@<TRIPOS>BOND
     1    15    16   ar
     2    15    20   ar
     3    15     6    1
     4    16    17   ar
     5    16    21    2
     6    17    18   ar
     7    17    23    1
     8    18    19   ar
     9    18    22    2
    10    19    20   ar
    11     6     7    1
    12     6    11    1
    13     7     8    1
    14     7     9    1
    15     8    13    1
    16     9    10    1
    17     9    12    1
    18    10    11    1
    19    10     5    1
    20    12    14    1
    21     5     4    1
    22     4     1    1
    23     1     2    2
    24     1     3    1
    25     1    24    1
    26    24    25    1
    27    25    26    2
    28    25    27    1
    29    25    28    1
    30    28    29    1
    31    29    30    1
    32    29    37    1
    33    30    31    1
    34    30    34    1
    35    31    32    1
    36    31    35    1
    37    32    33    1
    38    32    36    1
    39    33    41    1
    40    33    37    1
    41    41    42    1
    42    34    38    1
    43    35    39    1
    44    36    40    1
    45    42    43    1
@<TRIPOS>MOLECULE
GDU
 43 45 0 0 0
SMALL
GASTEIGER

@<TRIPOS>ATOM
      1 P          22.2837   71.4484    0.2990 P.3     1  UNL1        0.2189
      2 O          21.5460   70.2897    0.8491 O.2     1  UNL1       -0.5170
      3 O          23.7831   70.9993   -0.0795 O.3     1  UNL1       -0.4371
      4 O          21.5352   71.9847   -1.0197 O.3     1  UNL1       -0.3112
      5 C          20.8564   70.8666   -1.5938 C.3     1  UNL1        0.1811
      6 C          20.6728   70.5522   -5.1708 C.3     1  UNL1        0.2383
      7 C          21.1400   72.0108   -4.9319 C.3     1  UNL1        0.1895
      8 O          21.9735   72.4611   -6.0023 O.3     1  UNL1       -0.3779
      9 C          21.9511   71.8808   -3.6164 C.3     1  UNL1        0.1713
     10 C          21.4296   70.5778   -2.9824 C.3     1  UNL1        0.1764
     11 O          20.3958   70.0650   -3.8406 O.3     1  UNL1       -0.3308
     12 O          23.3485   71.7834   -3.8986 O.3     1  UNL1       -0.3794
     13 H          22.2285   73.3706   -5.7936 H       1  UNL1        0.2106
     14 H          23.6015   72.6019   -4.3466 H       1  UNL1        0.2105
     15 N          19.4619   70.5243   -5.9929 N.ar    1  UNL1       -0.2551
     16 C          19.5641   70.3822   -7.3261 C.ar    1  UNL1        0.3323
     17 N          18.4663   70.3499   -8.1043 N.ar    1  UNL1       -0.2743
     18 C          17.2413   70.4701   -7.5573 C.ar    1  UNL1        0.2626
     19 C          17.1186   70.6261   -6.1549 C.ar    1  UNL1        0.0795
     20 C          18.2357   70.6509   -5.3973 C.ar    1  UNL1        0.0869
     21 O          20.6624   70.2722   -7.8339 O.2     1  UNL1       -0.2464
     22 O          16.2472   70.4458   -8.2614 O.2     1  UNL1       -0.2670
     23 H          18.5585   70.2424   -9.0644 H       1  UNL1        0.1734
     24 O          22.3383   72.6210    1.4010 O.3     1  UNL1       -0.2703
     25 P          23.6110   72.3209    2.3391 P.3     1  UNL1        0.2208
     26 O          23.6096   70.8940    2.7303 O.2     1  UNL1       -0.5170
     27 O          24.9637   72.6538    1.5307 O.3     1  UNL1       -0.4371
     28 O          23.5355   73.2400    3.6580 O.3     1  UNL1       -0.2858
     29 C          22.4791   74.1783    3.4501 C.3     1  UNL1        0.2704
     30 C          23.0727   75.5470    3.1133 C.3     1  UNL1        0.1967
     31 C          23.9759   75.9962    4.2661 C.3     1  UNL1        0.1715
     32 C          23.1721   75.9367    5.5700 C.3     1  UNL1        0.1694
     33 C          22.5722   74.5367    5.7215 C.3     1  UNL1        0.1761
     34 O          23.8393   75.4536    1.9112 O.3     1  UNL1       -0.3775
     35 O          24.4208   77.3343    4.0342 O.3     1  UNL1       -0.3794
     36 O          22.1261   76.9084    5.5312 O.3     1  UNL1       -0.3794
     37 O          21.6887   74.2712    4.6329 O.3     1  UNL1       -0.3258
     38 H          23.2338   75.1618    1.2162 H       1  UNL1        0.2106
     39 H          24.9092   77.3264    3.2013 H       1  UNL1        0.2105
     40 H          22.5490   77.7711    5.4295 H       1  UNL1        0.2105
     41 C          21.7956   74.4561    7.0378 C.3     1  UNL1        0.1693
     42 O          22.6978   74.1575    8.1045 O.3     1  UNL1       -0.3794
     43 H          22.1702   74.1164    8.9140 H       1  UNL1        0.2105
@<TRIPOS>BOND
     1    15    16   ar
     2    15    20   ar
     3    15     6    1
     4    16    17   ar
     5    16    21    2
     6    17    18   ar
     7    17    23    1
     8    18    19   ar
     9    18    22    2
    10    19    20   ar
    11     6     7    1
    12     6    11    1
    13     7     8    1
    14     7     9    1
    15     8    13    1
    16     9    10    1
    17     9    12    1
    18    10    11    1
    19    10     5    1
    20    12    14    1
    21     5     4    1
    22     4     1    1
    23     1     2    2
    24     1     3    1
    25     1    24    1
    26    24    25    1
    27    25    26    2
    28    25    27    1
    29    25    28    1
    30    28    29    1
    31    29    30    1
    32    29    37    1
    33    30    31    1
    34    30    34    1
    35    31    32    1
    36    31    35    1
    37    32    33    1
    38    32    36    1
    39    33    41    1
    40    33    37    1
    41    41    42    1
    42    34    38    1
    43    35    39    1
    44    36    40    1
    45    42    43    1
@<TRIPOS>MOLECULE
GDU
 43 45 0 0 0
SMALL
GASTEIGER

@<TRIPOS>ATOM
      1 P          22.9225   72.6280   -3.1814 P.3     1  UNL1        0.2189
      2 O          22.3567   73.9949   -3.2157 O.2     1  UNL1       -0.5170
      3 O          24.2400   72.5693   -4.1055 O.3     1  UNL1       -0.4371
      4 O          23.3108   72.2452   -1.6683 O.3     1  UNL1       -0.3112
      5 C          22.5786   71.0636   -1.3395 C.3     1  UNL1        0.1811
      6 C          23.8314   71.5233    1.9991 C.3     1  UNL1        0.2383
      7 C          22.8294   72.6885    1.7956 C.3     1  UNL1        0.1895
      8 O          22.2165   73.0561    3.0336 O.3     1  UNL1       -0.3779
      9 C          21.7916   72.0596    0.8299 C.3     1  UNL1        0.1713
     10 C          22.5483   70.8865    0.1797 C.3     1  UNL1        0.1764
     11 O          23.8891   70.8978    0.6996 O.3     1  UNL1       -0.3308
     12 O          20.6544   71.5890    1.5561 O.3     1  UNL1       -0.3794
     13 H          21.6079   73.7823    2.8386 H       1  UNL1        0.2106
     14 H          20.2593   72.3589    1.9873 H       1  UNL1        0.2105
     15 N          25.1480   72.0338    2.3847 N.ar    1  UNL1       -0.2551
     16 C          25.3480   73.3604    2.4772 C.ar    1  UNL1        0.3323
     17 N          26.5480   73.8557    2.8332 N.ar    1  UNL1       -0.2743
     18 C          27.5760   73.0254    3.0942 C.ar    1  UNL1        0.2626
     19 C          27.3815   71.6259    2.9952 C.ar    1  UNL1        0.0795
     20 C          26.1668   71.1558    2.6403 C.ar    1  UNL1        0.0869
     21 O          24.4300   74.1217    2.2453 O.2     1  UNL1       -0.2464
     22 O          28.6638   73.4729    3.4118 O.2     1  UNL1       -0.2670
     23 H          26.6733   74.8157    2.8992 H       1  UNL1        0.1734
     24 O          21.8316   71.5826   -3.7377 O.3     1  UNL1       -0.2703
     25 P          21.3694   72.1159   -5.1841 P.3     1  UNL1        0.2208
     26 O          20.8154   73.4815   -5.0522 O.2     1  UNL1       -0.5170
     27 O          22.6384   72.1456   -6.1755 O.3     1  UNL1       -0.4371
     28 O          20.2438   71.1348   -5.7845 O.3     1  UNL1       -0.2858
     29 C          19.1993   71.9646   -6.2946 C.3     1  UNL1        0.2704
     30 C          17.8630   71.5304   -5.6903 C.3     1  UNL1        0.1967
     31 C          17.6091   70.0620   -6.0448 C.3     1  UNL1        0.1715
     32 C          17.7215   69.8983   -7.5648 C.3     1  UNL1        0.1694
     33 C          19.0705   70.4549   -8.0269 C.3     1  UNL1        0.1761
     34 O          17.9086   71.6806   -4.2703 O.3     1  UNL1       -0.3775
     35 O          16.2999   69.6836   -5.6143 O.3     1  UNL1       -0.3794
     36 O          16.6611   70.6121   -8.2019 O.3     1  UNL1       -0.3794
     37 O          19.1502   71.8448   -7.7145 O.3     1  UNL1       -0.3258
     38 H          18.0772   72.6162   -4.0939 H       1  UNL1        0.2106
     39 H          16.2714   69.8136   -4.6579 H       1  UNL1        0.2105
     40 H          15.8339   70.2327   -7.8776 H       1  UNL1        0.2105
     41 C          19.2074   70.2651   -9.5393 C.3     1  UNL1        0.1693
     42 O          17.9082   70.1955  -10.1293 O.3     1  UNL1       -0.3794
     43 H          18.0386   70.0768  -11.0802 H       1  UNL1        0.2105
@<TRIPOS>BOND
     1    15    16   ar
     2    15    20   ar
     3    15     6    1
     4    16    17   ar
     5    16    21    2
     6    17    18   ar
     7    17    23    1
     8    18    19   ar
     9    18    22    2
    10    19    20   ar
    11     6     7    1
    12     6    11    1
    13     7     8    1
    14     7     9    1
    15     8    13    1
    16     9    10    1
    17     9    12    1
    18    10    11    1
    19    10     5    1
    20    12    14    1
    21     5     4    1
    22     4     1    1
    23     1     2    2
    24     1     3    1
    25     1    24    1
    26    24    25    1
    27    25    26    2
    28    25    27    1
    29    25    28    1
    30    28    29    1
    31    29    30    1
    32    29    37    1
    33    30    31    1
    34    30    34    1
    35    31    32    1
    36    31    35    1
    37    32    33    1
    38    32    36    1
    39    33    41    1
    40    33    37    1
    41    41    42    1
    42    34    38    1
    43    35    39    1
    44    36    40    1
    45    42    43    1
