@<TRIPOS>MOLECULE
*****
 43 45 0 0 0
SMALL
GASTEIGER

@<TRIPOS>ATOM
      1 P          21.6757   72.0192   -2.4747 P.3     1  UNL1        0.2189
      2 O          20.6468   73.1751   -2.9484 O.co2   1  UNL1       -0.4371
      3 O          22.9553   71.9512   -3.2555 O.2     1  UNL1       -0.5170
      4 O          20.7773   70.6736   -2.4795 O.3     1  UNL1       -0.3112
      5 C          20.0880   70.3251   -3.6660 C.3     1  UNL1        0.1811
      6 O          18.3549   71.5350   -4.8106 O.3     1  UNL1       -0.3308
      7 O          16.4519   70.2897   -2.8563 O.3     1  UNL1       -0.3794
      8 O          16.1035   68.7584   -5.0856 O.3     1  UNL1       -0.3779
      9 C          17.6222   69.7346   -3.4569 C.3     1  UNL1        0.1713
     10 C          17.3541   69.3896   -4.9065 C.3     1  UNL1        0.1895
     11 C          18.6583   70.8435   -3.5797 C.3     1  UNL1        0.1764
     12 C          17.4216   70.7532   -5.5729 C.3     1  UNL1        0.2383
     13 H          15.7753   69.5997   -2.7675 H       1  UNL1        0.2105
     14 H          16.1111   67.8944   -4.6435 H       1  UNL1        0.2106
     15 O          15.7356   70.3284   -7.7985 O.2     1  UNL1       -0.2464
     16 O          19.2790   70.4782  -10.7423 O.2     1  UNL1       -0.2670
     17 N          17.8772   70.6769   -6.9322 N.ar    1  UNL1       -0.2551
     18 N          17.5021   70.4024   -9.2624 N.ar    1  UNL1       -0.2743
     19 C          16.9479   70.4603   -7.9769 C.ar    1  UNL1        0.3323
     20 C          19.2295   70.8175   -7.2194 C.ar    1  UNL1        0.0869
     21 C          19.7428   70.7601   -8.4498 C.ar    1  UNL1        0.0795
     22 C          18.8398   70.5358   -9.5977 C.ar    1  UNL1        0.2626
     23 H          16.8749   70.2504  -10.0060 H       1  UNL1        0.1734
     24 O          21.8640   72.3248   -0.8986 O.3     1  UNL1       -0.2703
     25 P          22.3500   71.3750    0.3161 P.3     1  UNL1        0.2208
     26 O          23.7660   70.7949   -0.2118 O.co2   1  UNL1       -0.4371
     27 O          21.3567   70.3195    0.7077 O.2     1  UNL1       -0.5170
     28 O          22.7445   72.3958    1.5013 O.3     1  UNL1       -0.2858
     29 O          24.5856   71.9530    2.9237 O.3     1  UNL1       -0.3226
     30 O          22.4591   74.7182    5.1372 O.3     1  UNL1       -0.3794
     31 O          21.0712   72.5764    3.7157 O.3     1  UNL1       -0.3775
     32 O          24.8841   75.5161    3.7467 O.3     1  UNL1       -0.3792
     33 C          22.9462   74.0986    3.9469 C.3     1  UNL1        0.1718
     34 C          22.4805   72.6431    3.9002 C.3     1  UNL1        0.1968
     35 C          24.4748   74.1680    3.9691 C.3     1  UNL1        0.1723
     36 C          23.1681   71.8849    2.7639 C.3     1  UNL1        0.2706
     37 C          25.0882   73.2868    2.8848 C.3     1  UNL1        0.1830
     38 H          21.4895   74.6860    5.1453 H       1  UNL1        0.2105
     39 H          20.6286   73.0557    4.4331 H       1  UNL1        0.2106
     40 H          24.5002   76.0875    4.4300 H       1  UNL1        0.2106
     41 O          26.9210   71.8235    2.8493 O.co2   1  UNL1       -0.5466
     42 O          27.3190   73.9735    3.4959 O.co2   1  UNL1       -0.5466
     43 C          26.5522   73.1005    3.1179 C.2     1  UNL1        0.0799
@<TRIPOS>UNITY_ATOM_ATTR
2 1
charge -1
26 1
charge -1
41 1
charge -1
@<TRIPOS>BOND
     1     1     4    1
     2     1    24    1
     3     1     2    1
     4     1     3    2
     5    25    28    1
     6    25    24    1
     7    25    26    1
     8    25    27    2
     9     6    11    1
    10     6    12    1
    11    29    36    1
    12    29    37    1
    13     7     9    1
    14     7    13    1
    15     8    10    1
    16     8    14    1
    17     4     5    1
    18    28    36    1
    19    30    33    1
    20    30    38    1
    21    31    34    1
    22    31    39    1
    23    32    35    1
    24    32    40    1
    25    41    43   ar
    26    15    19    2
    27    42    43   ar
    28    16    22    2
    29    17    12    1
    30    17    19   ar
    31    17    20   ar
    32    18    19   ar
    33    18    22   ar
    34    18    23    1
    35     9    10    1
    36     9    11    1
    37    10    12    1
    38    11     5    1
    39    33    34    1
    40    33    35    1
    41    34    36    1
    42    35    37    1
    43    37    43    1
    44    20    21   ar
    45    21    22   ar
@<TRIPOS>MOLECULE
*****
 43 45 0 0 0
SMALL
GASTEIGER

@<TRIPOS>ATOM
      1 P          21.2674   71.7344   -2.3666 P.3     1  UNL1        0.2189
      2 O          20.8388   73.0901   -3.1394 O.co2   1  UNL1       -0.4371
      3 O          22.4558   71.0240   -2.9452 O.2     1  UNL1       -0.5170
      4 O          19.8982   70.8749   -2.3013 O.3     1  UNL1       -0.3112
      5 C          19.3640   70.3614   -3.5078 C.3     1  UNL1        0.1811
      6 O          17.6719   71.4173   -4.8493 O.3     1  UNL1       -0.3308
      7 O          15.6781   69.9501   -3.1571 O.3     1  UNL1       -0.3794
      8 O          15.7625   68.4379   -5.4248 O.3     1  UNL1       -0.3779
      9 C          16.9633   69.5259   -3.6119 C.3     1  UNL1        0.1713
     10 C          16.9116   69.1859   -5.0864 C.3     1  UNL1        0.1895
     11 C          17.8897   70.7341   -3.5959 C.3     1  UNL1        0.1764
     12 C          16.9230   70.5629   -5.7281 C.3     1  UNL1        0.2383
     13 H          15.0687   69.1949   -3.1587 H       1  UNL1        0.2105
     14 H          15.8026   67.5701   -4.9922 H       1  UNL1        0.2106
     15 O          15.5183   70.5875   -8.1782 O.2     1  UNL1       -0.2464
     16 O          19.4231   70.5499  -10.6268 O.2     1  UNL1       -0.2670
     17 N          17.5476   70.5599   -7.0207 N.ar    1  UNL1       -0.2551
     18 N          17.4644   70.5677   -9.3954 N.ar    1  UNL1       -0.2743
     19 C          16.7506   70.5729   -8.1898 C.ar    1  UNL1        0.3323
     20 C          18.9335   70.5458   -7.1213 C.ar    1  UNL1        0.0869
     21 C          19.5996   70.5412   -8.2776 C.ar    1  UNL1        0.0795
     22 C          18.8416   70.5533   -9.5460 C.ar    1  UNL1        0.2626
     23 H          16.9311   70.5745  -10.2230 H       1  UNL1        0.1734
     24 O          21.4575   72.2315   -0.8403 O.3     1  UNL1       -0.2703
     25 P          21.1128   73.6439   -0.1332 P.3     1  UNL1        0.2208
     26 O          19.7397   73.3322    0.6655 O.co2   1  UNL1       -0.4371
     27 O          21.0260   74.8031   -1.0832 O.2     1  UNL1       -0.5170
     28 O          22.2276   73.8064    1.0214 O.3     1  UNL1       -0.2858
     29 O          23.1166   71.9125    2.1313 O.3     1  UNL1       -0.3226
     30 O          24.0777   74.9536    4.7572 O.3     1  UNL1       -0.3794
     31 O          21.4575   74.8838    3.4673 O.3     1  UNL1       -0.3775
     32 O          26.1288   73.7927    3.0553 O.3     1  UNL1       -0.3792
     33 C          23.8273   74.3641    3.4814 C.3     1  UNL1        0.1718
     34 C          22.3998   73.8180    3.4414 C.3     1  UNL1        0.1968
     35 C          24.8363   73.2318    3.2774 C.3     1  UNL1        0.1723
     36 C          22.1697   72.9802    2.1828 C.3     1  UNL1        0.2706
     37 C          24.4671   72.3664    2.0759 C.3     1  UNL1        0.1830
     38 H          23.4482   75.6761    4.9090 H       1  UNL1        0.2105
     39 H          21.5980   75.4197    4.2632 H       1  UNL1        0.2106
     40 H          26.3756   74.3460    3.8128 H       1  UNL1        0.2106
     41 O          24.4592   70.0454    1.7378 O.co2   1  UNL1       -0.5466
     42 O          26.4377   71.0010    2.3475 O.co2   1  UNL1       -0.5466
     43 C          25.2493   71.0935    2.0787 C.2     1  UNL1        0.0799
@<TRIPOS>UNITY_ATOM_ATTR
2 1
charge -1
26 1
charge -1
41 1
charge -1
@<TRIPOS>BOND
     1     1     4    1
     2     1    24    1
     3     1     2    1
     4     1     3    2
     5    25    28    1
     6    25    24    1
     7    25    26    1
     8    25    27    2
     9     6    11    1
    10     6    12    1
    11    29    36    1
    12    29    37    1
    13     7     9    1
    14     7    13    1
    15     8    10    1
    16     8    14    1
    17     4     5    1
    18    28    36    1
    19    30    33    1
    20    30    38    1
    21    31    34    1
    22    31    39    1
    23    32    35    1
    24    32    40    1
    25    41    43   ar
    26    15    19    2
    27    42    43   ar
    28    16    22    2
    29    17    12    1
    30    17    19   ar
    31    17    20   ar
    32    18    19   ar
    33    18    22   ar
    34    18    23    1
    35     9    10    1
    36     9    11    1
    37    10    12    1
    38    11     5    1
    39    33    34    1
    40    33    35    1
    41    34    36    1
    42    35    37    1
    43    37    43    1
    44    20    21   ar
    45    21    22   ar
@<TRIPOS>MOLECULE
*****
 43 45 0 0 0
SMALL
GASTEIGER

@<TRIPOS>ATOM
      1 P          23.0791   71.7286   -2.5934 P.3     1  UNL1        0.2189
      2 O          23.3933   73.2767   -2.2419 O.co2   1  UNL1       -0.4371
      3 O          24.1864   71.0016   -3.2984 O.2     1  UNL1       -0.5170
      4 O          21.6657   71.7876   -3.3787 O.3     1  UNL1       -0.3112
      5 C          21.5061   72.7413   -4.4128 C.3     1  UNL1        0.1811
      6 O          20.6884   70.7925   -5.5579 O.3     1  UNL1       -0.3308
      7 O          21.1189   72.3315   -8.0952 O.3     1  UNL1       -0.3794
      8 O          18.4297   72.5632   -7.7068 O.3     1  UNL1       -0.3779
      9 C          20.6811   72.7978   -6.8188 C.3     1  UNL1        0.1713
     10 C          19.2478   72.3777   -6.5706 C.3     1  UNL1        0.1895
     11 C          21.4320   72.0154   -5.7500 C.3     1  UNL1        0.1764
     12 C          19.4083   70.9137   -6.1982 C.3     1  UNL1        0.2383
     13 H          20.6528   72.8168   -8.7944 H       1  UNL1        0.2105
     14 H          18.3587   73.5111   -7.9028 H       1  UNL1        0.2106
     15 O          16.8751   69.9548   -6.9981 O.2     1  UNL1       -0.2464
     16 O          15.5762   69.2136   -2.6384 O.2     1  UNL1       -0.2670
     17 N          18.3890   70.4636   -5.2930 N.ar    1  UNL1       -0.2551
     18 N          16.2302   69.5875   -4.8259 N.ar    1  UNL1       -0.2743
     19 C          17.1507   70.0011   -5.7978 C.ar    1  UNL1        0.3323
     20 C          18.6209   70.4815   -3.9230 C.ar    1  UNL1        0.0869
     21 C          17.7338   70.0840   -3.0089 C.ar    1  UNL1        0.0795
     22 C          16.4148   69.5873   -3.4528 C.ar    1  UNL1        0.2626
     23 H          15.3601   69.2632   -5.1532 H       1  UNL1        0.1734
     24 O          22.6717   71.1061   -1.1583 O.3     1  UNL1       -0.2703
     25 P          21.6442   71.6320   -0.0263 P.3     1  UNL1        0.2208
     26 O          21.1685   70.2679    0.7038 O.co2   1  UNL1       -0.4371
     27 O          20.5202   72.4733   -0.5580 O.2     1  UNL1       -0.5170
     28 O          22.5776   72.3720    1.0617 O.3     1  UNL1       -0.2858
     29 O          24.3755   71.7579    2.4757 O.3     1  UNL1       -0.3226
     30 O          22.0804   74.0894    4.9985 O.3     1  UNL1       -0.3794
     31 O          20.8156   72.1626    3.2035 O.3     1  UNL1       -0.3775
     32 O          24.5311   75.1547    3.8539 O.3     1  UNL1       -0.3792
     33 C          22.6320   73.6758    3.7484 C.3     1  UNL1        0.1718
     34 C          22.2140   72.2345    3.4564 C.3     1  UNL1        0.1968
     35 C          24.1557   73.7787    3.8466 C.3     1  UNL1        0.1723
     36 C          22.9680   71.6806    2.2467 C.3     1  UNL1        0.2706
     37 C          24.8375   73.0933    2.6659 C.3     1  UNL1        0.1830
     38 H          21.1127   74.0323    4.9599 H       1  UNL1        0.2105
     39 H          20.3309   72.5127    3.9670 H       1  UNL1        0.2106
     40 H          24.1037   75.6026    4.6006 H       1  UNL1        0.2106
     41 O          26.6537   71.6121    2.7598 O.co2   1  UNL1       -0.5466
     42 O          27.0689   73.7994    3.2522 O.co2   1  UNL1       -0.5466
     43 C          26.2965   72.9092    2.9298 C.2     1  UNL1        0.0799
@<TRIPOS>UNITY_ATOM_ATTR
2 1
charge -1
26 1
charge -1
41 1
charge -1
@<TRIPOS>BOND
     1     1     4    1
     2     1    24    1
     3     1     2    1
     4     1     3    2
     5    25    28    1
     6    25    24    1
     7    25    26    1
     8    25    27    2
     9     6    11    1
    10     6    12    1
    11    29    36    1
    12    29    37    1
    13     7     9    1
    14     7    13    1
    15     8    10    1
    16     8    14    1
    17     4     5    1
    18    28    36    1
    19    30    33    1
    20    30    38    1
    21    31    34    1
    22    31    39    1
    23    32    35    1
    24    32    40    1
    25    41    43   ar
    26    15    19    2
    27    42    43   ar
    28    16    22    2
    29    17    12    1
    30    17    19   ar
    31    17    20   ar
    32    18    19   ar
    33    18    22   ar
    34    18    23    1
    35     9    10    1
    36     9    11    1
    37    10    12    1
    38    11     5    1
    39    33    34    1
    40    33    35    1
    41    34    36    1
    42    35    37    1
    43    37    43    1
    44    20    21   ar
    45    21    22   ar
@<TRIPOS>MOLECULE
*****
 43 45 0 0 0
SMALL
GASTEIGER

@<TRIPOS>ATOM
      1 P          21.4492   72.2919   -4.7390 P.3     1  UNL1        0.2189
      2 O          20.7479   73.7498   -4.7006 O.co2   1  UNL1       -0.4371
      3 O          22.5543   72.1467   -5.7438 O.2     1  UNL1       -0.5170
      4 O          20.2078   71.2679   -4.9071 O.3     1  UNL1       -0.3112
      5 C          19.5602   70.7933   -3.7410 C.3     1  UNL1        0.1811
      6 O          17.8094   71.6460   -5.1500 O.3     1  UNL1       -0.3308
      7 O          15.8965   70.3195   -3.2598 O.3     1  UNL1       -0.3794
      8 O          15.9807   68.5685   -5.3485 O.3     1  UNL1       -0.3779
      9 C          17.1846   69.8840   -3.6955 C.3     1  UNL1        0.1713
     10 C          17.1131   69.3815   -5.1219 C.3     1  UNL1        0.1895
     11 C          18.0736   71.1122   -3.8345 C.3     1  UNL1        0.1764
     12 C          17.0692   70.6786   -5.9114 C.3     1  UNL1        0.2383
     13 H          15.3107   69.5519   -3.1637 H       1  UNL1        0.2105
     14 H          16.0563   67.7554   -4.8240 H       1  UNL1        0.2106
     15 O          15.6330   70.7504   -8.3422 O.2     1  UNL1       -0.2464
     16 O          19.4666   70.1753  -10.8354 O.2     1  UNL1       -0.2670
     17 N          17.6670   70.5501   -7.2102 N.ar    1  UNL1       -0.2551
     18 N          17.5436   70.4629   -9.5816 N.ar    1  UNL1       -0.2743
     19 C          16.8559   70.5996   -8.3686 C.ar    1  UNL1        0.3323
     20 C          19.0410   70.3791   -7.3275 C.ar    1  UNL1        0.0869
     21 C          19.6822   70.2503   -8.4907 C.ar    1  UNL1        0.0795
     22 C          18.9081   70.2902   -9.7487 C.ar    1  UNL1        0.2626
     23 H          16.9998   70.4921  -10.4018 H       1  UNL1        0.1734
     24 O          21.9012   72.0661   -3.2036 O.3     1  UNL1       -0.2703
     25 P          23.3677   72.0214   -2.5245 P.3     1  UNL1        0.2208
     26 O          24.0147   73.4436   -2.9476 O.co2   1  UNL1       -0.4371
     27 O          24.1905   70.8275   -2.9137 O.2     1  UNL1       -0.5170
     28 O          23.0897   72.1555   -0.9411 O.3     1  UNL1       -0.2858
     29 O          24.3576   71.0185    0.7047 O.3     1  UNL1       -0.3226
     30 O          20.8437   71.7907    2.7356 O.3     1  UNL1       -0.3794
     31 O          20.7811   70.8906   -0.0430 O.3     1  UNL1       -0.3775
     32 O          23.2239   73.3661    3.2865 O.3     1  UNL1       -0.3792
     33 C          21.8830   72.0382    1.7887 C.3     1  UNL1        0.1718
     34 C          21.9413   70.8899    0.7809 C.3     1  UNL1        0.1968
     35 C          23.2044   72.1428    2.5534 C.3     1  UNL1        0.1723
     36 C          23.1820   71.0028   -0.1060 C.3     1  UNL1        0.2706
     37 C          24.3999   72.1233    1.6052 C.3     1  UNL1        0.1830
     38 H          19.9941   71.7203    2.2724 H       1  UNL1        0.2105
     39 H          19.9900   70.8195    0.5133 H       1  UNL1        0.2106
     40 H          22.4680   73.3913    3.8937 H       1  UNL1        0.2106
     41 O          26.0045   70.5802    2.3437 O.co2   1  UNL1       -0.5466
     42 O          26.3249   72.7655    2.9102 O.co2   1  UNL1       -0.5466
     43 C          25.6701   71.8943    2.3577 C.2     1  UNL1        0.0799
@<TRIPOS>UNITY_ATOM_ATTR
2 1
charge -1
26 1
charge -1
41 1
charge -1
@<TRIPOS>BOND
     1     1     4    1
     2     1    24    1
     3     1     2    1
     4     1     3    2
     5    25    28    1
     6    25    24    1
     7    25    26    1
     8    25    27    2
     9     6    11    1
    10     6    12    1
    11    29    36    1
    12    29    37    1
    13     7     9    1
    14     7    13    1
    15     8    10    1
    16     8    14    1
    17     4     5    1
    18    28    36    1
    19    30    33    1
    20    30    38    1
    21    31    34    1
    22    31    39    1
    23    32    35    1
    24    32    40    1
    25    41    43   ar
    26    15    19    2
    27    42    43   ar
    28    16    22    2
    29    17    12    1
    30    17    19   ar
    31    17    20   ar
    32    18    19   ar
    33    18    22   ar
    34    18    23    1
    35     9    10    1
    36     9    11    1
    37    10    12    1
    38    11     5    1
    39    33    34    1
    40    33    35    1
    41    34    36    1
    42    35    37    1
    43    37    43    1
    44    20    21   ar
    45    21    22   ar
@<TRIPOS>MOLECULE
*****
 43 45 0 0 0
SMALL
GASTEIGER

@<TRIPOS>ATOM
      1 P          21.6091   72.5608   -1.6438 P.3     1  UNL1        0.2189
      2 O          20.1956   72.2452   -0.9219 O.co2   1  UNL1       -0.4371
      3 O          22.0282   74.0014   -1.6136 O.2     1  UNL1       -0.5170
      4 O          21.4488   71.9064   -3.1148 O.3     1  UNL1       -0.3112
      5 C          21.4654   72.7635   -4.2416 C.3     1  UNL1        0.1811
      6 O          20.7885   70.7044   -5.2807 O.3     1  UNL1       -0.3308
      7 O          21.4677   72.0148   -7.8909 O.3     1  UNL1       -0.3794
      8 O          18.7508   72.2317   -7.8045 O.3     1  UNL1       -0.3779
      9 C          20.8952   72.5868   -6.7147 C.3     1  UNL1        0.1713
     10 C          19.4476   72.1648   -6.5779 C.3     1  UNL1        0.1895
     11 C          21.5374   71.9183   -5.5068 C.3     1  UNL1        0.1764
     12 C          19.5811   70.7437   -6.0579 C.3     1  UNL1        0.2383
     13 H          21.0728   72.4263   -8.6761 H       1  UNL1        0.2105
     14 H          18.6922   73.1565   -8.0931 H       1  UNL1        0.2106
     15 O          17.1216   69.7507   -7.0281 O.2     1  UNL1       -0.2464
     16 O          15.4155   69.2992   -2.7702 O.2     1  UNL1       -0.2670
     17 N          18.4770   70.3590   -5.2249 N.ar    1  UNL1       -0.2551
     18 N          16.2738   69.5278   -4.9065 N.ar    1  UNL1       -0.2743
     19 C          17.2854   69.8724   -5.8126 C.ar    1  UNL1        0.3323
     20 C          18.5812   70.4635   -3.8432 C.ar    1  UNL1        0.0869
     21 C          17.6084   70.1309   -2.9924 C.ar    1  UNL1        0.0795
     22 C          16.3304   69.6147   -3.5249 C.ar    1  UNL1        0.2626
     23 H          15.4340   69.1884   -5.2922 H       1  UNL1        0.1734
     24 O          22.6285   71.5473   -0.9044 O.3     1  UNL1       -0.2703
     25 P          22.7344   71.0896    0.6425 P.3     1  UNL1        0.2208
     26 O          24.2521   70.5394    0.7623 O.co2   1  UNL1       -0.4371
     27 O          21.6841   70.1041    1.0664 O.2     1  UNL1       -0.5170
     28 O          22.7343   72.4693    1.4786 O.3     1  UNL1       -0.2858
     29 O          23.9526   73.1912    3.3769 O.3     1  UNL1       -0.3226
     30 O          20.2676   74.9422    4.0272 O.3     1  UNL1       -0.3794
     31 O          20.4500   72.1980    3.0421 O.3     1  UNL1       -0.3775
     32 O          22.5052   76.5515    3.1030 O.3     1  UNL1       -0.3792
     33 C          21.3526   74.4407    3.2466 C.3     1  UNL1        0.1718
     34 C          21.5488   72.9529    3.5393 C.3     1  UNL1        0.1968
     35 C          22.6097   75.2277    3.6234 C.3     1  UNL1        0.1723
     36 C          22.8384   72.4352    2.9008 C.3     1  UNL1        0.2706
     37 C          23.8664   74.5769    3.0525 C.3     1  UNL1        0.1830
     38 H          19.4575   74.4568    3.8048 H       1  UNL1        0.2105
     39 H          19.6283   72.5213    3.4429 H       1  UNL1        0.2106
     40 H          21.7092   76.9768    3.4585 H       1  UNL1        0.2106
     41 O          25.4584   76.2993    3.0716 O.co2   1  UNL1       -0.5466
     42 O          25.6907   74.6508    4.6297 O.co2   1  UNL1       -0.5466
     43 C          25.0935   75.1468    3.6861 C.2     1  UNL1        0.0799
@<TRIPOS>UNITY_ATOM_ATTR
2 1
charge -1
26 1
charge -1
41 1
charge -1
@<TRIPOS>BOND
     1     1     4    1
     2     1    24    1
     3     1     2    1
     4     1     3    2
     5    25    28    1
     6    25    24    1
     7    25    26    1
     8    25    27    2
     9     6    11    1
    10     6    12    1
    11    29    36    1
    12    29    37    1
    13     7     9    1
    14     7    13    1
    15     8    10    1
    16     8    14    1
    17     4     5    1
    18    28    36    1
    19    30    33    1
    20    30    38    1
    21    31    34    1
    22    31    39    1
    23    32    35    1
    24    32    40    1
    25    41    43   ar
    26    15    19    2
    27    42    43   ar
    28    16    22    2
    29    17    12    1
    30    17    19   ar
    31    17    20   ar
    32    18    19   ar
    33    18    22   ar
    34    18    23    1
    35     9    10    1
    36     9    11    1
    37    10    12    1
    38    11     5    1
    39    33    34    1
    40    33    35    1
    41    34    36    1
    42    35    37    1
    43    37    43    1
    44    20    21   ar
    45    21    22   ar
@<TRIPOS>MOLECULE
*****
 43 45 0 0 0
SMALL
GASTEIGER

@<TRIPOS>ATOM
      1 P          20.9490   71.5589   -2.2009 P.3     1  UNL1        0.2189
      2 O          20.2623   72.9068   -2.7760 O.co2   1  UNL1       -0.4371
      3 O          22.2186   71.1515   -2.8891 O.2     1  UNL1       -0.5170
      4 O          19.7526   70.4700   -2.2312 O.3     1  UNL1       -0.3112
      5 C          19.2346   70.0695   -3.4865 C.3     1  UNL1        0.1811
      6 O          17.6421   71.2871   -4.8127 O.3     1  UNL1       -0.3308
      7 O          15.5232   69.8414   -3.2597 O.3     1  UNL1       -0.3794
      8 O          15.5957   68.4519   -5.6049 O.3     1  UNL1       -0.3779
      9 C          16.7973   69.3730   -3.7023 C.3     1  UNL1        0.1713
     10 C          16.7721   69.1166   -5.1942 C.3     1  UNL1        0.1895
     11 C          17.7854   70.5262   -3.5938 C.3     1  UNL1        0.1764
     12 C          16.8758   70.5236   -5.7577 C.3     1  UNL1        0.2383
     13 H          14.8750   69.1218   -3.3199 H       1  UNL1        0.2105
     14 H          15.5767   67.5610   -5.2203 H       1  UNL1        0.2106
     15 O          15.5455   70.4838   -8.2488 O.2     1  UNL1       -0.2464
     16 O          19.5184   70.6535  -10.5793 O.2     1  UNL1       -0.2670
     17 N          17.5380   70.5565   -7.0310 N.ar    1  UNL1       -0.2551
     18 N          17.5255   70.5673   -9.4071 N.ar    1  UNL1       -0.2743
     19 C          16.7767   70.5324   -8.2234 C.ar    1  UNL1        0.3323
     20 C          18.9252   70.6137   -7.0900 C.ar    1  UNL1        0.0869
     21 C          19.6249   70.6466   -8.2258 C.ar    1  UNL1        0.0795
     22 C          18.9055   70.6238   -9.5164 C.ar    1  UNL1        0.2626
     23 H          17.0175   70.5494  -10.2503 H       1  UNL1        0.1734
     24 O          21.1101   71.8779   -0.6245 O.3     1  UNL1       -0.2703
     25 P          22.0929   71.2440    0.4917 P.3     1  UNL1        0.2208
     26 O          23.5156   71.1556   -0.2755 O.co2   1  UNL1       -0.4371
     27 O          21.6162   69.9400    1.0628 O.2     1  UNL1       -0.5170
     28 O          22.2891   72.4193    1.5792 O.3     1  UNL1       -0.2858
     29 O          20.6009   74.0775    1.6761 O.3     1  UNL1       -0.3226
     30 O          23.6092   75.8086    3.9170 O.3     1  UNL1       -0.3794
     31 O          24.2345   74.4019    1.4341 O.3     1  UNL1       -0.3775
     32 O          21.2882   74.6552    5.2337 O.3     1  UNL1       -0.3792
     33 C          22.8329   74.7345    3.3864 C.3     1  UNL1        0.1718
     34 C          22.9208   74.7448    1.8600 C.3     1  UNL1        0.1968
     35 C          21.3837   74.9304    3.8374 C.3     1  UNL1        0.1723
     36 C          21.9254   73.7582    1.2480 C.3     1  UNL1        0.2706
     37 C          20.4365   73.9961    3.0902 C.3     1  UNL1        0.1830
     38 H          24.5342   75.7053    3.6433 H       1  UNL1        0.2105
     39 H          24.8713   75.0237    1.8190 H       1  UNL1        0.2106
     40 H          21.8864   75.2432    5.7208 H       1  UNL1        0.2106
     41 O          18.5171   73.8875    4.4339 O.co2   1  UNL1       -0.5466
     42 O          18.3826   75.1298    2.5266 O.co2   1  UNL1       -0.5466
     43 C          19.0154   74.4128    3.2873 C.2     1  UNL1        0.0799
@<TRIPOS>UNITY_ATOM_ATTR
2 1
charge -1
26 1
charge -1
41 1
charge -1
@<TRIPOS>BOND
     1     1     4    1
     2     1    24    1
     3     1     2    1
     4     1     3    2
     5    25    28    1
     6    25    24    1
     7    25    26    1
     8    25    27    2
     9     6    11    1
    10     6    12    1
    11    29    36    1
    12    29    37    1
    13     7     9    1
    14     7    13    1
    15     8    10    1
    16     8    14    1
    17     4     5    1
    18    28    36    1
    19    30    33    1
    20    30    38    1
    21    31    34    1
    22    31    39    1
    23    32    35    1
    24    32    40    1
    25    41    43   ar
    26    15    19    2
    27    42    43   ar
    28    16    22    2
    29    17    12    1
    30    17    19   ar
    31    17    20   ar
    32    18    19   ar
    33    18    22   ar
    34    18    23    1
    35     9    10    1
    36     9    11    1
    37    10    12    1
    38    11     5    1
    39    33    34    1
    40    33    35    1
    41    34    36    1
    42    35    37    1
    43    37    43    1
    44    20    21   ar
    45    21    22   ar
@<TRIPOS>MOLECULE
*****
 43 45 0 0 0
SMALL
GASTEIGER

@<TRIPOS>ATOM
      1 P          23.4973   73.5772   -4.1653 P.3     1  UNL1        0.2189
      2 O          22.7432   74.9900   -4.3984 O.co2   1  UNL1       -0.4371
      3 O          24.9905   73.6678   -4.0480 O.2     1  UNL1       -0.5170
      4 O          22.9421   72.6386   -5.3606 O.3     1  UNL1       -0.3112
      5 C          21.5654   72.3085   -5.3771 C.3     1  UNL1        0.1811
      6 O          20.4923   70.3540   -6.2748 O.3     1  UNL1       -0.3308
      7 O          20.6209   71.7328   -8.9345 O.3     1  UNL1       -0.3794
      8 O          18.0330   72.1393   -8.1771 O.3     1  UNL1       -0.3779
      9 C          20.3993   72.2887   -7.6382 C.3     1  UNL1        0.1713
     10 C          18.9990   71.9656   -7.1616 C.3     1  UNL1        0.1895
     11 C          21.2594   71.5203   -6.6442 C.3     1  UNL1        0.1764
     12 C          19.1395   70.5158   -6.7300 C.3     1  UNL1        0.2383
     13 H          20.0818   72.2077   -9.5868 H       1  UNL1        0.2105
     14 H          17.9811   73.0784   -8.4167 H       1  UNL1        0.2106
     15 O          16.4355   69.7845   -7.0903 O.2     1  UNL1       -0.2464
     16 O          15.7948   69.2195   -2.5611 O.2     1  UNL1       -0.2670
     17 N          18.2434   70.1726   -5.6623 N.ar    1  UNL1       -0.2551
     18 N          16.1187   69.5048   -4.8341 N.ar    1  UNL1       -0.2743
     19 C          16.9038   69.8199   -5.9509 C.ar    1  UNL1        0.3323
     20 C          18.6935   70.1859   -4.3477 C.ar    1  UNL1        0.0869
     21 C          17.9333   69.8830   -3.2936 C.ar    1  UNL1        0.0795
     22 C          16.5212   69.5044   -3.5084 C.ar    1  UNL1        0.2626
     23 H          15.1819   69.2581   -5.0098 H       1  UNL1        0.1734
     24 O          22.7543   72.9804   -2.8597 O.3     1  UNL1       -0.2703
     25 P          22.8786   71.5419   -2.1323 P.3     1  UNL1        0.2208
     26 O          24.2249   70.9163   -2.7777 O.co2   1  UNL1       -0.4371
     27 O          21.6628   70.6728   -2.2748 O.2     1  UNL1       -0.5170
     28 O          23.2800   71.8871   -0.6085 O.3     1  UNL1       -0.2858
     29 O          24.6578   70.9392    1.0686 O.3     1  UNL1       -0.3226
     30 O          21.2686   71.9180    3.2189 O.3     1  UNL1       -0.3794
     31 O          21.0434   70.7210    0.5635 O.3     1  UNL1       -0.3775
     32 O          23.6632   73.5505    3.4465 O.3     1  UNL1       -0.3792
     33 C          22.2451   72.0639    2.1878 C.3     1  UNL1        0.1718
     34 C          22.2520   70.8131    1.3087 C.3     1  UNL1        0.1968
     35 C          23.6102   72.2546    2.8528 C.3     1  UNL1        0.1723
     36 C          23.4346   70.8323    0.3392 C.3     1  UNL1        0.2706
     37 C          24.7450   72.1354    1.8397 C.3     1  UNL1        0.1830
     38 H          20.3928   71.7954    2.8199 H       1  UNL1        0.2105
     39 H          20.2887   70.7087    1.1724 H       1  UNL1        0.2106
     40 H          22.9459   73.6394    4.0933 H       1  UNL1        0.2106
     41 O          26.6033   70.7750    2.2840 O.co2   1  UNL1       -0.5466
     42 O          26.5856   72.8516    3.2255 O.co2   1  UNL1       -0.5466
     43 C          26.0613   71.9930    2.5319 C.2     1  UNL1        0.0799
@<TRIPOS>UNITY_ATOM_ATTR
2 1
charge -1
26 1
charge -1
41 1
charge -1
@<TRIPOS>BOND
     1     1     4    1
     2     1    24    1
     3     1     2    1
     4     1     3    2
     5    25    28    1
     6    25    24    1
     7    25    26    1
     8    25    27    2
     9     6    11    1
    10     6    12    1
    11    29    36    1
    12    29    37    1
    13     7     9    1
    14     7    13    1
    15     8    10    1
    16     8    14    1
    17     4     5    1
    18    28    36    1
    19    30    33    1
    20    30    38    1
    21    31    34    1
    22    31    39    1
    23    32    35    1
    24    32    40    1
    25    41    43   ar
    26    15    19    2
    27    42    43   ar
    28    16    22    2
    29    17    12    1
    30    17    19   ar
    31    17    20   ar
    32    18    19   ar
    33    18    22   ar
    34    18    23    1
    35     9    10    1
    36     9    11    1
    37    10    12    1
    38    11     5    1
    39    33    34    1
    40    33    35    1
    41    34    36    1
    42    35    37    1
    43    37    43    1
    44    20    21   ar
    45    21    22   ar
@<TRIPOS>MOLECULE
*****
 43 45 0 0 0
SMALL
GASTEIGER

@<TRIPOS>ATOM
      1 P          22.9419   72.1703   -3.2583 P.3     1  UNL1        0.2189
      2 O          24.0744   72.4063   -4.3900 O.co2   1  UNL1       -0.4371
      3 O          23.2833   71.1355   -2.2266 O.2     1  UNL1       -0.5170
      4 O          21.5935   71.8958   -4.1094 O.3     1  UNL1       -0.3112
      5 C          20.8236   70.7474   -3.8046 C.3     1  UNL1        0.1811
      6 O          18.8708   71.7595   -4.7739 O.3     1  UNL1       -0.3308
      7 O          17.3333   70.5067   -2.5249 O.3     1  UNL1       -0.3794
      8 O          16.8251   68.8198   -4.6063 O.3     1  UNL1       -0.3779
      9 C          18.4576   69.9991   -3.2438 C.3     1  UNL1        0.1713
     10 C          18.0355   69.5472   -4.6258 C.3     1  UNL1        0.1895
     11 C          19.3805   71.1684   -3.5589 C.3     1  UNL1        0.1764
     12 C          17.9120   70.8684   -5.3656 C.3     1  UNL1        0.2383
     13 H          16.7291   69.7777   -2.3123 H       1  UNL1        0.2105
     14 H          16.9558   67.9875   -4.1245 H       1  UNL1        0.2106
     15 O          15.9753   70.2948   -7.3396 O.2     1  UNL1       -0.2464
     16 O          19.1159   70.4002  -10.7115 O.2     1  UNL1       -0.2670
     17 N          18.1961   70.7404   -6.7669 N.ar    1  UNL1       -0.2551
     18 N          17.5415   70.3469   -9.0170 N.ar    1  UNL1       -0.2743
     19 C          17.1509   70.4503   -7.6754 C.ar    1  UNL1        0.3323
     20 C          19.4966   70.9032   -7.2286 C.ar    1  UNL1        0.0869
     21 C          19.8536   70.8017   -8.5104 C.ar    1  UNL1        0.0795
     22 C          18.8218   70.4999   -9.5241 C.ar    1  UNL1        0.2626
     23 H          16.8315   70.1435   -9.6680 H       1  UNL1        0.1734
     24 O          22.7032   73.6561   -2.6684 O.3     1  UNL1       -0.2703
     25 P          23.7199   74.6909   -1.9548 P.3     1  UNL1        0.2208
     26 O          22.7495   75.8986   -1.4856 O.co2   1  UNL1       -0.4371
     27 O          24.8686   75.1213   -2.8204 O.2     1  UNL1       -0.5170
     28 O          24.1523   73.9597   -0.5834 O.3     1  UNL1       -0.2858
     29 O          22.4582   73.4601    0.9945 O.3     1  UNL1       -0.3226
     30 O          25.8814   72.9905    3.2593 O.3     1  UNL1       -0.3794
     31 O          25.6314   75.2301    1.4002 O.3     1  UNL1       -0.3775
     32 O          24.4273   70.6584    2.3117 O.3     1  UNL1       -0.3792
     33 C          25.0910   72.9619    2.0708 C.3     1  UNL1        0.1718
     34 C          24.5642   74.3659    1.7727 C.3     1  UNL1        0.1968
     35 C          23.9277   71.9943    2.2996 C.3     1  UNL1        0.1723
     36 C          23.5317   74.3348    0.6450 C.3     1  UNL1        0.2706
     37 C          22.8793   72.1130    1.1972 C.3     1  UNL1        0.1830
     38 H          26.6270   73.5992    3.1374 H       1  UNL1        0.2105
     39 H          26.2905   75.2543    2.1111 H       1  UNL1        0.2106
     40 H          25.0957   70.5694    3.0090 H       1  UNL1        0.2106
     41 O          21.5601   70.1792    1.0511 O.co2   1  UNL1       -0.5466
     42 O          20.7455   71.9018    2.3034 O.co2   1  UNL1       -0.5466
     43 C          21.6147   71.4219    1.5912 C.2     1  UNL1        0.0799
@<TRIPOS>UNITY_ATOM_ATTR
2 1
charge -1
26 1
charge -1
41 1
charge -1
@<TRIPOS>BOND
     1     1     4    1
     2     1    24    1
     3     1     2    1
     4     1     3    2
     5    25    28    1
     6    25    24    1
     7    25    26    1
     8    25    27    2
     9     6    11    1
    10     6    12    1
    11    29    36    1
    12    29    37    1
    13     7     9    1
    14     7    13    1
    15     8    10    1
    16     8    14    1
    17     4     5    1
    18    28    36    1
    19    30    33    1
    20    30    38    1
    21    31    34    1
    22    31    39    1
    23    32    35    1
    24    32    40    1
    25    41    43   ar
    26    15    19    2
    27    42    43   ar
    28    16    22    2
    29    17    12    1
    30    17    19   ar
    31    17    20   ar
    32    18    19   ar
    33    18    22   ar
    34    18    23    1
    35     9    10    1
    36     9    11    1
    37    10    12    1
    38    11     5    1
    39    33    34    1
    40    33    35    1
    41    34    36    1
    42    35    37    1
    43    37    43    1
    44    20    21   ar
    45    21    22   ar
@<TRIPOS>MOLECULE
*****
 43 45 0 0 0
SMALL
GASTEIGER

@<TRIPOS>ATOM
      1 P          20.2135   72.1030   -2.4782 P.3     1  UNL1        0.2189
      2 O          19.2725   71.0614   -1.6728 O.co2   1  UNL1       -0.4371
      3 O          20.3331   73.4622   -1.8537 O.2     1  UNL1       -0.5170
      4 O          19.6262   72.0715   -3.9855 O.3     1  UNL1       -0.3112
      5 C          18.7423   71.0256   -4.3451 C.3     1  UNL1        0.1811
      6 O          16.3529   70.8171   -4.5025 O.3     1  UNL1       -0.3308
      7 O          16.3458   73.6879   -5.3686 O.3     1  UNL1       -0.3794
      8 O          15.6134   73.8545   -2.7472 O.3     1  UNL1       -0.3779
      9 C          17.1822   73.0341   -4.4138 C.3     1  UNL1        0.1713
     10 C          16.4085   72.7563   -3.1424 C.3     1  UNL1        0.1895
     11 C          17.4697   71.6291   -4.9253 C.3     1  UNL1        0.1764
     12 C          15.5794   71.5457   -3.5359 C.3     1  UNL1        0.2383
     13 H          16.1485   74.5877   -5.0635 H       1  UNL1        0.2105
     14 H          16.1874   74.5992   -2.5065 H       1  UNL1        0.2106
     15 O          16.6919   68.9739   -3.1823 O.2     1  UNL1       -0.2464
     16 O          14.4311   68.3418    0.7843 O.2     1  UNL1       -0.2670
     17 N          15.2987   70.6875   -2.4198 N.ar    1  UNL1       -0.2551
     18 N          15.5640   68.6611   -1.2076 N.ar    1  UNL1       -0.2743
     19 C          15.9099   69.4140   -2.3374 C.ar    1  UNL1        0.3323
     20 C          14.4288   71.1097   -1.4219 C.ar    1  UNL1        0.0869
     21 C          14.1089   70.3809   -0.3508 C.ar    1  UNL1        0.0795
     22 C          14.7035   69.0379   -0.1891 C.ar    1  UNL1        0.2626
     23 H          15.9755   67.7701   -1.1292 H       1  UNL1        0.1734
     24 O          21.6095   71.2997   -2.6152 O.3     1  UNL1       -0.2703
     25 P          23.1307   71.7560   -2.3131 P.3     1  UNL1        0.2208
     26 O          23.2128   73.2310   -2.9749 O.co2   1  UNL1       -0.4371
     27 O          24.1720   70.7959   -2.8110 O.2     1  UNL1       -0.5170
     28 O          23.1703   72.0208   -0.7222 O.3     1  UNL1       -0.2858
     29 O          24.5917   71.0410    0.8990 O.3     1  UNL1       -0.3226
     30 O          21.1881   71.8003    3.1141 O.3     1  UNL1       -0.3794
     31 O          20.9830   70.7248    0.4057 O.3     1  UNL1       -0.3775
     32 O          23.5282   73.5003    3.4056 O.3     1  UNL1       -0.3792
     33 C          22.1513   72.0284    2.0854 C.3     1  UNL1        0.1718
     34 C          22.1935   70.8220    1.1472 C.3     1  UNL1        0.1968
     35 C          23.5141   72.2332    2.7507 C.3     1  UNL1        0.1723
     36 C          23.3674   70.9276    0.1727 C.3     1  UNL1        0.2706
     37 C          24.6446   72.2012    1.7262 C.3     1  UNL1        0.1830
     38 H          20.3138   71.6673    2.7150 H       1  UNL1        0.2105
     39 H          20.2338   70.6577    1.0178 H       1  UNL1        0.2106
     40 H          22.8132   73.5338    4.0603 H       1  UNL1        0.2106
     41 O          26.4678   70.8192    2.2435 O.co2   1  UNL1       -0.5466
     42 O          26.5361   72.9637    3.0154 O.co2   1  UNL1       -0.5466
     43 C          25.9702   72.0706    2.4029 C.2     1  UNL1        0.0799
@<TRIPOS>UNITY_ATOM_ATTR
2 1
charge -1
26 1
charge -1
41 1
charge -1
@<TRIPOS>BOND
     1     1     4    1
     2     1    24    1
     3     1     2    1
     4     1     3    2
     5    25    28    1
     6    25    24    1
     7    25    26    1
     8    25    27    2
     9     6    11    1
    10     6    12    1
    11    29    36    1
    12    29    37    1
    13     7     9    1
    14     7    13    1
    15     8    10    1
    16     8    14    1
    17     4     5    1
    18    28    36    1
    19    30    33    1
    20    30    38    1
    21    31    34    1
    22    31    39    1
    23    32    35    1
    24    32    40    1
    25    41    43   ar
    26    15    19    2
    27    42    43   ar
    28    16    22    2
    29    17    12    1
    30    17    19   ar
    31    17    20   ar
    32    18    19   ar
    33    18    22   ar
    34    18    23    1
    35     9    10    1
    36     9    11    1
    37    10    12    1
    38    11     5    1
    39    33    34    1
    40    33    35    1
    41    34    36    1
    42    35    37    1
    43    37    43    1
    44    20    21   ar
    45    21    22   ar
@<TRIPOS>MOLECULE
*****
 43 45 0 0 0
SMALL
GASTEIGER

@<TRIPOS>ATOM
      1 P          21.6954   71.3736    0.0958 P.3     1  UNL1        0.2189
      2 O          20.3863   72.3245    0.1229 O.co2   1  UNL1       -0.4371
      3 O          21.6057   70.1473    0.9560 O.2     1  UNL1       -0.5170
      4 O          22.9149   72.3817    0.4344 O.3     1  UNL1       -0.3112
      5 C          23.6361   72.1903    1.6376 C.3     1  UNL1        0.1811
      6 O          24.4452   73.3200    3.5990 O.3     1  UNL1       -0.3308
      7 O          23.3961   75.8382    2.3542 O.3     1  UNL1       -0.3794
      8 O          26.0686   75.9839    1.8320 O.3     1  UNL1       -0.3779
      9 C          24.0024   74.7062    1.7300 C.3     1  UNL1        0.1713
     10 C          25.4945   74.7029    1.9865 C.3     1  UNL1        0.1895
     11 C          23.5480   73.4591    2.4759 C.3     1  UNL1        0.1764
     12 C          25.5674   74.1981    3.4175 C.3     1  UNL1        0.2383
     13 H          23.6716   76.6473    1.8948 H       1  UNL1        0.2105
     14 H          25.9975   76.2604    0.9044 H       1  UNL1        0.2106
     15 O          27.4085   74.8510    5.4572 O.2     1  UNL1       -0.2464
     16 O          30.1738   71.3377    4.3375 O.2     1  UNL1       -0.2670
     17 N          26.7767   73.4708    3.6811 N.ar    1  UNL1       -0.2551
     18 N          28.7845   73.1012    4.8969 N.ar    1  UNL1       -0.2743
     19 C          27.6332   73.8819    4.7297 C.ar    1  UNL1        0.3323
     20 C          27.1030   72.3638    2.9073 C.ar    1  UNL1        0.0869
     21 C          28.2039   71.6294    3.0788 C.ar    1  UNL1        0.0795
     22 C          29.1522   71.9921    4.1523 C.ar    1  UNL1        0.2626
     23 H          29.3973   73.3692    5.6195 H       1  UNL1        0.1734
     24 O          21.8961   71.0772   -1.4805 O.3     1  UNL1       -0.2703
     25 P          21.9849   72.0792   -2.7461 P.3     1  UNL1        0.2208
     26 O          23.2355   71.4960   -3.5925 O.co2   1  UNL1       -0.4371
     27 O          22.1108   73.5287   -2.3762 O.2     1  UNL1       -0.5170
     28 O          20.6888   71.7262   -3.6394 O.3     1  UNL1       -0.2858
     29 O          19.6373   69.6722   -4.1727 O.3     1  UNL1       -0.3226
     30 O          19.1395   71.8058   -7.6753 O.3     1  UNL1       -0.3794
     31 O          21.6784   71.8983   -6.2330 O.3     1  UNL1       -0.3775
     32 O          16.9001   71.4416   -5.8577 O.3     1  UNL1       -0.3792
     33 C          19.2675   71.6281   -6.2646 C.3     1  UNL1        0.1718
     34 C          20.6206   70.9896   -5.9499 C.3     1  UNL1        0.1968
     35 C          18.1285   70.7193   -5.7971 C.3     1  UNL1        0.1723
     36 C          20.7010   70.5741   -4.4803 C.3     1  UNL1        0.2706
     37 C          18.3461   70.2465   -4.3626 C.3     1  UNL1        0.1830
     38 H          19.8530   72.3802   -7.9951 H       1  UNL1        0.2105
     39 H          21.6333   72.1664   -7.1639 H       1  UNL1        0.2106
     40 H          16.7498   71.7483   -6.7656 H       1  UNL1        0.2106
     41 O          18.0942   68.1253   -3.3937 O.co2   1  UNL1       -0.5466
     42 O          16.2315   69.0868   -4.2909 O.co2   1  UNL1       -0.5466
     43 C          17.4249   69.1180   -4.0305 C.2     1  UNL1        0.0799
@<TRIPOS>UNITY_ATOM_ATTR
2 1
charge -1
26 1
charge -1
41 1
charge -1
@<TRIPOS>BOND
     1     1     4    1
     2     1    24    1
     3     1     2    1
     4     1     3    2
     5    25    28    1
     6    25    24    1
     7    25    26    1
     8    25    27    2
     9     6    11    1
    10     6    12    1
    11    29    36    1
    12    29    37    1
    13     7     9    1
    14     7    13    1
    15     8    10    1
    16     8    14    1
    17     4     5    1
    18    28    36    1
    19    30    33    1
    20    30    38    1
    21    31    34    1
    22    31    39    1
    23    32    35    1
    24    32    40    1
    25    41    43   ar
    26    15    19    2
    27    42    43   ar
    28    16    22    2
    29    17    12    1
    30    17    19   ar
    31    17    20   ar
    32    18    19   ar
    33    18    22   ar
    34    18    23    1
    35     9    10    1
    36     9    11    1
    37    10    12    1
    38    11     5    1
    39    33    34    1
    40    33    35    1
    41    34    36    1
    42    35    37    1
    43    37    43    1
    44    20    21   ar
    45    21    22   ar
@<TRIPOS>MOLECULE
*****
 43 45 0 0 0
SMALL
GASTEIGER

@<TRIPOS>ATOM
      1 P          21.1852   71.7155   -2.2512 P.3     1  UNL1        0.2189
      2 O          21.4052   70.2957   -2.9959 O.co2   1  UNL1       -0.4371
      3 O          21.6378   71.7576   -0.8211 O.2     1  UNL1       -0.5170
      4 O          19.6221   72.0485   -2.5035 O.3     1  UNL1       -0.3112
      5 C          19.1766   72.2336   -3.8346 C.3     1  UNL1        0.1811
      6 O          17.2581   72.0893   -5.2755 O.3     1  UNL1       -0.3308
      7 O          15.9826   70.4603   -3.1051 O.3     1  UNL1       -0.3794
      8 O          16.7842   68.5569   -4.8857 O.3     1  UNL1       -0.3779
      9 C          17.3462   70.4936   -3.5272 C.3     1  UNL1        0.1713
     10 C          17.5036   69.7717   -4.8487 C.3     1  UNL1        0.1895
     11 C          17.6858   71.9288   -3.9056 C.3     1  UNL1        0.1764
     12 C          16.9699   70.7976   -5.8339 C.3     1  UNL1        0.2383
     13 H          15.7423   69.5531   -2.8581 H       1  UNL1        0.2105
     14 H          17.1624   67.9375   -4.2413 H       1  UNL1        0.2106
     15 O          15.5646   70.6270   -8.2778 O.2     1  UNL1       -0.2464
     16 O          19.4689   70.4120  -10.7180 O.2     1  UNL1       -0.2670
     17 N          17.5942   70.6962   -7.1226 N.ar    1  UNL1       -0.2551
     18 N          17.5105   70.5190   -9.4907 N.ar    1  UNL1       -0.2743
     19 C          16.7970   70.6156   -8.2888 C.ar    1  UNL1        0.3323
     20 C          18.9801   70.6790   -7.2225 C.ar    1  UNL1        0.0869
     21 C          19.6459   70.5866   -8.3753 C.ar    1  UNL1        0.0795
     22 C          18.8877   70.4975   -9.6404 C.ar    1  UNL1        0.2626
     23 H          16.9770   70.4597  -10.3161 H       1  UNL1        0.1734
     24 O          21.9412   72.7584   -3.2277 O.3     1  UNL1       -0.2703
     25 P          23.2888   72.6032   -4.1072 P.3     1  UNL1        0.2208
     26 O          22.7274   72.2663   -5.5877 O.co2   1  UNL1       -0.4371
     27 O          24.2617   71.5937   -3.5703 O.2     1  UNL1       -0.5170
     28 O          23.8753   74.1014   -4.2254 O.3     1  UNL1       -0.2858
     29 O          26.0329   75.0657   -4.0711 O.3     1  UNL1       -0.3226
     30 O          23.7220   77.8534   -2.0821 O.3     1  UNL1       -0.3794
     31 O          23.2870   74.9959   -1.6583 O.3     1  UNL1       -0.3775
     32 O          24.6618   78.3944   -4.7794 O.3     1  UNL1       -0.3792
     33 C          23.9995   76.8468   -3.0556 C.3     1  UNL1        0.1718
     34 C          24.3993   75.5501   -2.3513 C.3     1  UNL1        0.1968
     35 C          25.1440   77.3469   -3.9400 C.3     1  UNL1        0.1723
     36 C          24.9238   74.5218   -3.3545 C.3     1  UNL1        0.2706
     37 C          25.6956   76.2302   -4.8216 C.3     1  UNL1        0.1830
     38 H          22.9977   77.5577   -1.5084 H       1  UNL1        0.2105
     39 H          22.9489   75.6432   -1.0203 H       1  UNL1        0.2106
     40 H          24.3078   79.1115   -4.2305 H       1  UNL1        0.2106
     41 O          26.8045   77.3676   -6.5473 O.co2   1  UNL1       -0.5466
     42 O          28.1008   76.3361   -4.9806 O.co2   1  UNL1       -0.5466
     43 C          27.0019   76.6289   -5.4274 C.2     1  UNL1        0.0799
@<TRIPOS>UNITY_ATOM_ATTR
2 1
charge -1
26 1
charge -1
41 1
charge -1
@<TRIPOS>BOND
     1     1     4    1
     2     1    24    1
     3     1     2    1
     4     1     3    2
     5    25    28    1
     6    25    24    1
     7    25    26    1
     8    25    27    2
     9     6    11    1
    10     6    12    1
    11    29    36    1
    12    29    37    1
    13     7     9    1
    14     7    13    1
    15     8    10    1
    16     8    14    1
    17     4     5    1
    18    28    36    1
    19    30    33    1
    20    30    38    1
    21    31    34    1
    22    31    39    1
    23    32    35    1
    24    32    40    1
    25    41    43   ar
    26    15    19    2
    27    42    43   ar
    28    16    22    2
    29    17    12    1
    30    17    19   ar
    31    17    20   ar
    32    18    19   ar
    33    18    22   ar
    34    18    23    1
    35     9    10    1
    36     9    11    1
    37    10    12    1
    38    11     5    1
    39    33    34    1
    40    33    35    1
    41    34    36    1
    42    35    37    1
    43    37    43    1
    44    20    21   ar
    45    21    22   ar
@<TRIPOS>MOLECULE
*****
 43 45 0 0 0
SMALL
GASTEIGER

@<TRIPOS>ATOM
      1 P          23.4646   72.3304   -3.4330 P.3     1  UNL1        0.2189
      2 O          24.0787   70.8583   -3.1599 O.co2   1  UNL1       -0.4371
      3 O          24.4396   73.3325   -3.9779 O.2     1  UNL1       -0.5170
      4 O          22.7622   72.7247   -2.0297 O.3     1  UNL1       -0.3112
      5 C          23.5634   72.7765   -0.8636 C.3     1  UNL1        0.1811
      6 O          24.5778   71.2542    0.6956 O.3     1  UNL1       -0.3308
      7 O          21.8107   70.2107    1.1915 O.3     1  UNL1       -0.3794
      8 O          22.2289   71.8355    3.3412 O.3     1  UNL1       -0.3779
      9 C          22.2387   71.5469    0.9269 C.3     1  UNL1        0.1713
     10 C          22.9215   72.1297    2.1460 C.3     1  UNL1        0.1895
     11 C          23.3806   71.4841   -0.0783 C.3     1  UNL1        0.1764
     12 C          24.2896   71.4719    2.0859 C.3     1  UNL1        0.2383
     13 H          21.0814   70.2252    1.8314 H       1  UNL1        0.2105
     14 H          21.3648   72.2772    3.3311 H       1  UNL1        0.2106
     15 O          26.9767   70.6667    2.4139 O.2     1  UNL1       -0.2464
     16 O          28.1543   74.7167    4.2727 O.2     1  UNL1       -0.2670
     17 N          25.3193   72.2960    2.6528 N.ar    1  UNL1       -0.2551
     18 N          27.5604   72.6843    3.3403 N.ar    1  UNL1       -0.2743
     19 C          26.6375   71.7959    2.7729 C.ar    1  UNL1        0.3323
     20 C          25.0200   73.5837    3.0808 C.ar    1  UNL1        0.0869
     21 C          25.9105   74.4188    3.6195 C.ar    1  UNL1        0.0795
     22 C          27.3101   73.9736    3.7815 C.ar    1  UNL1        0.2626
     23 H          28.4843   72.3577    3.4362 H       1  UNL1        0.1734
     24 O          22.2038   72.0245   -4.3971 O.3     1  UNL1       -0.2703
     25 P          20.7721   71.3404   -4.0874 P.3     1  UNL1        0.2208
     26 O          20.1456   72.2964   -2.9412 O.co2   1  UNL1       -0.4371
     27 O          20.8519   69.8901   -3.7074 O.2     1  UNL1       -0.5170
     28 O          19.8825   71.6408   -5.3992 O.3     1  UNL1       -0.2858
     29 O          18.5136   69.7236   -5.6430 O.3     1  UNL1       -0.3226
     30 O          17.0684   72.1749   -8.6382 O.3     1  UNL1       -0.3794
     31 O          19.9424   71.9550   -8.1622 O.3     1  UNL1       -0.3775
     32 O          15.5568   71.8289   -6.1793 O.3     1  UNL1       -0.3792
     33 C          17.6505   71.8704   -7.3707 C.3     1  UNL1        0.1718
     34 C          18.9593   71.1078   -7.5786 C.3     1  UNL1        0.1968
     35 C          16.6542   71.0137   -6.5863 C.3     1  UNL1        0.1723
     36 C          19.4932   70.5657   -6.2520 C.3     1  UNL1        0.2706
     37 C          17.2987   70.4072   -5.3432 C.3     1  UNL1        0.1830
     38 H          17.6839   72.7188   -9.1545 H       1  UNL1        0.2105
     39 H          19.6102   72.3028   -9.0042 H       1  UNL1        0.2106
     40 H          15.1378   72.2211   -6.9613 H       1  UNL1        0.2106
     41 O          16.2851   68.3164   -5.6635 O.co2   1  UNL1       -0.5466
     42 O          15.9391   69.3437   -3.6575 O.co2   1  UNL1       -0.5466
     43 C          16.4381   69.3273   -4.7727 C.2     1  UNL1        0.0799
@<TRIPOS>UNITY_ATOM_ATTR
2 1
charge -1
26 1
charge -1
41 1
charge -1
@<TRIPOS>BOND
     1     1     4    1
     2     1    24    1
     3     1     2    1
     4     1     3    2
     5    25    28    1
     6    25    24    1
     7    25    26    1
     8    25    27    2
     9     6    11    1
    10     6    12    1
    11    29    36    1
    12    29    37    1
    13     7     9    1
    14     7    13    1
    15     8    10    1
    16     8    14    1
    17     4     5    1
    18    28    36    1
    19    30    33    1
    20    30    38    1
    21    31    34    1
    22    31    39    1
    23    32    35    1
    24    32    40    1
    25    41    43   ar
    26    15    19    2
    27    42    43   ar
    28    16    22    2
    29    17    12    1
    30    17    19   ar
    31    17    20   ar
    32    18    19   ar
    33    18    22   ar
    34    18    23    1
    35     9    10    1
    36     9    11    1
    37    10    12    1
    38    11     5    1
    39    33    34    1
    40    33    35    1
    41    34    36    1
    42    35    37    1
    43    37    43    1
    44    20    21   ar
    45    21    22   ar
@<TRIPOS>MOLECULE
*****
 43 45 0 0 0
SMALL
GASTEIGER

@<TRIPOS>ATOM
      1 P          21.0541   72.9383   -2.2176 P.3     1  UNL1        0.2189
      2 O          20.6681   74.1695   -1.2409 O.co2   1  UNL1       -0.4371
      3 O          21.4864   73.3364   -3.5984 O.2     1  UNL1       -0.5170
      4 O          19.7667   71.9614   -2.1387 O.3     1  UNL1       -0.3112
      5 C          19.3199   71.3344   -3.3269 C.3     1  UNL1        0.1811
      6 O          17.5328   72.0328   -4.7747 O.3     1  UNL1       -0.3308
      7 O          15.7008   70.5503   -2.9206 O.3     1  UNL1       -0.3794
      8 O          15.9779   68.8102   -5.0018 O.3     1  UNL1       -0.3779
      9 C          17.0301   70.2257   -3.3281 C.3     1  UNL1        0.1713
     10 C          17.0318   69.7171   -4.7541 C.3     1  UNL1        0.1895
     11 C          17.8139   71.5252   -3.4523 C.3     1  UNL1        0.1764
     12 C          16.8939   71.0048   -5.5484 C.3     1  UNL1        0.2383
     13 H          15.1806   69.7356   -2.8345 H       1  UNL1        0.2105
     14 H          16.1115   68.0072   -4.4734 H       1  UNL1        0.2106
     15 O          15.6072   70.1444   -7.9107 O.2     1  UNL1       -0.2464
     16 O          19.4235   70.7430  -10.4249 O.2     1  UNL1       -0.2670
     17 N          17.5277   70.9261   -6.8341 N.ar    1  UNL1       -0.2551
     18 N          17.5094   70.4424   -9.1604 N.ar    1  UNL1       -0.2743
     19 C          16.7920   70.4806   -7.9576 C.ar    1  UNL1        0.3323
     20 C          18.8618   71.2892   -6.9731 C.ar    1  UNL1        0.0869
     21 C          19.5321   71.2476   -8.1262 C.ar    1  UNL1        0.0795
     22 C          18.8367   70.7927   -9.3481 C.ar    1  UNL1        0.2626
     23 H          17.0189   70.1336   -9.9562 H       1  UNL1        0.1734
     24 O          22.1710   72.1369   -1.3672 O.3     1  UNL1       -0.2703
     25 P          22.1060   71.4633    0.1010 P.3     1  UNL1        0.2208
     26 O          23.5129   70.6697    0.2065 O.co2   1  UNL1       -0.4371
     27 O          20.8944   70.6076    0.3328 O.2     1  UNL1       -0.5170
     28 O          22.2582   72.6999    1.1258 O.3     1  UNL1       -0.2858
     29 O          23.1834   74.8551    0.7971 O.3     1  UNL1       -0.3226
     30 O          24.1043   74.1404    4.7606 O.3     1  UNL1       -0.3794
     31 O          24.4001   72.0256    2.7669 O.3     1  UNL1       -0.3775
     32 O          21.9399   75.9540    4.0695 O.3     1  UNL1       -0.3792
     33 C          23.3274   74.0495    3.5664 C.3     1  UNL1        0.1718
     34 C          24.1592   73.3947    2.4633 C.3     1  UNL1        0.1968
     35 C          22.9221   75.4673    3.1569 C.3     1  UNL1        0.1723
     36 C          23.4473   73.4876    1.1130 C.3     1  UNL1        0.2706
     37 C          22.3351   75.4940    1.7486 C.3     1  UNL1        0.1830
     38 H          24.3733   73.2511    5.0400 H       1  UNL1        0.2105
     39 H          24.8514   71.9592    3.6227 H       1  UNL1        0.2106
     40 H          22.3009   75.9420    4.9697 H       1  UNL1        0.2106
     41 O          22.3920   76.9199   -0.1129 O.co2   1  UNL1       -0.5466
     42 O          22.0763   77.8861    1.9281 O.co2   1  UNL1       -0.5466
     43 C          22.2508   76.8947    1.2356 C.2     1  UNL1        0.0799
@<TRIPOS>UNITY_ATOM_ATTR
2 1
charge -1
26 1
charge -1
41 1
charge -1
@<TRIPOS>BOND
     1     1     4    1
     2     1    24    1
     3     1     2    1
     4     1     3    2
     5    25    28    1
     6    25    24    1
     7    25    26    1
     8    25    27    2
     9     6    11    1
    10     6    12    1
    11    29    36    1
    12    29    37    1
    13     7     9    1
    14     7    13    1
    15     8    10    1
    16     8    14    1
    17     4     5    1
    18    28    36    1
    19    30    33    1
    20    30    38    1
    21    31    34    1
    22    31    39    1
    23    32    35    1
    24    32    40    1
    25    41    43   ar
    26    15    19    2
    27    42    43   ar
    28    16    22    2
    29    17    12    1
    30    17    19   ar
    31    17    20   ar
    32    18    19   ar
    33    18    22   ar
    34    18    23    1
    35     9    10    1
    36     9    11    1
    37    10    12    1
    38    11     5    1
    39    33    34    1
    40    33    35    1
    41    34    36    1
    42    35    37    1
    43    37    43    1
    44    20    21   ar
    45    21    22   ar
@<TRIPOS>MOLECULE
*****
 43 45 0 0 0
SMALL
GASTEIGER

@<TRIPOS>ATOM
      1 P          19.5120   73.9987   -2.0201 P.3     1  UNL1        0.2189
      2 O          19.3329   74.2595   -0.4330 O.co2   1  UNL1       -0.4371
      3 O          19.7304   75.2335   -2.8443 O.2     1  UNL1       -0.5170
      4 O          18.2197   73.1092   -2.4159 O.3     1  UNL1       -0.3112
      5 C          18.2040   72.4625   -3.6753 C.3     1  UNL1        0.1811
      6 O          16.5280   71.7466   -5.2425 O.3     1  UNL1       -0.3308
      7 O          15.6222   69.8357   -3.1166 O.3     1  UNL1       -0.3794
      8 O          17.0795   68.2349   -4.7749 O.3     1  UNL1       -0.3779
      9 C          16.9446   70.2643   -3.4424 C.3     1  UNL1        0.1713
     10 C          17.4070   69.6078   -4.7259 C.3     1  UNL1        0.1895
     11 C          16.8776   71.7322   -3.8415 C.3     1  UNL1        0.1764
     12 C          16.6739   70.4219   -5.7785 C.3     1  UNL1        0.2383
     13 H          15.6395   68.9004   -2.8584 H       1  UNL1        0.2105
     14 H          17.5717   67.7604   -4.0861 H       1  UNL1        0.2106
     15 O          15.4647   70.5483   -8.3276 O.2     1  UNL1       -0.2464
     16 O          19.5487   70.7033  -10.4586 O.2     1  UNL1       -0.2670
     17 N          17.3975   70.4959   -7.0161 N.ar    1  UNL1       -0.2551
     18 N          17.4999   70.6243   -9.3866 N.ar    1  UNL1       -0.2743
     19 C          16.6942   70.5554   -8.2425 C.ar    1  UNL1        0.3323
     20 C          18.7869   70.5108   -7.0074 C.ar    1  UNL1        0.0869
     21 C          19.5413   70.5769   -8.1062 C.ar    1  UNL1        0.0795
     22 C          18.8847   70.6412   -9.4283 C.ar    1  UNL1        0.2626
     23 H          17.0329   70.6645  -10.2524 H       1  UNL1        0.1734
     24 O          20.7215   72.9280   -2.0777 O.3     1  UNL1       -0.2703
     25 P          21.0187   71.6132   -1.1851 P.3     1  UNL1        0.2208
     26 O          22.1805   70.8548   -2.0190 O.co2   1  UNL1       -0.4371
     27 O          19.8073   70.7713   -0.9066 O.2     1  UNL1       -0.5170
     28 O          21.7624   72.1727    0.1326 O.3     1  UNL1       -0.2858
     29 O          22.8955   70.8430    1.7317 O.3     1  UNL1       -0.3226
     30 O          21.8684   74.1588    3.9718 O.3     1  UNL1       -0.3794
     31 O          19.9629   72.9970    2.0866 O.3     1  UNL1       -0.3775
     32 O          24.6077   73.8006    3.0670 O.3     1  UNL1       -0.3792
     33 C          22.2403   73.4482    2.7908 C.3     1  UNL1        0.1718
     34 C          21.1861   72.3855    2.4796 C.3     1  UNL1        0.1968
     35 C          23.5997   72.7918    3.0423 C.3     1  UNL1        0.1723
     36 C          21.6599   71.4558    1.3616 C.3     1  UNL1        0.2706
     37 C          23.9434   71.7856    1.9478 C.3     1  UNL1        0.1830
     38 H          21.0072   74.5844    3.8356 H       1  UNL1        0.2105
     39 H          19.6566   73.5886    2.7913 H       1  UNL1        0.2106
     40 H          24.4007   74.4476    3.7594 H       1  UNL1        0.2106
     41 O          26.2626   71.5944    2.2415 O.co2   1  UNL1       -0.5466
     42 O          24.9950   69.7707    2.7577 O.co2   1  UNL1       -0.5466
     43 C          25.0907   70.9227    2.3618 C.2     1  UNL1        0.0799
@<TRIPOS>UNITY_ATOM_ATTR
2 1
charge -1
26 1
charge -1
41 1
charge -1
@<TRIPOS>BOND
     1     1     4    1
     2     1    24    1
     3     1     2    1
     4     1     3    2
     5    25    28    1
     6    25    24    1
     7    25    26    1
     8    25    27    2
     9     6    11    1
    10     6    12    1
    11    29    36    1
    12    29    37    1
    13     7     9    1
    14     7    13    1
    15     8    10    1
    16     8    14    1
    17     4     5    1
    18    28    36    1
    19    30    33    1
    20    30    38    1
    21    31    34    1
    22    31    39    1
    23    32    35    1
    24    32    40    1
    25    41    43   ar
    26    15    19    2
    27    42    43   ar
    28    16    22    2
    29    17    12    1
    30    17    19   ar
    31    17    20   ar
    32    18    19   ar
    33    18    22   ar
    34    18    23    1
    35     9    10    1
    36     9    11    1
    37    10    12    1
    38    11     5    1
    39    33    34    1
    40    33    35    1
    41    34    36    1
    42    35    37    1
    43    37    43    1
    44    20    21   ar
    45    21    22   ar
@<TRIPOS>MOLECULE
*****
 43 45 0 0 0
SMALL
GASTEIGER

@<TRIPOS>ATOM
      1 P          20.1778   71.3738   -2.6864 P.3     1  UNL1        0.2189
      2 O          19.2894   70.1273   -2.1613 O.co2   1  UNL1       -0.4371
      3 O          19.9479   72.6664   -1.9597 O.2     1  UNL1       -0.5170
      4 O          19.9001   71.4048   -4.2801 O.3     1  UNL1       -0.3112
      5 C          19.5663   70.1931   -4.9319 C.3     1  UNL1        0.1811
      6 O          17.6122   70.5053   -6.2964 O.3     1  UNL1       -0.3308
      7 O          19.4246   71.8784   -8.2512 O.3     1  UNL1       -0.3794
      8 O          18.2124   73.9710   -6.9911 O.3     1  UNL1       -0.3779
      9 C          19.4598   71.8905   -6.8239 C.3     1  UNL1        0.1713
     10 C          18.3450   72.7583   -6.2795 C.3     1  UNL1        0.1895
     11 C          19.0558   70.5073   -6.3323 C.3     1  UNL1        0.1764
     12 C          17.1352   71.8529   -6.4365 C.3     1  UNL1        0.2383
     13 H          19.6791   72.7519   -8.5887 H       1  UNL1        0.2105
     14 H          19.0074   74.5119   -6.8591 H       1  UNL1        0.2106
     15 O          14.9132   73.5588   -6.7956 O.2     1  UNL1       -0.2464
     16 O          13.3535   72.7243   -2.5394 O.2     1  UNL1       -0.2670
     17 N          16.1330   72.0996   -5.4387 N.ar    1  UNL1       -0.2551
     18 N          14.1390   73.1423   -4.6751 N.ar    1  UNL1       -0.2743
     19 C          15.0570   72.9743   -5.7202 C.ar    1  UNL1        0.3323
     20 C          16.2206   71.4777   -4.1991 C.ar    1  UNL1        0.0869
     21 C          15.3377   71.6476   -3.2130 C.ar    1  UNL1        0.0795
     22 C          14.1841   72.5462   -3.4252 C.ar    1  UNL1        0.2626
     23 H          13.3823   73.7483   -4.8468 H       1  UNL1        0.1734
     24 O          21.6889   70.8078   -2.5918 O.3     1  UNL1       -0.2703
     25 P          23.0959   71.5708   -2.3638 P.3     1  UNL1        0.2208
     26 O          22.8565   73.0072   -3.0707 O.co2   1  UNL1       -0.4371
     27 O          24.2925   70.8218   -2.8749 O.2     1  UNL1       -0.5170
     28 O          23.1340   71.8957   -0.7841 O.3     1  UNL1       -0.2858
     29 O          24.4696   70.8938    0.8956 O.3     1  UNL1       -0.3226
     30 O          21.0925   71.9525    3.0269 O.3     1  UNL1       -0.3794
     31 O          20.8547   70.7852    0.3594 O.3     1  UNL1       -0.3775
     32 O          23.5315   73.5126    3.2882 O.3     1  UNL1       -0.3792
     33 C          22.0814   72.0787    2.0051 C.3     1  UNL1        0.1718
     34 C          22.0593   70.8357    1.1152 C.3     1  UNL1        0.1968
     35 C          23.4458   72.2239    2.6828 C.3     1  UNL1        0.1723
     36 C          23.2500   70.8288    0.1555 C.3     1  UNL1        0.2706
     37 C          24.5851   72.0804    1.6779 C.3     1  UNL1        0.1830
     38 H          20.2168   71.8588    2.6198 H       1  UNL1        0.2105
     39 H          20.0950   70.7897    0.9621 H       1  UNL1        0.2106
     40 H          22.8117   73.6169    3.9300 H       1  UNL1        0.2106
     41 O          26.3031   73.0575    2.9409 O.co2   1  UNL1       -0.5466
     42 O          26.5078   70.8413    2.4453 O.co2   1  UNL1       -0.5466
     43 C          25.8909   71.8939    2.3795 C.2     1  UNL1        0.0799
@<TRIPOS>UNITY_ATOM_ATTR
2 1
charge -1
26 1
charge -1
41 1
charge -1
@<TRIPOS>BOND
     1     1     4    1
     2     1    24    1
     3     1     2    1
     4     1     3    2
     5    25    28    1
     6    25    24    1
     7    25    26    1
     8    25    27    2
     9     6    11    1
    10     6    12    1
    11    29    36    1
    12    29    37    1
    13     7     9    1
    14     7    13    1
    15     8    10    1
    16     8    14    1
    17     4     5    1
    18    28    36    1
    19    30    33    1
    20    30    38    1
    21    31    34    1
    22    31    39    1
    23    32    35    1
    24    32    40    1
    25    41    43   ar
    26    15    19    2
    27    42    43   ar
    28    16    22    2
    29    17    12    1
    30    17    19   ar
    31    17    20   ar
    32    18    19   ar
    33    18    22   ar
    34    18    23    1
    35     9    10    1
    36     9    11    1
    37    10    12    1
    38    11     5    1
    39    33    34    1
    40    33    35    1
    41    34    36    1
    42    35    37    1
    43    37    43    1
    44    20    21   ar
    45    21    22   ar
@<TRIPOS>MOLECULE
*****
 43 45 0 0 0
SMALL
GASTEIGER

@<TRIPOS>ATOM
      1 P          20.7619   72.6275   -3.9529 P.3     1  UNL1        0.2189
      2 O          20.2865   73.2466   -2.5353 O.co2   1  UNL1       -0.4371
      3 O          21.1708   73.6406   -4.9816 O.2     1  UNL1       -0.5170
      4 O          19.5457   71.6478   -4.3763 O.3     1  UNL1       -0.3112
      5 C          18.8944   70.9023   -3.3642 C.3     1  UNL1        0.1811
      6 O          17.1393   71.6369   -4.8331 O.3     1  UNL1       -0.3308
      7 O          15.3080   69.9065   -3.2071 O.3     1  UNL1       -0.3794
      8 O          15.7718   68.3741   -5.4145 O.3     1  UNL1       -0.3779
      9 C          16.6699   69.6858   -3.5747 C.3     1  UNL1        0.1713
     10 C          16.7631   69.3067   -5.0375 C.3     1  UNL1        0.1895
     11 C          17.3874   71.0284   -3.5472 C.3     1  UNL1        0.1764
     12 C          16.5921   70.6514   -5.7233 C.3     1  UNL1        0.2383
     13 H          14.8291   69.0626   -3.2176 H       1  UNL1        0.2105
     14 H          15.9245   67.5349   -4.9515 H       1  UNL1        0.2106
     15 O          15.7528   72.2028   -7.9291 O.2     1  UNL1       -0.2464
     16 O          19.3340   70.8338  -10.4874 O.2     1  UNL1       -0.2670
     17 N          17.2864   70.7188   -6.9780 N.ar    1  UNL1       -0.2551
     18 N          17.5367   71.5187   -9.2015 N.ar    1  UNL1       -0.2743
     19 C          16.7803   71.5286   -8.0222 C.ar    1  UNL1        0.3323
     20 C          18.4549   69.9901   -7.1642 C.ar    1  UNL1        0.0869
     21 C          19.1649   69.9908   -8.2940 C.ar    1  UNL1        0.0795
     22 C          18.7043   70.8100   -9.4342 C.ar    1  UNL1        0.2626
     23 H          17.2031   72.0733   -9.9434 H       1  UNL1        0.1734
     24 O          21.9287   71.5940   -3.5246 O.3     1  UNL1       -0.2703
     25 P          23.2878   71.8190   -2.6785 P.3     1  UNL1        0.2208
     26 O          23.7425   73.3144   -3.0999 O.co2   1  UNL1       -0.4371
     27 O          24.3351   70.7674   -2.9045 O.2     1  UNL1       -0.5170
     28 O          22.7985   71.9585   -1.1476 O.3     1  UNL1       -0.2858
     29 O          22.6533   73.8997    0.2014 O.3     1  UNL1       -0.3226
     30 O          23.4589   70.9810    3.0121 O.3     1  UNL1       -0.3794
     31 O          24.8624   70.9971    0.4500 O.3     1  UNL1       -0.3775
     32 O          20.7706   72.0572    2.7555 O.3     1  UNL1       -0.3792
     33 C          22.9155   71.5114    1.8033 C.3     1  UNL1        0.1718
     34 C          24.0457   72.0584    0.9310 C.3     1  UNL1        0.1968
     35 C          21.9402   72.6308    2.1745 C.3     1  UNL1        0.1723
     36 C          23.4885   72.8376   -0.2612 C.3     1  UNL1        0.2706
     37 C          21.5288   73.4405    0.9482 C.3     1  UNL1        0.1830
     38 H          24.0819   70.2678    2.8012 H       1  UNL1        0.2105
     39 H          25.2190   70.4982    1.2012 H       1  UNL1        0.2106
     40 H          21.0187   71.5390    3.5370 H       1  UNL1        0.2106
     41 O          20.4159   75.3883    0.2634 O.co2   1  UNL1       -0.5466
     42 O          20.7097   75.0919    2.5050 O.co2   1  UNL1       -0.5466
     43 C          20.8538   74.7104    1.3532 C.2     1  UNL1        0.0799
@<TRIPOS>UNITY_ATOM_ATTR
2 1
charge -1
26 1
charge -1
41 1
charge -1
@<TRIPOS>BOND
     1     1     4    1
     2     1    24    1
     3     1     2    1
     4     1     3    2
     5    25    28    1
     6    25    24    1
     7    25    26    1
     8    25    27    2
     9     6    11    1
    10     6    12    1
    11    29    36    1
    12    29    37    1
    13     7     9    1
    14     7    13    1
    15     8    10    1
    16     8    14    1
    17     4     5    1
    18    28    36    1
    19    30    33    1
    20    30    38    1
    21    31    34    1
    22    31    39    1
    23    32    35    1
    24    32    40    1
    25    41    43   ar
    26    15    19    2
    27    42    43   ar
    28    16    22    2
    29    17    12    1
    30    17    19   ar
    31    17    20   ar
    32    18    19   ar
    33    18    22   ar
    34    18    23    1
    35     9    10    1
    36     9    11    1
    37    10    12    1
    38    11     5    1
    39    33    34    1
    40    33    35    1
    41    34    36    1
    42    35    37    1
    43    37    43    1
    44    20    21   ar
    45    21    22   ar
@<TRIPOS>MOLECULE
*****
 43 45 0 0 0
SMALL
GASTEIGER

@<TRIPOS>ATOM
      1 P          23.4472   72.3293   -3.4589 P.3     1  UNL1        0.2189
      2 O          24.0690   70.8563   -3.2085 O.co2   1  UNL1       -0.4371
      3 O          24.4311   73.3611   -3.9269 O.2     1  UNL1       -0.5170
      4 O          22.6793   72.6672   -2.0754 O.3     1  UNL1       -0.3112
      5 C          23.4401   72.7595   -0.8850 C.3     1  UNL1        0.1811
      6 O          24.4764   71.2523    0.6746 O.3     1  UNL1       -0.3308
      7 O          21.7172   70.2104    1.2154 O.3     1  UNL1       -0.3794
      8 O          22.1612   71.8548    3.3449 O.3     1  UNL1       -0.3779
      9 C          22.1401   71.5446    0.9334 C.3     1  UNL1        0.1713
     10 C          22.8379   72.1390    2.1384 C.3     1  UNL1        0.1895
     11 C          23.2690   71.4740   -0.0859 C.3     1  UNL1        0.1764
     12 C          24.2059   71.4821    2.0665 C.3     1  UNL1        0.2383
     13 H          20.9961   70.2298    1.8646 H       1  UNL1        0.2105
     14 H          21.2964   72.2955    3.3421 H       1  UNL1        0.2106
     15 O          26.8848   70.6620    2.4236 O.2     1  UNL1       -0.2464
     16 O          28.0954   74.7515    4.1712 O.2     1  UNL1       -0.2670
     17 N          25.2419   72.3124    2.6126 N.ar    1  UNL1       -0.2551
     18 N          27.4850   72.6993    3.2946 N.ar    1  UNL1       -0.2743
     19 C          26.5551   71.8038    2.7500 C.ar    1  UNL1        0.3323
     20 C          24.9535   73.6142    3.0037 C.ar    1  UNL1        0.0869
     21 C          25.8504   74.4560    3.5210 C.ar    1  UNL1        0.0795
     22 C          27.2455   74.0027    3.6988 C.ar    1  UNL1        0.2626
     23 H          28.4056   72.3672    3.4018 H       1  UNL1        0.1734
     24 O          22.2337   72.0409   -4.4870 O.3     1  UNL1       -0.2703
     25 P          21.5645   72.9717   -5.6270 P.3     1  UNL1        0.2208
     26 O          22.5062   72.7107   -6.9175 O.co2   1  UNL1       -0.4371
     27 O          21.4300   74.4165   -5.2417 O.2     1  UNL1       -0.5170
     28 O          20.1711   72.2419   -5.9854 O.3     1  UNL1       -0.2858
     29 O          19.4835   70.0373   -5.4603 O.3     1  UNL1       -0.3226
     30 O          17.4588   70.7302   -8.9942 O.3     1  UNL1       -0.3794
     31 O          20.2360   71.5832   -8.6868 O.3     1  UNL1       -0.3775
     32 O          16.0384   70.8094   -6.4591 O.3     1  UNL1       -0.3792
     33 C          18.0577   71.0776   -7.7457 C.3     1  UNL1        0.1718
     34 C          19.5466   70.7319   -7.7786 C.3     1  UNL1        0.1968
     35 C          17.3510   70.2832   -6.6450 C.3     1  UNL1        0.1723
     36 C          20.1721   70.8742   -6.3903 C.3     1  UNL1        0.2706
     37 C          18.1048   70.3736   -5.3213 C.3     1  UNL1        0.1830
     38 H          17.8919   71.2230   -9.7090 H       1  UNL1        0.2105
     39 H          19.8441   71.4982   -9.5698 H       1  UNL1        0.2106
     40 H          15.5480   70.7578   -7.2944 H       1  UNL1        0.2106
     41 O          18.3247   69.3837   -3.2064 O.co2   1  UNL1       -0.5466
     42 O          16.6758   68.5836   -4.5630 O.co2   1  UNL1       -0.5466
     43 C          17.6053   69.3491   -4.3554 C.2     1  UNL1        0.0799
@<TRIPOS>UNITY_ATOM_ATTR
2 1
charge -1
26 1
charge -1
41 1
charge -1
@<TRIPOS>BOND
     1     1     4    1
     2     1    24    1
     3     1     2    1
     4     1     3    2
     5    25    28    1
     6    25    24    1
     7    25    26    1
     8    25    27    2
     9     6    11    1
    10     6    12    1
    11    29    36    1
    12    29    37    1
    13     7     9    1
    14     7    13    1
    15     8    10    1
    16     8    14    1
    17     4     5    1
    18    28    36    1
    19    30    33    1
    20    30    38    1
    21    31    34    1
    22    31    39    1
    23    32    35    1
    24    32    40    1
    25    41    43   ar
    26    15    19    2
    27    42    43   ar
    28    16    22    2
    29    17    12    1
    30    17    19   ar
    31    17    20   ar
    32    18    19   ar
    33    18    22   ar
    34    18    23    1
    35     9    10    1
    36     9    11    1
    37    10    12    1
    38    11     5    1
    39    33    34    1
    40    33    35    1
    41    34    36    1
    42    35    37    1
    43    37    43    1
    44    20    21   ar
    45    21    22   ar
@<TRIPOS>MOLECULE
*****
 43 45 0 0 0
SMALL
GASTEIGER

@<TRIPOS>ATOM
      1 P          20.8083   71.0476   -1.1221 P.3     1  UNL1        0.2189
      2 O          22.0836   70.6313   -2.0272 O.co2   1  UNL1       -0.4371
      3 O          20.9675   70.7993    0.3492 O.2     1  UNL1       -0.5170
      4 O          19.5654   70.2929   -1.8317 O.3     1  UNL1       -0.3112
      5 C          19.2655   70.6047   -3.1798 C.3     1  UNL1        0.1811
      6 O          17.5649   71.6052   -4.5525 O.3     1  UNL1       -0.3308
      7 O          15.5896   70.0675   -2.9017 O.3     1  UNL1       -0.3794
      8 O          15.7695   68.5638   -5.1694 O.3     1  UNL1       -0.3779
      9 C          16.8971   69.6882   -3.3319 C.3     1  UNL1        0.1713
     10 C          16.8857   69.3497   -4.8076 C.3     1  UNL1        0.1895
     11 C          17.7813   70.9272   -3.2960 C.3     1  UNL1        0.1764
     12 C          16.8627   70.7276   -5.4470 C.3     1  UNL1        0.2383
     13 H          15.0064   69.2920   -2.9162 H       1  UNL1        0.2105
     14 H          15.8307   67.6969   -4.7373 H       1  UNL1        0.2106
     15 O          15.5925   70.0994   -7.8900 O.2     1  UNL1       -0.2464
     16 O          19.4522   70.8411  -10.2977 O.2     1  UNL1       -0.2670
     17 N          17.5121   70.7485   -6.7271 N.ar    1  UNL1       -0.2551
     18 N          17.5163   70.4684   -9.0867 N.ar    1  UNL1       -0.2743
     19 C          16.7836   70.4159   -7.8937 C.ar    1  UNL1        0.3323
     20 C          18.8542   71.0970   -6.8184 C.ar    1  UNL1        0.0869
     21 C          19.5390   71.1427   -7.9628 C.ar    1  UNL1        0.0795
     22 C          18.8520   70.8085   -9.2277 C.ar    1  UNL1        0.2626
     23 H          17.0310   70.2390   -9.9121 H       1  UNL1        0.1734
     24 O          20.5696   72.5956   -1.5217 O.3     1  UNL1       -0.2703
     25 P          20.8621   73.9599   -0.7052 P.3     1  UNL1        0.2208
     26 O          22.3158   73.6917   -0.0456 O.co2   1  UNL1       -0.4371
     27 O          19.7930   74.3275    0.2828 O.2     1  UNL1       -0.5170
     28 O          21.1305   75.0695   -1.8449 O.3     1  UNL1       -0.2858
     29 O          23.0477   74.3017   -3.0042 O.3     1  UNL1       -0.3226
     30 O          22.0129   77.6391   -5.2085 O.3     1  UNL1       -0.3794
     31 O          21.9104   77.7020   -2.2896 O.3     1  UNL1       -0.3775
     32 O          21.4411   74.9791   -6.2326 O.3     1  UNL1       -0.3792
     33 C          21.7773   76.4939   -4.3894 C.3     1  UNL1        0.1718
     34 C          22.5052   76.6605   -3.0552 C.3     1  UNL1        0.1968
     35 C          22.3036   75.2642   -5.1329 C.3     1  UNL1        0.1723
     36 C          22.4675   75.3635   -2.2458 C.3     1  UNL1        0.2706
     37 C          22.3528   74.0411   -4.2218 C.3     1  UNL1        0.1830
     38 H          21.6866   78.4330   -4.7563 H       1  UNL1        0.2105
     39 H          21.9306   78.5280   -2.7974 H       1  UNL1        0.2106
     40 H          21.4008   75.7498   -6.8202 H       1  UNL1        0.2106
     41 O          24.2113   72.6207   -4.0493 O.co2   1  UNL1       -0.5466
     42 O          22.9174   72.4185   -5.9158 O.co2   1  UNL1       -0.5466
     43 C          23.1619   72.9493   -4.8428 C.2     1  UNL1        0.0799
@<TRIPOS>UNITY_ATOM_ATTR
2 1
charge -1
26 1
charge -1
41 1
charge -1
@<TRIPOS>BOND
     1     1     4    1
     2     1    24    1
     3     1     2    1
     4     1     3    2
     5    25    28    1
     6    25    24    1
     7    25    26    1
     8    25    27    2
     9     6    11    1
    10     6    12    1
    11    29    36    1
    12    29    37    1
    13     7     9    1
    14     7    13    1
    15     8    10    1
    16     8    14    1
    17     4     5    1
    18    28    36    1
    19    30    33    1
    20    30    38    1
    21    31    34    1
    22    31    39    1
    23    32    35    1
    24    32    40    1
    25    41    43   ar
    26    15    19    2
    27    42    43   ar
    28    16    22    2
    29    17    12    1
    30    17    19   ar
    31    17    20   ar
    32    18    19   ar
    33    18    22   ar
    34    18    23    1
    35     9    10    1
    36     9    11    1
    37    10    12    1
    38    11     5    1
    39    33    34    1
    40    33    35    1
    41    34    36    1
    42    35    37    1
    43    37    43    1
    44    20    21   ar
    45    21    22   ar
@<TRIPOS>MOLECULE
*****
 43 45 0 0 0
SMALL
GASTEIGER

@<TRIPOS>ATOM
      1 P          20.6281   73.0961   -2.8600 P.3     1  UNL1        0.2189
      2 O          19.2495   72.2499   -2.9089 O.co2   1  UNL1       -0.4371
      3 O          20.7390   74.0610   -1.7162 O.2     1  UNL1       -0.5170
      4 O          20.7392   73.7435   -4.3387 O.3     1  UNL1       -0.3112
      5 C          20.8315   72.8741   -5.4523 C.3     1  UNL1        0.1811
      6 O          19.3742   72.4793   -7.3225 O.3     1  UNL1       -0.3308
      7 O          18.9046   75.4408   -7.3436 O.3     1  UNL1       -0.3794
      8 O          16.6711   74.4922   -6.0995 O.3     1  UNL1       -0.3779
      9 C          19.0979   74.5644   -6.2332 C.3     1  UNL1        0.1713
     10 C          17.8560   73.7299   -6.0017 C.3     1  UNL1        0.1895
     11 C          20.1190   73.5103   -6.6388 C.3     1  UNL1        0.1764
     12 C          17.9703   72.6837   -7.0973 C.3     1  UNL1        0.2383
     13 H          18.2559   76.1231   -7.1083 H       1  UNL1        0.2105
     14 H          16.6454   75.1434   -5.3802 H       1  UNL1        0.2106
     15 O          15.6258   71.6303   -8.2679 O.2     1  UNL1       -0.2464
     16 O          15.7575   67.8784   -5.5939 O.2     1  UNL1       -0.2670
     17 N          17.3701   71.4336   -6.7260 N.ar    1  UNL1       -0.2551
     18 N          15.6931   69.7631   -6.9343 N.ar    1  UNL1       -0.2743
     19 C          16.1922   70.9955   -7.3762 C.ar    1  UNL1        0.3323
     20 C          17.9478   70.6555   -5.7301 C.ar    1  UNL1        0.0869
     21 C          17.4605   69.4829   -5.3198 C.ar    1  UNL1        0.0795
     22 C          16.2319   68.9537   -5.9473 C.ar    1  UNL1        0.2626
     23 H          14.8725   69.4383   -7.3707 H       1  UNL1        0.1734
     24 O          21.7619   71.9442   -2.8816 O.3     1  UNL1       -0.2703
     25 P          23.3236   71.9840   -2.4653 P.3     1  UNL1        0.2208
     26 O          23.8158   73.4253   -3.0135 O.co2   1  UNL1       -0.4371
     27 O          24.1263   70.8218   -2.9740 O.2     1  UNL1       -0.5170
     28 O          23.3152   72.1403   -0.8597 O.3     1  UNL1       -0.2858
     29 O          24.5777   70.9952    0.7848 O.3     1  UNL1       -0.3226
     30 O          21.0438   71.7262    2.7961 O.3     1  UNL1       -0.3794
     31 O          21.0079   70.8525    0.0086 O.3     1  UNL1       -0.3775
     32 O          23.4099   73.3108    3.3802 O.3     1  UNL1       -0.3792
     33 C          22.0887   71.9892    1.8595 C.3     1  UNL1        0.1718
     34 C          22.1617   70.8511    0.8413 C.3     1  UNL1        0.1968
     35 C          23.4036   72.0945    2.6353 C.3     1  UNL1        0.1723
     36 C          23.4084   70.9801   -0.0350 C.3     1  UNL1        0.2706
     37 C          24.6063   72.0915    1.6961 C.3     1  UNL1        0.1830
     38 H          20.1982   71.6551    2.3258 H       1  UNL1        0.2105
     39 H          20.2130   70.7712    0.5581 H       1  UNL1        0.2106
     40 H          22.6492   73.3255    3.9819 H       1  UNL1        0.2106
     41 O          26.2438   72.9879    3.1161 O.co2   1  UNL1       -0.5466
     42 O          26.4922   70.8106    2.4861 O.co2   1  UNL1       -0.5466
     43 C          25.8722   71.8631    2.4560 C.2     1  UNL1        0.0799
@<TRIPOS>UNITY_ATOM_ATTR
2 1
charge -1
26 1
charge -1
41 1
charge -1
@<TRIPOS>BOND
     1     1     4    1
     2     1    24    1
     3     1     2    1
     4     1     3    2
     5    25    28    1
     6    25    24    1
     7    25    26    1
     8    25    27    2
     9     6    11    1
    10     6    12    1
    11    29    36    1
    12    29    37    1
    13     7     9    1
    14     7    13    1
    15     8    10    1
    16     8    14    1
    17     4     5    1
    18    28    36    1
    19    30    33    1
    20    30    38    1
    21    31    34    1
    22    31    39    1
    23    32    35    1
    24    32    40    1
    25    41    43   ar
    26    15    19    2
    27    42    43   ar
    28    16    22    2
    29    17    12    1
    30    17    19   ar
    31    17    20   ar
    32    18    19   ar
    33    18    22   ar
    34    18    23    1
    35     9    10    1
    36     9    11    1
    37    10    12    1
    38    11     5    1
    39    33    34    1
    40    33    35    1
    41    34    36    1
    42    35    37    1
    43    37    43    1
    44    20    21   ar
    45    21    22   ar
@<TRIPOS>MOLECULE
*****
 43 45 0 0 0
SMALL
GASTEIGER

@<TRIPOS>ATOM
      1 P          21.8527   72.4938   -5.6741 P.3     1  UNL1        0.2189
      2 O          21.2007   73.9340   -5.3283 O.co2   1  UNL1       -0.4371
      3 O          23.0879   72.5453   -6.5246 O.2     1  UNL1       -0.5170
      4 O          20.6170   71.6434   -6.2806 O.3     1  UNL1       -0.3112
      5 C          20.1134   71.9980   -7.5554 C.3     1  UNL1        0.1811
      6 O          18.9074   69.9613   -7.1369 O.3     1  UNL1       -0.3308
      7 O          18.1398   70.0392  -10.0346 O.3     1  UNL1       -0.3794
      8 O          15.8986   70.9806   -8.7989 O.3     1  UNL1       -0.3779
      9 C          18.3056   71.1182   -9.1144 C.3     1  UNL1        0.1713
     10 C          17.1390   71.1692   -8.1506 C.3     1  UNL1        0.1895
     11 C          19.4666   70.7743   -8.1913 C.3     1  UNL1        0.1764
     12 C          17.4742   70.0411   -7.1899 C.3     1  UNL1        0.2383
     13 H          17.4033   70.2361  -10.6349 H       1  UNL1        0.2105
     14 H          15.7310   71.7248   -9.3990 H       1  UNL1        0.2106
     15 O          16.3125   68.0619   -5.5437 O.2     1  UNL1       -0.2464
     16 O          15.5763   71.0721   -2.1320 O.2     1  UNL1       -0.2670
     17 N          16.9706   70.2802   -5.8670 N.ar    1  UNL1       -0.2551
     18 N          15.9460   69.5633   -3.8464 N.ar    1  UNL1       -0.2743
     19 C          16.4060   69.2167   -5.1237 C.ar    1  UNL1        0.3323
     20 C          17.0401   71.5550   -5.3183 C.ar    1  UNL1        0.0869
     21 C          16.5976   71.8699   -4.0994 C.ar    1  UNL1        0.0795
     22 C          15.9928   70.8166   -3.2578 C.ar    1  UNL1        0.2626
     23 H          15.5470   68.8399   -3.3108 H       1  UNL1        0.1734
     24 O          22.0670   71.8327   -4.2147 O.3     1  UNL1       -0.2703
     25 P          23.2766   71.9763   -3.1517 P.3     1  UNL1        0.2208
     26 O          23.9761   73.3737   -3.5739 O.co2   1  UNL1       -0.4371
     27 O          24.2111   70.8018   -3.1198 O.2     1  UNL1       -0.5170
     28 O          22.5508   72.2927   -1.7461 O.3     1  UNL1       -0.2858
     29 O          23.0387   70.7086   -0.0545 O.3     1  UNL1       -0.3226
     30 O          20.0799   72.9677    1.7374 O.3     1  UNL1       -0.3794
     31 O          19.8547   72.1912   -1.0699 O.3     1  UNL1       -0.3775
     32 O          22.8575   73.3145    2.5221 O.3     1  UNL1       -0.3792
     33 C          21.1955   72.7255    0.8802 C.3     1  UNL1        0.1718
     34 C          20.8204   71.6724   -0.1628 C.3     1  UNL1        0.1968
     35 C          22.3568   72.2288    1.7443 C.3     1  UNL1        0.1723
     36 C          22.0508   71.2197   -0.9502 C.3     1  UNL1        0.2706
     37 C          23.4930   71.6780    0.8874 C.3     1  UNL1        0.1830
     38 H          19.3295   73.2842    1.2101 H       1  UNL1        0.2105
     39 H          19.0714   72.4806   -0.5770 H       1  UNL1        0.2106
     40 H          22.1441   73.6743    3.0721 H       1  UNL1        0.2106
     41 O          25.5558   70.5671    0.9976 O.co2   1  UNL1       -0.5466
     42 O          24.2983   70.6169    2.8991 O.co2   1  UNL1       -0.5466
     43 C          24.4612   70.9057    1.7230 C.2     1  UNL1        0.0799
@<TRIPOS>UNITY_ATOM_ATTR
2 1
charge -1
26 1
charge -1
41 1
charge -1
@<TRIPOS>BOND
     1     1     4    1
     2     1    24    1
     3     1     2    1
     4     1     3    2
     5    25    28    1
     6    25    24    1
     7    25    26    1
     8    25    27    2
     9     6    11    1
    10     6    12    1
    11    29    36    1
    12    29    37    1
    13     7     9    1
    14     7    13    1
    15     8    10    1
    16     8    14    1
    17     4     5    1
    18    28    36    1
    19    30    33    1
    20    30    38    1
    21    31    34    1
    22    31    39    1
    23    32    35    1
    24    32    40    1
    25    41    43   ar
    26    15    19    2
    27    42    43   ar
    28    16    22    2
    29    17    12    1
    30    17    19   ar
    31    17    20   ar
    32    18    19   ar
    33    18    22   ar
    34    18    23    1
    35     9    10    1
    36     9    11    1
    37    10    12    1
    38    11     5    1
    39    33    34    1
    40    33    35    1
    41    34    36    1
    42    35    37    1
    43    37    43    1
    44    20    21   ar
    45    21    22   ar
