@<TRIPOS>MOLECULE
GDU
 43 45 0 0 0
SMALL
GASTEIGER

@<TRIPOS>ATOM
      1 P          22.1520   70.7980   -2.5171 P.3     1  UNL1        0.2189
      2 O          21.5208   69.5843   -1.9531 O.2     1  UNL1       -0.5170
      3 O          23.5308   70.3965   -3.2457 O.3     1  UNL1       -0.4371
      4 O          21.1575   71.4736   -3.5854 O.3     1  UNL1       -0.3112
      5 C          20.1949   72.2207   -2.8398 C.3     1  UNL1        0.1811
      6 C          17.9333   71.2873   -5.4744 C.3     1  UNL1        0.2383
      7 C          18.0314   70.0248   -4.5804 C.3     1  UNL1        0.1895
      8 O          16.8103   69.2824   -4.6106 O.3     1  UNL1       -0.3779
      9 C          18.2709   70.6387   -3.1764 C.3     1  UNL1        0.1713
     10 C          18.8127   72.0496   -3.4724 C.3     1  UNL1        0.1764
     11 O          18.9094   72.1829   -4.9010 O.3     1  UNL1       -0.3308
     12 O          17.0447   70.7093   -2.4462 O.3     1  UNL1       -0.3794
     13 H          16.9371   68.5136   -4.0373 H       1  UNL1        0.2106
     14 H          16.7266   69.8021   -2.3446 H       1  UNL1        0.2105
     15 N          18.2779   70.9682   -6.8609 N.ar    1  UNL1       -0.2551
     16 C          17.3054   70.6496   -7.7333 C.ar    1  UNL1        0.3323
     17 N          17.5949   70.3555   -9.0145 N.ar    1  UNL1       -0.2743
     18 C          18.8719   70.3663   -9.4428 C.ar    1  UNL1        0.2626
     19 C          19.9072   70.6945   -8.5336 C.ar    1  UNL1        0.0795
     20 C          19.5886   70.9894   -7.2554 C.ar    1  UNL1        0.0869
     21 O          16.1488   70.6362   -7.3617 O.2     1  UNL1       -0.2464
     22 O          19.1353   70.0956  -10.6012 O.2     1  UNL1       -0.2670
     23 H          16.8800   70.1320   -9.6316 H       1  UNL1        0.1734
     24 O          22.4579   71.8430   -1.3310 O.3     1  UNL1       -0.2703
     25 P          22.3840   71.0178    0.0487 P.3     1  UNL1        0.2208
     26 O          21.0624   70.3622    0.1609 O.2     1  UNL1       -0.5170
     27 O          23.5413   69.8977    0.0664 O.3     1  UNL1       -0.4371
     28 O          22.5926   72.0228    1.2882 O.3     1  UNL1       -0.2858
     29 C          21.2935   72.3332    1.7939 C.3     1  UNL1        0.2704
     30 C          20.8566   73.7018    1.2692 C.3     1  UNL1        0.1967
     31 C          21.8760   74.7550    1.7140 C.3     1  UNL1        0.1715
     32 C          22.0440   74.6628    3.2348 C.3     1  UNL1        0.1694
     33 C          22.3932   73.2206    3.6104 C.3     1  UNL1        0.1761
     34 O          20.7917   73.6689   -0.1577 O.3     1  UNL1       -0.3775
     35 O          21.4070   76.0574    1.3584 O.3     1  UNL1       -0.3794
     36 O          20.8260   75.0467    3.8743 O.3     1  UNL1       -0.3794
     37 O          21.3320   72.3509    3.2190 O.3     1  UNL1       -0.3258
     38 H          20.1452   72.9892   -0.3919 H       1  UNL1        0.2106
     39 H          21.3047   76.0656    0.3984 H       1  UNL1        0.2105
     40 H          20.6432   75.9564    3.6052 H       1  UNL1        0.2105
     41 C          22.5970   73.1247    5.1241 C.3     1  UNL1        0.1693
     42 O          21.3274   73.0040    5.7681 O.3     1  UNL1       -0.3794
     43 H          21.4998   72.9457    6.7179 H       1  UNL1        0.2105
@<TRIPOS>BOND
     1    15    16   ar
     2    15    20   ar
     3    15     6    1
     4    16    17   ar
     5    16    21    2
     6    17    18   ar
     7    17    23    1
     8    18    19   ar
     9    18    22    2
    10    19    20   ar
    11     6     7    1
    12     6    11    1
    13     7     8    1
    14     7     9    1
    15     8    13    1
    16     9    10    1
    17     9    12    1
    18    10    11    1
    19    10     5    1
    20    12    14    1
    21     5     4    1
    22     4     1    1
    23     1     2    2
    24     1     3    1
    25     1    24    1
    26    24    25    1
    27    25    26    2
    28    25    27    1
    29    25    28    1
    30    28    29    1
    31    29    30    1
    32    29    37    1
    33    30    31    1
    34    30    34    1
    35    31    32    1
    36    31    35    1
    37    32    33    1
    38    32    36    1
    39    33    41    1
    40    33    37    1
    41    41    42    1
    42    34    38    1
    43    35    39    1
    44    36    40    1
    45    42    43    1
@<TRIPOS>MOLECULE
GDU
 43 45 0 0 0
SMALL
GASTEIGER

@<TRIPOS>ATOM
      1 P          22.3950   72.4103   -3.0164 P.3     1  UNL1        0.2189
      2 O          23.4962   71.6186   -3.6080 O.2     1  UNL1       -0.5170
      3 O          22.4529   73.9167   -3.5824 O.3     1  UNL1       -0.4371
      4 O          20.9843   71.7440   -3.4075 O.3     1  UNL1       -0.3112
      5 C          19.9701   72.5091   -2.7545 C.3     1  UNL1        0.1811
      6 C          17.8412   71.3826   -5.4239 C.3     1  UNL1        0.2383
      7 C          17.9946   70.1468   -4.5006 C.3     1  UNL1        0.1895
      8 O          16.8235   69.3285   -4.5452 O.3     1  UNL1       -0.3779
      9 C          18.1583   70.8025   -3.1047 C.3     1  UNL1        0.1713
     10 C          18.6183   72.2386   -3.4174 C.3     1  UNL1        0.1764
     11 O          18.7439   72.3492   -4.8458 O.3     1  UNL1       -0.3308
     12 O          16.9113   70.8102   -2.4070 O.3     1  UNL1       -0.3794
     13 H          16.9831   68.5807   -3.9525 H       1  UNL1        0.2106
     14 H          16.6481   69.8869   -2.2938 H       1  UNL1        0.2105
     15 N          18.2412   71.0582   -6.7941 N.ar    1  UNL1       -0.2551
     16 C          17.3092   70.6933   -7.6922 C.ar    1  UNL1        0.3323
     17 N          17.6500   70.3934   -8.9594 N.ar    1  UNL1       -0.2743
     18 C          18.9389   70.4448   -9.3473 C.ar    1  UNL1        0.2626
     19 C          19.9321   70.8220   -8.4105 C.ar    1  UNL1        0.0795
     20 C          19.5623   71.1218   -7.1472 C.ar    1  UNL1        0.0869
     21 O          16.1425   70.6428   -7.3572 O.2     1  UNL1       -0.2464
     22 O          19.2489   70.1689  -10.4928 O.2     1  UNL1       -0.2670
     23 H          16.9638   70.1361   -9.5955 H       1  UNL1        0.1734
     24 O          22.5529   72.4340   -1.4143 O.3     1  UNL1       -0.2703
     25 P          22.7632   73.9718   -0.9888 P.3     1  UNL1        0.2208
     26 O          24.2059   74.2986   -1.0183 O.2     1  UNL1       -0.5170
     27 O          21.9761   74.9261   -2.0203 O.3     1  UNL1       -0.4371
     28 O          22.1901   74.2018    0.4973 O.3     1  UNL1       -0.2858
     29 C          22.9313   73.3434    1.3654 C.3     1  UNL1        0.2704
     30 C          21.9703   72.4007    2.0915 C.3     1  UNL1        0.1967
     31 C          20.9609   73.2338    2.8874 C.3     1  UNL1        0.1715
     32 C          21.7304   74.2038    3.7911 C.3     1  UNL1        0.1694
     33 C          22.7089   75.0117    2.9350 C.3     1  UNL1        0.1761
     34 O          21.2795   71.5930    1.1367 O.3     1  UNL1       -0.3775
     35 O          20.1497   72.3702    3.6865 O.3     1  UNL1       -0.3794
     36 O          22.4497   73.4665    4.7804 O.3     1  UNL1       -0.3794
     37 O          23.6454   74.1320    2.3145 O.3     1  UNL1       -0.3258
     38 H          21.9526   71.0928    0.6554 H       1  UNL1        0.2106
     39 H          19.6954   71.7722    3.0797 H       1  UNL1        0.2105
     40 H          21.7960   72.9703    5.2900 H       1  UNL1        0.2105
     41 C          23.4582   76.0078    3.8228 C.3     1  UNL1        0.1693
     42 O          22.6241   76.3898    4.9179 O.3     1  UNL1       -0.3794
     43 H          23.1325   77.0157    5.4519 H       1  UNL1        0.2105
@<TRIPOS>BOND
     1    15    16   ar
     2    15    20   ar
     3    15     6    1
     4    16    17   ar
     5    16    21    2
     6    17    18   ar
     7    17    23    1
     8    18    19   ar
     9    18    22    2
    10    19    20   ar
    11     6     7    1
    12     6    11    1
    13     7     8    1
    14     7     9    1
    15     8    13    1
    16     9    10    1
    17     9    12    1
    18    10    11    1
    19    10     5    1
    20    12    14    1
    21     5     4    1
    22     4     1    1
    23     1     2    2
    24     1     3    1
    25     1    24    1
    26    24    25    1
    27    25    26    2
    28    25    27    1
    29    25    28    1
    30    28    29    1
    31    29    30    1
    32    29    37    1
    33    30    31    1
    34    30    34    1
    35    31    32    1
    36    31    35    1
    37    32    33    1
    38    32    36    1
    39    33    41    1
    40    33    37    1
    41    41    42    1
    42    34    38    1
    43    35    39    1
    44    36    40    1
    45    42    43    1
@<TRIPOS>MOLECULE
GDU
 43 45 0 0 0
SMALL
GASTEIGER

@<TRIPOS>ATOM
      1 P          21.9492   70.8321   -0.4604 P.3     1  UNL1        0.2189
      2 O          21.2586   69.5342   -0.2933 O.2     1  UNL1       -0.5170
      3 O          23.4216   70.5829   -1.0628 O.3     1  UNL1       -0.4371
      4 O          21.1079   71.7625   -1.4672 O.3     1  UNL1       -0.3112
      5 C          20.8651   70.9869   -2.6419 C.3     1  UNL1        0.1811
      6 C          18.3349   71.1052   -5.1937 C.3     1  UNL1        0.2383
      7 C          18.0928   69.7570   -4.4679 C.3     1  UNL1        0.1895
      8 O          16.7079   69.4042   -4.4960 O.3     1  UNL1       -0.3779
      9 C          18.5522   70.0793   -3.0221 C.3     1  UNL1        0.1713
     10 C          19.4709   71.3044   -3.1856 C.3     1  UNL1        0.1764
     11 O          19.5501   71.5988   -4.5911 O.3     1  UNL1       -0.3308
     12 O          17.4275   70.3954   -2.1993 O.3     1  UNL1       -0.3794
     13 H          16.6257   68.5602   -4.0306 H       1  UNL1        0.2106
     14 H          16.8624   69.6111   -2.1841 H       1  UNL1        0.2105
     15 N          18.5204   70.8941   -6.6303 N.ar    1  UNL1       -0.2551
     16 C          17.4470   70.8079   -7.4357 C.ar    1  UNL1        0.3323
     17 N          17.5901   70.6176   -8.7605 N.ar    1  UNL1       -0.2743
     18 C          18.8178   70.4999   -9.3019 C.ar    1  UNL1        0.2626
     19 C          19.9574   70.5828   -8.4649 C.ar    1  UNL1        0.0795
     20 C          19.7856   70.7784   -7.1402 C.ar    1  UNL1        0.0869
     21 O          16.3332   70.9127   -6.9619 O.2     1  UNL1       -0.2464
     22 O          18.9481   70.3228  -10.5003 O.2     1  UNL1       -0.2670
     23 H          16.8044   70.5621   -9.3275 H       1  UNL1        0.1734
     24 O          22.0724   71.5613    0.9698 O.3     1  UNL1       -0.2703
     25 P          21.9314   73.1419    0.7015 P.3     1  UNL1        0.2208
     26 O          22.8707   73.5462   -0.3678 O.2     1  UNL1       -0.5170
     27 O          20.4234   73.4760    0.2450 O.3     1  UNL1       -0.4371
     28 O          22.2735   73.9491    2.0511 O.3     1  UNL1       -0.2858
     29 C          22.7592   72.9932    2.9945 C.3     1  UNL1        0.2704
     30 C          21.6256   72.5875    3.9378 C.3     1  UNL1        0.1967
     31 C          21.1019   73.8362    4.6539 C.3     1  UNL1        0.1715
     32 C          22.2827   74.5495    5.3221 C.3     1  UNL1        0.1694
     33 C          23.3664   74.8083    4.2725 C.3     1  UNL1        0.1761
     34 O          20.5696   71.9866    3.1863 O.3     1  UNL1       -0.3775
     35 O          20.1448   73.4556    5.6447 O.3     1  UNL1       -0.3794
     36 O          22.8082   73.7284    6.3660 O.3     1  UNL1       -0.3794
     37 O          23.8290   73.5671    3.7421 O.3     1  UNL1       -0.3258
     38 H          20.9454   71.2110    2.7480 H       1  UNL1        0.2106
     39 H          19.4288   73.0018    5.1824 H       1  UNL1        0.2105
     40 H          22.0918   73.5874    6.9986 H       1  UNL1        0.2105
     41 C          24.5362   75.5510    4.9221 C.3     1  UNL1        0.1693
     42 O          25.6805   75.4734    4.0704 O.3     1  UNL1       -0.3794
     43 H          26.3932   75.9531    4.5147 H       1  UNL1        0.2105
@<TRIPOS>BOND
     1    15    16   ar
     2    15    20   ar
     3    15     6    1
     4    16    17   ar
     5    16    21    2
     6    17    18   ar
     7    17    23    1
     8    18    19   ar
     9    18    22    2
    10    19    20   ar
    11     6     7    1
    12     6    11    1
    13     7     8    1
    14     7     9    1
    15     8    13    1
    16     9    10    1
    17     9    12    1
    18    10    11    1
    19    10     5    1
    20    12    14    1
    21     5     4    1
    22     4     1    1
    23     1     2    2
    24     1     3    1
    25     1    24    1
    26    24    25    1
    27    25    26    2
    28    25    27    1
    29    25    28    1
    30    28    29    1
    31    29    30    1
    32    29    37    1
    33    30    31    1
    34    30    34    1
    35    31    32    1
    36    31    35    1
    37    32    33    1
    38    32    36    1
    39    33    41    1
    40    33    37    1
    41    41    42    1
    42    34    38    1
    43    35    39    1
    44    36    40    1
    45    42    43    1
@<TRIPOS>MOLECULE
GDU
 43 45 0 0 0
SMALL
GASTEIGER

@<TRIPOS>ATOM
      1 P          21.6674   70.3387   -0.3563 P.3     1  UNL1        0.2189
      2 O          21.6740   69.2998    0.6974 O.2     1  UNL1       -0.5170
      3 O          23.1483   70.4895   -0.9705 O.3     1  UNL1       -0.4371
      4 O          20.6435   69.9148   -1.5220 O.3     1  UNL1       -0.3112
      5 C          20.9652   70.7098   -2.6644 C.3     1  UNL1        0.1811
      6 C          18.6320   71.4680   -5.2928 C.3     1  UNL1        0.2383
      7 C          18.0991   70.1539   -4.6666 C.3     1  UNL1        0.1895
      8 O          16.6751   70.0815   -4.7681 O.3     1  UNL1       -0.3779
      9 C          18.5416   70.2963   -3.1870 C.3     1  UNL1        0.1713
     10 C          19.6866   71.3249   -3.2362 C.3     1  UNL1        0.1764
     11 O          19.8891   71.6784   -4.6154 O.3     1  UNL1       -0.3308
     12 O          17.4608   70.7787   -2.3865 O.3     1  UNL1       -0.3794
     13 H          16.4089   69.2446   -4.3624 H       1  UNL1        0.2106
     14 H          16.7546   70.1208   -2.4435 H       1  UNL1        0.2105
     15 N          18.8424   71.3075   -6.7326 N.ar    1  UNL1       -0.2551
     16 C          19.8171   72.0021   -7.3455 C.ar    1  UNL1        0.3323
     17 N          20.0338   71.8702   -8.6675 N.ar    1  UNL1       -0.2743
     18 C          19.2666   71.0429   -9.4031 C.ar    1  UNL1        0.2626
     19 C          18.2323   70.3092   -8.7719 C.ar    1  UNL1        0.0795
     20 C          18.0394   70.4571   -7.4440 C.ar    1  UNL1        0.0869
     21 O          20.5177   72.7519   -6.6950 O.2     1  UNL1       -0.2464
     22 O          19.4588   70.9265  -10.6005 O.2     1  UNL1       -0.2670
     23 H          20.7445   72.3760   -9.0926 H       1  UNL1        0.1734
     24 O          21.2062   71.7440    0.2800 O.3     1  UNL1       -0.2703
     25 P          21.9841   71.9000    1.6802 P.3     1  UNL1        0.2208
     26 O          21.0043   71.9235    2.7886 O.2     1  UNL1       -0.5170
     27 O          22.9875   70.6557    1.8779 O.3     1  UNL1       -0.4371
     28 O          22.8260   73.2715    1.6777 O.3     1  UNL1       -0.2858
     29 C          22.2032   74.1425    2.6227 C.3     1  UNL1        0.2704
     30 C          21.9813   75.5136    1.9823 C.3     1  UNL1        0.1967
     31 C          23.3325   76.0792    1.5343 C.3     1  UNL1        0.1715
     32 C          24.2905   76.0655    2.7308 C.3     1  UNL1        0.1694
     33 C          24.3387   74.6509    3.3136 C.3     1  UNL1        0.1761
     34 O          21.1182   75.3798    0.8517 O.3     1  UNL1       -0.3775
     35 O          23.1614   77.4195    1.0685 O.3     1  UNL1       -0.3794
     36 O          23.8273   76.9813    3.7242 O.3     1  UNL1       -0.3794
     37 O          23.0403   74.2736    3.7693 O.3     1  UNL1       -0.3258
     38 H          20.2846   75.0149    1.1787 H       1  UNL1        0.2106
     39 H          22.5446   77.3813    0.3266 H       1  UNL1        0.2105
     40 H          23.8077   77.8548    3.3122 H       1  UNL1        0.2105
     41 C          25.3191   74.6183    4.4883 C.3     1  UNL1        0.1693
     42 O          24.6909   75.1687    5.6473 O.3     1  UNL1       -0.3794
     43 H          25.3401   75.1291    6.3630 H       1  UNL1        0.2105
@<TRIPOS>BOND
     1    15    16   ar
     2    15    20   ar
     3    15     6    1
     4    16    17   ar
     5    16    21    2
     6    17    18   ar
     7    17    23    1
     8    18    19   ar
     9    18    22    2
    10    19    20   ar
    11     6     7    1
    12     6    11    1
    13     7     8    1
    14     7     9    1
    15     8    13    1
    16     9    10    1
    17     9    12    1
    18    10    11    1
    19    10     5    1
    20    12    14    1
    21     5     4    1
    22     4     1    1
    23     1     2    2
    24     1     3    1
    25     1    24    1
    26    24    25    1
    27    25    26    2
    28    25    27    1
    29    25    28    1
    30    28    29    1
    31    29    30    1
    32    29    37    1
    33    30    31    1
    34    30    34    1
    35    31    32    1
    36    31    35    1
    37    32    33    1
    38    32    36    1
    39    33    41    1
    40    33    37    1
    41    41    42    1
    42    34    38    1
    43    35    39    1
    44    36    40    1
    45    42    43    1
@<TRIPOS>MOLECULE
GDU
 43 45 0 0 0
SMALL
GASTEIGER

@<TRIPOS>ATOM
      1 P          21.7902   70.2867   -0.4082 P.3     1  UNL1        0.2189
      2 O          22.4107   69.1546    0.3149 O.2     1  UNL1       -0.5170
      3 O          22.9436   71.2372   -1.0075 O.3     1  UNL1       -0.4371
      4 O          20.8813   69.7231   -1.6095 O.3     1  UNL1       -0.3112
      5 C          21.0186   70.6390   -2.6971 C.3     1  UNL1        0.1811
      6 C          18.4469   70.9775   -5.1869 C.3     1  UNL1        0.2383
      7 C          18.1469   69.6208   -4.4995 C.3     1  UNL1        0.1895
      8 O          16.7446   69.3438   -4.5082 O.3     1  UNL1       -0.3779
      9 C          18.6526   69.8698   -3.0547 C.3     1  UNL1        0.1713
     10 C          19.6329   71.0486   -3.1992 C.3     1  UNL1        0.1764
     11 O          19.6992   71.3849   -4.5959 O.3     1  UNL1       -0.3308
     12 O          17.5637   70.2180   -2.1974 O.3     1  UNL1       -0.3794
     13 H          16.6262   68.4904   -4.0684 H       1  UNL1        0.2106
     14 H          16.9573   69.4651   -2.1949 H       1  UNL1        0.2105
     15 N          18.5912   70.8046   -6.6333 N.ar    1  UNL1       -0.2551
     16 C          17.4955   70.7475   -7.4107 C.ar    1  UNL1        0.3323
     17 N          17.6006   70.5926   -8.7437 N.ar    1  UNL1       -0.2743
     18 C          18.8121   70.4818   -9.3219 C.ar    1  UNL1        0.2626
     19 C          19.9749   70.5345   -8.5148 C.ar    1  UNL1        0.0795
     20 C          19.8410   70.6947   -7.1811 C.ar    1  UNL1        0.0869
     21 O          16.3959   70.8464   -6.9035 O.2     1  UNL1       -0.2464
     22 O          18.9081   70.3368  -10.5278 O.2     1  UNL1       -0.2670
     23 H          16.7993   70.5578   -9.2899 H       1  UNL1        0.1734
     24 O          20.8731   71.1337    0.6086 O.3     1  UNL1       -0.2703
     25 P          21.8661   71.8117    1.6783 P.3     1  UNL1        0.2208
     26 O          22.8472   70.8076    2.1457 O.2     1  UNL1       -0.5170
     27 O          22.6444   73.0394    0.9847 O.3     1  UNL1       -0.4371
     28 O          21.0157   72.3563    2.9314 O.3     1  UNL1       -0.2858
     29 C          21.2793   73.7562    3.0348 C.3     1  UNL1        0.2704
     30 C          22.2011   74.0140    4.2278 C.3     1  UNL1        0.1967
     31 C          21.5256   73.4953    5.5010 C.3     1  UNL1        0.1715
     32 C          20.1312   74.1231    5.6065 C.3     1  UNL1        0.1694
     33 C          19.3652   73.8551    4.3087 C.3     1  UNL1        0.1761
     34 O          23.4412   73.3325    4.0304 O.3     1  UNL1       -0.3775
     35 O          22.3064   73.8597    6.6412 O.3     1  UNL1       -0.3794
     36 O          20.2554   75.5311    5.8116 O.3     1  UNL1       -0.3794
     37 O          20.0508   74.4575    3.2119 O.3     1  UNL1       -0.3258
     38 H          23.8266   73.6846    3.2166 H       1  UNL1        0.2106
     39 H          23.1752   73.4544    6.5266 H       1  UNL1        0.2105
     40 H          20.7477   75.6518    6.6341 H       1  UNL1        0.2105
     41 C          17.9587   74.4484    4.4168 C.3     1  UNL1        0.1693
     42 O          18.0099   75.8478    4.1337 O.3     1  UNL1       -0.3794
     43 H          17.1059   76.1824    4.2116 H       1  UNL1        0.2105
@<TRIPOS>BOND
     1    15    16   ar
     2    15    20   ar
     3    15     6    1
     4    16    17   ar
     5    16    21    2
     6    17    18   ar
     7    17    23    1
     8    18    19   ar
     9    18    22    2
    10    19    20   ar
    11     6     7    1
    12     6    11    1
    13     7     8    1
    14     7     9    1
    15     8    13    1
    16     9    10    1
    17     9    12    1
    18    10    11    1
    19    10     5    1
    20    12    14    1
    21     5     4    1
    22     4     1    1
    23     1     2    2
    24     1     3    1
    25     1    24    1
    26    24    25    1
    27    25    26    2
    28    25    27    1
    29    25    28    1
    30    28    29    1
    31    29    30    1
    32    29    37    1
    33    30    31    1
    34    30    34    1
    35    31    32    1
    36    31    35    1
    37    32    33    1
    38    32    36    1
    39    33    41    1
    40    33    37    1
    41    41    42    1
    42    34    38    1
    43    35    39    1
    44    36    40    1
    45    42    43    1
@<TRIPOS>MOLECULE
GDU
 43 45 0 0 0
SMALL
GASTEIGER

@<TRIPOS>ATOM
      1 P          17.8830   71.9789   -2.5762 P.3     1  UNL1        0.2189
      2 O          17.1713   70.6903   -2.7267 O.2     1  UNL1       -0.5170
      3 O          17.1457   72.8716   -1.4571 O.3     1  UNL1       -0.4371
      4 O          19.4028   71.7037   -2.1274 O.3     1  UNL1       -0.3112
      5 C          20.2319   72.5314   -2.9448 C.3     1  UNL1        0.1811
      6 C          22.7402   72.4158   -0.3715 C.3     1  UNL1        0.2383
      7 C          22.4938   70.9308   -0.7417 C.3     1  UNL1        0.1895
      8 O          23.6816   70.1564   -0.5608 O.3     1  UNL1       -0.3779
      9 C          22.1203   71.0281   -2.2438 C.3     1  UNL1        0.1713
     10 C          21.6694   72.4896   -2.4234 C.3     1  UNL1        0.1764
     11 O          21.7401   73.1236   -1.1345 O.3     1  UNL1       -0.3308
     12 O          23.2579   70.7445   -3.0608 O.3     1  UNL1       -0.3794
     13 H          23.4617   69.2470   -0.8068 H       1  UNL1        0.2106
     14 H          23.5279   69.8381   -2.8601 H       1  UNL1        0.2105
     15 N          22.5431   72.6316    1.0629 N.ar    1  UNL1       -0.2551
     16 C          21.8505   71.7320    1.7836 C.ar    1  UNL1        0.3323
     17 N          21.6579   71.9049    3.1045 N.ar    1  UNL1       -0.2743
     18 C          22.1504   72.9932    3.7268 C.ar    1  UNL1        0.2626
     19 C          22.8770   73.9521    2.9792 C.ar    1  UNL1        0.0795
     20 C          23.0591   73.7520    1.6567 C.ar    1  UNL1        0.0869
     21 O          21.4006   70.7451    1.2362 O.2     1  UNL1       -0.2464
     22 O          21.9725   73.1529    4.9215 O.2     1  UNL1       -0.2670
     23 H          21.1593   71.2433    3.6100 H       1  UNL1        0.1734
     24 O          17.8709   72.7648   -3.9814 O.3     1  UNL1       -0.2703
     25 P          16.9879   71.8859   -5.0001 P.3     1  UNL1        0.2208
     26 O          17.0641   70.4595   -4.6143 O.2     1  UNL1       -0.5170
     27 O          15.4548   72.3759   -4.9414 O.3     1  UNL1       -0.4371
     28 O          17.5517   72.0690   -6.4963 O.3     1  UNL1       -0.2858
     29 C          18.9695   71.9113   -6.4277 C.3     1  UNL1        0.2704
     30 C          19.6481   73.2073   -6.8738 C.3     1  UNL1        0.1967
     31 C          19.2088   73.5334   -8.3045 C.3     1  UNL1        0.1715
     32 C          19.4843   72.3140   -9.1916 C.3     1  UNL1        0.1694
     33 C          18.8158   71.0852   -8.5702 C.3     1  UNL1        0.1761
     34 O          19.2677   74.2720   -6.0003 O.3     1  UNL1       -0.3775
     35 O          19.9454   74.6584   -8.7884 O.3     1  UNL1       -0.3794
     36 O          20.8934   72.1007   -9.2864 O.3     1  UNL1       -0.3794
     37 O          19.3682   70.8386   -7.2780 O.3     1  UNL1       -0.3258
     38 H          19.5568   74.0213   -5.1124 H       1  UNL1        0.2106
     39 H          19.7518   75.3956   -8.1957 H       1  UNL1        0.2105
     40 H          21.2718   72.8995   -9.6764 H       1  UNL1        0.2105
     41 C          19.0560   69.8682   -9.4665 C.3     1  UNL1        0.1693
     42 O          19.1339   70.2893  -10.8294 O.3     1  UNL1       -0.3794
     43 H          19.2862   69.4949  -11.3595 H       1  UNL1        0.2105
@<TRIPOS>BOND
     1    15    16   ar
     2    15    20   ar
     3    15     6    1
     4    16    17   ar
     5    16    21    2
     6    17    18   ar
     7    17    23    1
     8    18    19   ar
     9    18    22    2
    10    19    20   ar
    11     6     7    1
    12     6    11    1
    13     7     8    1
    14     7     9    1
    15     8    13    1
    16     9    10    1
    17     9    12    1
    18    10    11    1
    19    10     5    1
    20    12    14    1
    21     5     4    1
    22     4     1    1
    23     1     2    2
    24     1     3    1
    25     1    24    1
    26    24    25    1
    27    25    26    2
    28    25    27    1
    29    25    28    1
    30    28    29    1
    31    29    30    1
    32    29    37    1
    33    30    31    1
    34    30    34    1
    35    31    32    1
    36    31    35    1
    37    32    33    1
    38    32    36    1
    39    33    41    1
    40    33    37    1
    41    41    42    1
    42    34    38    1
    43    35    39    1
    44    36    40    1
    45    42    43    1
@<TRIPOS>MOLECULE
GDU
 43 45 0 0 0
SMALL
GASTEIGER

@<TRIPOS>ATOM
      1 P          22.0317   73.9518   -7.0310 P.3     1  UNL1        0.2189
      2 O          22.8091   72.7061   -7.2141 O.2     1  UNL1       -0.5170
      3 O          23.0399   75.2029   -6.9250 O.3     1  UNL1       -0.4371
      4 O          21.0479   74.1603   -8.2862 O.3     1  UNL1       -0.3112
      5 C          21.2805   73.0703   -9.1797 C.3     1  UNL1        0.1811
      6 C          18.5516   71.1428   -7.8510 C.3     1  UNL1        0.2383
      7 C          17.9817   72.5773   -7.9933 C.3     1  UNL1        0.1895
      8 O          16.5785   72.5440   -8.2636 O.3     1  UNL1       -0.3779
      9 C          18.7677   73.1194   -9.2155 C.3     1  UNL1        0.1713
     10 C          20.0145   72.2184   -9.2882 C.3     1  UNL1        0.1764
     11 O          19.9474   71.3003   -8.1833 O.3     1  UNL1       -0.3308
     12 O          17.9857   72.9997  -10.4055 O.3     1  UNL1       -0.3794
     13 H          16.2874   73.4634   -8.3402 H       1  UNL1        0.2106
     14 H          17.1932   73.5379  -10.2751 H       1  UNL1        0.2105
     15 N          18.3997   70.6590   -6.4778 N.ar    1  UNL1       -0.2551
     16 C          17.2301   70.1245   -6.0846 C.ar    1  UNL1        0.3323
     17 N          17.0654   69.6690   -4.8287 N.ar    1  UNL1       -0.2743
     18 C          18.0725   69.7511   -3.9381 C.ar    1  UNL1        0.2626
     19 C          19.3084   70.3170   -4.3365 C.ar    1  UNL1        0.0795
     20 C          19.4480   70.7622   -5.6033 C.ar    1  UNL1        0.0869
     21 O          16.3127   70.0433   -6.8770 O.2     1  UNL1       -0.2464
     22 O          17.9229   69.3434   -2.7997 O.2     1  UNL1       -0.2670
     23 H          16.2158   69.2823   -4.5633 H       1  UNL1        0.1734
     24 O          21.1638   73.8477   -5.6788 O.3     1  UNL1       -0.2703
     25 P          22.2091   73.7971   -4.4562 P.3     1  UNL1        0.2208
     26 O          23.4551   73.1339   -4.8998 O.2     1  UNL1       -0.5170
     27 O          22.5429   75.2970   -3.9733 O.3     1  UNL1       -0.4371
     28 O          21.5667   72.9715   -3.2332 O.3     1  UNL1       -0.2858
     29 C          22.5773   72.8621   -2.2300 C.3     1  UNL1        0.2704
     30 C          22.8036   71.3873   -1.8939 C.3     1  UNL1        0.1967
     31 C          21.4860   70.7800   -1.4026 C.3     1  UNL1        0.1715
     32 C          20.9511   71.6371   -0.2498 C.3     1  UNL1        0.1694
     33 C          20.8634   73.0938   -0.7118 C.3     1  UNL1        0.1761
     34 O          23.2466   70.6929   -3.0613 O.3     1  UNL1       -0.3775
     35 O          21.7134   69.4450   -0.9461 O.3     1  UNL1       -0.3794
     36 O          21.8336   71.5379    0.8688 O.3     1  UNL1       -0.3794
     37 O          22.1632   73.5668   -1.0619 O.3     1  UNL1       -0.3258
     38 H          24.0724   71.1122   -3.3388 H       1  UNL1        0.2106
     39 H          22.0592   68.9472   -1.6977 H       1  UNL1        0.2105
     40 H          21.8623   70.6057    1.1208 H       1  UNL1        0.2105
     41 C          20.2978   73.9531    0.4212 C.3     1  UNL1        0.1693
     42 O          20.9752   73.6397    1.6393 O.3     1  UNL1       -0.3794
     43 H          20.5907   74.2018    2.3260 H       1  UNL1        0.2105
@<TRIPOS>BOND
     1    15    16   ar
     2    15    20   ar
     3    15     6    1
     4    16    17   ar
     5    16    21    2
     6    17    18   ar
     7    17    23    1
     8    18    19   ar
     9    18    22    2
    10    19    20   ar
    11     6     7    1
    12     6    11    1
    13     7     8    1
    14     7     9    1
    15     8    13    1
    16     9    10    1
    17     9    12    1
    18    10    11    1
    19    10     5    1
    20    12    14    1
    21     5     4    1
    22     4     1    1
    23     1     2    2
    24     1     3    1
    25     1    24    1
    26    24    25    1
    27    25    26    2
    28    25    27    1
    29    25    28    1
    30    28    29    1
    31    29    30    1
    32    29    37    1
    33    30    31    1
    34    30    34    1
    35    31    32    1
    36    31    35    1
    37    32    33    1
    38    32    36    1
    39    33    41    1
    40    33    37    1
    41    41    42    1
    42    34    38    1
    43    35    39    1
    44    36    40    1
    45    42    43    1
@<TRIPOS>MOLECULE
GDU
 43 45 0 0 0
SMALL
GASTEIGER

@<TRIPOS>ATOM
      1 P          21.6776   71.5084   -0.4240 P.3     1  UNL1        0.2189
      2 O          22.3594   70.4783    0.3905 O.2     1  UNL1       -0.5170
      3 O          22.7601   72.2718   -1.3396 O.3     1  UNL1       -0.4371
      4 O          20.5775   70.8077   -1.3651 O.3     1  UNL1       -0.3112
      5 C          20.6655   71.4376   -2.6441 C.3     1  UNL1        0.1811
      6 C          18.2077   71.1960   -5.2571 C.3     1  UNL1        0.2383
      7 C          18.0747   69.8651   -4.4736 C.3     1  UNL1        0.1895
      8 O          16.7309   69.3797   -4.5173 O.3     1  UNL1       -0.3779
      9 C          18.4609   70.2953   -3.0345 C.3     1  UNL1        0.1713
     10 C          19.2632   71.5944   -3.2349 C.3     1  UNL1        0.1764
     11 O          19.3532   71.8310   -4.6505 O.3     1  UNL1       -0.3308
     12 O          17.2887   70.5386   -2.2543 O.3     1  UNL1       -0.3794
     13 H          16.7163   68.5536   -4.0141 H       1  UNL1        0.2106
     14 H          16.8005   69.7051   -2.2149 H       1  UNL1        0.2105
     15 N          18.4524   70.9388   -6.6773 N.ar    1  UNL1       -0.2551
     16 C          17.4127   70.8080   -7.5201 C.ar    1  UNL1        0.3323
     17 N          17.6104   70.5747   -8.8310 N.ar    1  UNL1       -0.2743
     18 C          18.8599   70.4581   -9.3201 C.ar    1  UNL1        0.2626
     19 C          19.9645   70.5879   -8.4430 C.ar    1  UNL1        0.0795
     20 C          19.7381   70.8259   -7.1336 C.ar    1  UNL1        0.0869
     21 O          16.2798   70.9111   -7.0936 O.2     1  UNL1       -0.2464
     22 O          19.0397   70.2422  -10.5056 O.2     1  UNL1       -0.2670
     23 H          16.8484   70.4873   -9.4256 H       1  UNL1        0.1734
     24 O          20.9560   72.5694    0.5488 O.3     1  UNL1       -0.2703
     25 P          22.0958   73.1665    1.5154 P.3     1  UNL1        0.2208
     26 O          22.5718   72.1056    2.4303 O.2     1  UNL1       -0.5170
     27 O          23.3280   73.6999    0.6259 O.3     1  UNL1       -0.4371
     28 O          21.4886   74.3846    2.3742 O.3     1  UNL1       -0.2858
     29 C          20.5727   73.8158    3.3109 C.3     1  UNL1        0.2704
     30 C          19.3103   74.6769    3.3756 C.3     1  UNL1        0.1967
     31 C          19.6976   76.0989    3.7931 C.3     1  UNL1        0.1715
     32 C          20.5042   76.0251    5.0945 C.3     1  UNL1        0.1694
     33 C          21.6781   75.0625    4.8985 C.3     1  UNL1        0.1761
     34 O          18.6851   74.7071    2.0913 O.3     1  UNL1       -0.3775
     35 O          18.5167   76.8768    4.0008 O.3     1  UNL1       -0.3794
     36 O          19.6654   75.5546    6.1505 O.3     1  UNL1       -0.3794
     37 O          21.1855   73.7578    4.5969 O.3     1  UNL1       -0.3258
     38 H          18.4656   73.7927    1.8664 H       1  UNL1        0.2106
     39 H          18.0367   76.8859    3.1631 H       1  UNL1        0.2105
     40 H          18.9394   76.1865    6.2338 H       1  UNL1        0.2105
     41 C          22.5101   75.0077    6.1817 C.3     1  UNL1        0.1693
     42 O          21.9976   73.9849    7.0374 O.3     1  UNL1       -0.3794
     43 H          22.5486   73.9828    7.8322 H       1  UNL1        0.2105
@<TRIPOS>BOND
     1    15    16   ar
     2    15    20   ar
     3    15     6    1
     4    16    17   ar
     5    16    21    2
     6    17    18   ar
     7    17    23    1
     8    18    19   ar
     9    18    22    2
    10    19    20   ar
    11     6     7    1
    12     6    11    1
    13     7     8    1
    14     7     9    1
    15     8    13    1
    16     9    10    1
    17     9    12    1
    18    10    11    1
    19    10     5    1
    20    12    14    1
    21     5     4    1
    22     4     1    1
    23     1     2    2
    24     1     3    1
    25     1    24    1
    26    24    25    1
    27    25    26    2
    28    25    27    1
    29    25    28    1
    30    28    29    1
    31    29    30    1
    32    29    37    1
    33    30    31    1
    34    30    34    1
    35    31    32    1
    36    31    35    1
    37    32    33    1
    38    32    36    1
    39    33    41    1
    40    33    37    1
    41    41    42    1
    42    34    38    1
    43    35    39    1
    44    36    40    1
    45    42    43    1
@<TRIPOS>MOLECULE
GDU
 43 45 0 0 0
SMALL
GASTEIGER

@<TRIPOS>ATOM
      1 P          21.6827   70.4043   -0.4442 P.3     1  UNL1        0.2189
      2 O          21.7362   69.5842    0.7864 O.2     1  UNL1       -0.5170
      3 O          23.1788   70.6712   -0.9766 O.3     1  UNL1       -0.4371
      4 O          20.8425   69.6250   -1.5727 O.3     1  UNL1       -0.3112
      5 C          21.0239   70.3438   -2.7938 C.3     1  UNL1        0.1811
      6 C          18.4817   70.9221   -5.2696 C.3     1  UNL1        0.2383
      7 C          18.0790   69.5811   -4.6044 C.3     1  UNL1        0.1895
      8 O          16.6595   69.4134   -4.6134 O.3     1  UNL1       -0.3779
      9 C          18.6049   69.7657   -3.1571 C.3     1  UNL1        0.1713
     10 C          19.6731   70.8676   -3.2847 C.3     1  UNL1        0.1764
     11 O          19.7627   71.2215   -4.6757 O.3     1  UNL1       -0.3308
     12 O          17.5477   70.1823   -2.2907 O.3     1  UNL1       -0.3794
     13 H          16.4763   68.5643   -4.1877 H       1  UNL1        0.2106
     14 H          16.8849   69.4785   -2.2990 H       1  UNL1        0.2105
     15 N          18.6097   70.7632   -6.7192 N.ar    1  UNL1       -0.2551
     16 C          17.5070   70.7523   -7.4888 C.ar    1  UNL1        0.3323
     17 N          17.5973   70.6113   -8.8244 N.ar    1  UNL1       -0.2743
     18 C          18.8002   70.4681   -9.4133 C.ar    1  UNL1        0.2626
     19 C          19.9699   70.4718   -8.6146 C.ar    1  UNL1        0.0795
     20 C          19.8511   70.6192   -7.2779 C.ar    1  UNL1        0.0869
     21 O          16.4151   70.8809   -6.9720 O.2     1  UNL1       -0.2464
     22 O          18.8826   70.3355  -10.6217 O.2     1  UNL1       -0.2670
     23 H          16.7913   70.6100   -9.3649 H       1  UNL1        0.1734
     24 O          20.9710   71.8116   -0.1195 O.3     1  UNL1       -0.2703
     25 P          22.0101   72.6675    0.7623 P.3     1  UNL1        0.2208
     26 O          21.3005   73.7975    1.4016 O.2     1  UNL1       -0.5170
     27 O          22.6519   71.7250    1.8998 O.3     1  UNL1       -0.4371
     28 O          23.1803   73.2348   -0.1859 O.3     1  UNL1       -0.2858
     29 C          22.7714   74.5332   -0.6179 C.3     1  UNL1        0.2704
     30 C          22.7212   74.5689   -2.1462 C.3     1  UNL1        0.1967
     31 C          24.1083   74.2270   -2.6987 C.3     1  UNL1        0.1715
     32 C          25.1363   75.1662   -2.0577 C.3     1  UNL1        0.1694
     33 C          25.0045   75.0835   -0.5349 C.3     1  UNL1        0.1761
     34 O          21.7683   73.6138   -2.6162 O.3     1  UNL1       -0.3775
     35 O          24.1159   74.3994   -4.1174 O.3     1  UNL1       -0.3794
     36 O          24.8952   76.5056   -2.4910 O.3     1  UNL1       -0.3794
     37 O          23.6993   75.5049   -0.1412 O.3     1  UNL1       -0.3258
     38 H          20.9138   73.8633   -2.2389 H       1  UNL1        0.2106
     39 H          23.4488   73.8004   -4.4757 H       1  UNL1        0.2105
     40 H          24.9829   76.5086   -3.4531 H       1  UNL1        0.2105
     41 C          26.0499   75.9921    0.1158 C.3     1  UNL1        0.1693
     42 O          25.4337   77.2188    0.5114 O.3     1  UNL1       -0.3794
     43 H          26.1244   77.7611    0.9165 H       1  UNL1        0.2105
@<TRIPOS>BOND
     1    15    16   ar
     2    15    20   ar
     3    15     6    1
     4    16    17   ar
     5    16    21    2
     6    17    18   ar
     7    17    23    1
     8    18    19   ar
     9    18    22    2
    10    19    20   ar
    11     6     7    1
    12     6    11    1
    13     7     8    1
    14     7     9    1
    15     8    13    1
    16     9    10    1
    17     9    12    1
    18    10    11    1
    19    10     5    1
    20    12    14    1
    21     5     4    1
    22     4     1    1
    23     1     2    2
    24     1     3    1
    25     1    24    1
    26    24    25    1
    27    25    26    2
    28    25    27    1
    29    25    28    1
    30    28    29    1
    31    29    30    1
    32    29    37    1
    33    30    31    1
    34    30    34    1
    35    31    32    1
    36    31    35    1
    37    32    33    1
    38    32    36    1
    39    33    41    1
    40    33    37    1
    41    41    42    1
    42    34    38    1
    43    35    39    1
    44    36    40    1
    45    42    43    1
@<TRIPOS>MOLECULE
GDU
 43 45 0 0 0
SMALL
GASTEIGER

@<TRIPOS>ATOM
      1 P          21.4377   70.8124   -2.1201 P.3     1  UNL1        0.2189
      2 O          22.4263   70.2925   -3.0906 O.2     1  UNL1       -0.5170
      3 O          20.9762   69.6244   -1.1358 O.3     1  UNL1       -0.4371
      4 O          22.1028   71.9959   -1.2577 O.3     1  UNL1       -0.3112
      5 C          22.3635   71.4644    0.0423 C.3     1  UNL1        0.1811
      6 C          22.5567   74.0036    2.5806 C.3     1  UNL1        0.2383
      7 C          22.2571   74.7817    1.2738 C.3     1  UNL1        0.1895
      8 O          21.4950   75.9602    1.5454 O.3     1  UNL1       -0.3779
      9 C          21.4193   73.7545    0.4688 C.3     1  UNL1        0.1713
     10 C          21.7792   72.3984    1.1037 C.3     1  UNL1        0.1764
     11 O          22.7583   72.6482    2.1269 O.3     1  UNL1       -0.3308
     12 O          20.0238   74.0266    0.6115 O.3     1  UNL1       -0.3794
     13 H          21.3436   76.3963    0.6953 H       1  UNL1        0.2106
     14 H          19.8724   74.9106    0.2503 H       1  UNL1        0.2105
     15 N          23.7670   74.5177    3.2237 N.ar    1  UNL1       -0.2551
     16 C          23.9607   74.3151    4.5389 C.ar    1  UNL1        0.3323
     17 N          25.0666   74.7743    5.1538 N.ar    1  UNL1       -0.2743
     18 C          25.9973   75.4565    4.4590 C.ar    1  UNL1        0.2626
     19 C          25.8039   75.6824    3.0742 C.ar    1  UNL1        0.0795
     20 C          24.6878   75.2072    2.4816 C.ar    1  UNL1        0.0869
     21 O          23.1302   73.7011    5.1787 O.2     1  UNL1       -0.2464
     22 O          26.9964   75.8767    5.0157 O.2     1  UNL1       -0.2670
     23 H          25.1922   74.6153    6.1028 H       1  UNL1        0.1734
     24 O          20.1559   71.3792   -2.9127 O.3     1  UNL1       -0.2703
     25 P          19.3784   70.1050   -3.5143 P.3     1  UNL1        0.2208
     26 O          20.1667   68.8797   -3.2570 O.2     1  UNL1       -0.5170
     27 O          17.9370   69.9734   -2.8078 O.3     1  UNL1       -0.4371
     28 O          19.1818   70.2947   -5.1004 O.3     1  UNL1       -0.2858
     29 C          18.7115   71.6278   -5.3037 C.3     1  UNL1        0.2704
     30 C          17.3746   71.5884   -6.0457 C.3     1  UNL1        0.1967
     31 C          17.5692   70.8731   -7.3862 C.3     1  UNL1        0.1715
     32 C          18.7154   71.5537   -8.1429 C.3     1  UNL1        0.1694
     33 C          19.9521   71.5939   -7.2419 C.3     1  UNL1        0.1761
     34 O          16.4120   70.8829   -5.2603 O.3     1  UNL1       -0.3775
     35 O          16.3669   70.9572   -8.1542 O.3     1  UNL1       -0.3794
     36 O          18.3318   72.8835   -8.4957 O.3     1  UNL1       -0.3794
     37 O          19.6688   72.3559   -6.0693 O.3     1  UNL1       -0.3258
     38 H          16.3271   71.3632   -4.4254 H       1  UNL1        0.2106
     39 H          15.6735   70.5289   -7.6364 H       1  UNL1        0.2105
     40 H          17.5486   72.8095   -9.0564 H       1  UNL1        0.2105
     41 C          21.1130   72.2410   -8.0006 C.3     1  UNL1        0.1693
     42 O          21.8120   73.1322   -7.1299 O.3     1  UNL1       -0.3794
     43 H          22.5342   73.5175   -7.6449 H       1  UNL1        0.2105
@<TRIPOS>BOND
     1    15    16   ar
     2    15    20   ar
     3    15     6    1
     4    16    17   ar
     5    16    21    2
     6    17    18   ar
     7    17    23    1
     8    18    19   ar
     9    18    22    2
    10    19    20   ar
    11     6     7    1
    12     6    11    1
    13     7     8    1
    14     7     9    1
    15     8    13    1
    16     9    10    1
    17     9    12    1
    18    10    11    1
    19    10     5    1
    20    12    14    1
    21     5     4    1
    22     4     1    1
    23     1     2    2
    24     1     3    1
    25     1    24    1
    26    24    25    1
    27    25    26    2
    28    25    27    1
    29    25    28    1
    30    28    29    1
    31    29    30    1
    32    29    37    1
    33    30    31    1
    34    30    34    1
    35    31    32    1
    36    31    35    1
    37    32    33    1
    38    32    36    1
    39    33    41    1
    40    33    37    1
    41    41    42    1
    42    34    38    1
    43    35    39    1
    44    36    40    1
    45    42    43    1
@<TRIPOS>MOLECULE
GDU
 43 45 0 0 0
SMALL
GASTEIGER

@<TRIPOS>ATOM
      1 P          22.8251   72.0583   -3.4665 P.3     1  UNL1        0.2189
      2 O          23.8195   72.9271   -4.1344 O.2     1  UNL1       -0.5170
      3 O          23.4899   70.6260   -3.1512 O.3     1  UNL1       -0.4371
      4 O          22.3506   72.7441   -2.0912 O.3     1  UNL1       -0.3112
      5 C          21.3453   71.8973   -1.5319 C.3     1  UNL1        0.1811
      6 C          21.1946   73.7265    1.5598 C.3     1  UNL1        0.2383
      7 C          21.2690   74.8202    0.4639 C.3     1  UNL1        0.1895
      8 O          20.5766   76.0014    0.8744 O.3     1  UNL1       -0.3779
      9 C          20.5432   74.1386   -0.7252 C.3     1  UNL1        0.1713
     10 C          20.6254   72.6352   -0.4017 C.3     1  UNL1        0.1764
     11 O          21.3681   72.4980    0.8221 O.3     1  UNL1       -0.3308
     12 O          19.1822   74.5690   -0.7926 O.3     1  UNL1       -0.3794
     13 H          20.6607   76.6393    0.1520 H       1  UNL1        0.2106
     14 H          19.1975   75.5247   -0.9374 H       1  UNL1        0.2105
     15 N          22.2713   73.8979    2.5367 N.ar    1  UNL1       -0.2551
     16 C          23.4487   74.4178    2.1470 C.ar    1  UNL1        0.3323
     17 N          24.4536   74.5892    3.0260 N.ar    1  UNL1       -0.2743
     18 C          24.2980   74.2314    4.3151 C.ar    1  UNL1        0.2626
     19 C          23.0652   73.6771    4.7386 C.ar    1  UNL1        0.0795
     20 C          22.0725   73.5201    3.8374 C.ar    1  UNL1        0.0869
     21 O          23.6038   74.7457    0.9875 O.2     1  UNL1       -0.2464
     22 O          25.2087   74.3818    5.1104 O.2     1  UNL1       -0.2670
     23 H          25.2952   74.9699    2.7283 H       1  UNL1        0.1734
     24 O          21.5539   71.8571   -4.4339 O.3     1  UNL1       -0.2703
     25 P          21.5938   73.0518   -5.5115 P.3     1  UNL1        0.2208
     26 O          21.6490   74.3509   -4.8056 O.2     1  UNL1       -0.5170
     27 O          22.8986   72.8914   -6.4420 O.3     1  UNL1       -0.4371
     28 O          20.2722   72.9936   -6.4280 O.3     1  UNL1       -0.2858
     29 C          20.1751   71.6609   -6.9321 C.3     1  UNL1        0.2704
     30 C          20.0463   71.7009   -8.4556 C.3     1  UNL1        0.1967
     31 C          18.8023   72.5126   -8.8297 C.3     1  UNL1        0.1715
     32 C          17.5947   71.9283   -8.0881 C.3     1  UNL1        0.1694
     33 C          17.9090   71.8729   -6.5911 C.3     1  UNL1        0.1761
     34 O          21.2073   72.3149   -9.0181 O.3     1  UNL1       -0.3775
     35 O          18.5855   72.4363  -10.2403 O.3     1  UNL1       -0.3794
     36 O          17.3266   70.6123   -8.5740 O.3     1  UNL1       -0.3794
     37 O          19.0326   71.0227   -6.3663 O.3     1  UNL1       -0.3258
     38 H          21.9646   71.7760   -8.7518 H       1  UNL1        0.2106
     39 H          19.3719   72.8022  -10.6644 H       1  UNL1        0.2105
     40 H          17.1404   70.6951   -9.5184 H       1  UNL1        0.2105
     41 C          16.6962   71.3227   -5.8371 C.3     1  UNL1        0.1693
     42 O          15.6719   72.3176   -5.7934 O.3     1  UNL1       -0.3794
     43 H          14.9273   71.9318   -5.3119 H       1  UNL1        0.2105
@<TRIPOS>BOND
     1    15    16   ar
     2    15    20   ar
     3    15     6    1
     4    16    17   ar
     5    16    21    2
     6    17    18   ar
     7    17    23    1
     8    18    19   ar
     9    18    22    2
    10    19    20   ar
    11     6     7    1
    12     6    11    1
    13     7     8    1
    14     7     9    1
    15     8    13    1
    16     9    10    1
    17     9    12    1
    18    10    11    1
    19    10     5    1
    20    12    14    1
    21     5     4    1
    22     4     1    1
    23     1     2    2
    24     1     3    1
    25     1    24    1
    26    24    25    1
    27    25    26    2
    28    25    27    1
    29    25    28    1
    30    28    29    1
    31    29    30    1
    32    29    37    1
    33    30    31    1
    34    30    34    1
    35    31    32    1
    36    31    35    1
    37    32    33    1
    38    32    36    1
    39    33    41    1
    40    33    37    1
    41    41    42    1
    42    34    38    1
    43    35    39    1
    44    36    40    1
    45    42    43    1
@<TRIPOS>MOLECULE
GDU
 43 45 0 0 0
SMALL
GASTEIGER

@<TRIPOS>ATOM
      1 P          21.2155   70.9707   -3.2491 P.3     1  UNL1        0.2189
      2 O          22.6545   70.6665   -3.4115 O.2     1  UNL1       -0.5170
      3 O          20.3638   70.1246   -4.3224 O.3     1  UNL1       -0.4371
      4 O          20.7477   70.5762   -1.7617 O.3     1  UNL1       -0.3112
      5 C          20.8762   71.7527   -0.9618 C.3     1  UNL1        0.1811
      6 C          23.0682   72.1132    1.8652 C.3     1  UNL1        0.2383
      7 C          22.7335   70.6002    1.8228 C.3     1  UNL1        0.1895
      8 O          23.8213   69.8230    2.3286 O.3     1  UNL1       -0.3779
      9 C          22.5365   70.3535    0.3044 C.3     1  UNL1        0.1713
     10 C          22.2388   71.7524   -0.2665 C.3     1  UNL1        0.1764
     11 O          22.2239   72.6739    0.8375 O.3     1  UNL1       -0.3308
     12 O          23.7270   69.8133   -0.2726 O.3     1  UNL1       -0.3794
     13 H          23.5502   68.8959    2.2753 H       1  UNL1        0.2106
     14 H          23.8923   68.9679    0.1663 H       1  UNL1        0.2105
     15 N          22.7353   72.6808    3.1728 N.ar    1  UNL1       -0.2551
     16 C          21.5018   72.5088    3.6800 C.ar    1  UNL1        0.3323
     17 N          21.1711   73.0174    4.8816 N.ar    1  UNL1       -0.2743
     18 C          22.0730   73.7192    5.5945 C.ar    1  UNL1        0.2626
     19 C          23.3744   73.9134    5.0702 C.ar    1  UNL1        0.0795
     20 C          23.6809   73.3889    3.8646 C.ar    1  UNL1        0.0869
     21 O          20.6778   71.8775    3.0488 O.2     1  UNL1       -0.2464
     22 O          21.7731   74.1840    6.6801 O.2     1  UNL1       -0.2670
     23 H          20.2775   72.8798    5.2343 H       1  UNL1        0.1734
     24 O          20.9698   72.5435   -3.4909 O.3     1  UNL1       -0.2703
     25 P          21.2025   72.8163   -5.0598 P.3     1  UNL1        0.2208
     26 O          20.8794   74.2268   -5.3682 O.2     1  UNL1       -0.5170
     27 O          22.7422   72.5253   -5.4323 O.3     1  UNL1       -0.4371
     28 O          20.2506   71.8459   -5.9213 O.3     1  UNL1       -0.2858
     29 C          19.1299   72.6270   -6.3380 C.3     1  UNL1        0.2704
     30 C          17.8405   71.9767   -5.8341 C.3     1  UNL1        0.1967
     31 C          17.7470   70.5545   -6.3953 C.3     1  UNL1        0.1715
     32 C          17.8926   70.6186   -7.9198 C.3     1  UNL1        0.1694
     33 C          19.1801   71.3708   -8.2657 C.3     1  UNL1        0.1761
     34 O          17.8545   71.9296   -4.4063 O.3     1  UNL1       -0.3775
     35 O          16.4806   69.9863   -6.0550 O.3     1  UNL1       -0.3794
     36 O          16.7697   71.3017   -8.4787 O.3     1  UNL1       -0.3794
     37 O          19.1091   72.7037   -7.7615 O.3     1  UNL1       -0.3258
     38 H          17.9213   72.8434   -4.0976 H       1  UNL1        0.2106
     39 H          16.4281   69.9769   -5.0909 H       1  UNL1        0.2105
     40 H          15.9838   70.7973   -8.2314 H       1  UNL1        0.2105
     41 C          19.3528   71.4108   -9.7857 C.3     1  UNL1        0.1693
     42 O          18.6855   70.2906  -10.3697 O.3     1  UNL1       -0.3794
     43 H          18.8175   70.3534  -11.3257 H       1  UNL1        0.2105
@<TRIPOS>BOND
     1    15    16   ar
     2    15    20   ar
     3    15     6    1
     4    16    17   ar
     5    16    21    2
     6    17    18   ar
     7    17    23    1
     8    18    19   ar
     9    18    22    2
    10    19    20   ar
    11     6     7    1
    12     6    11    1
    13     7     8    1
    14     7     9    1
    15     8    13    1
    16     9    10    1
    17     9    12    1
    18    10    11    1
    19    10     5    1
    20    12    14    1
    21     5     4    1
    22     4     1    1
    23     1     2    2
    24     1     3    1
    25     1    24    1
    26    24    25    1
    27    25    26    2
    28    25    27    1
    29    25    28    1
    30    28    29    1
    31    29    30    1
    32    29    37    1
    33    30    31    1
    34    30    34    1
    35    31    32    1
    36    31    35    1
    37    32    33    1
    38    32    36    1
    39    33    41    1
    40    33    37    1
    41    41    42    1
    42    34    38    1
    43    35    39    1
    44    36    40    1
    45    42    43    1
@<TRIPOS>MOLECULE
GDU
 43 45 0 0 0
SMALL
GASTEIGER

@<TRIPOS>ATOM
      1 P          22.3399   70.8639   -1.7472 P.3     1  UNL1        0.2189
      2 O          21.6462   69.5726   -1.5450 O.2     1  UNL1       -0.5170
      3 O          23.3924   70.7237   -2.9579 O.3     1  UNL1       -0.4371
      4 O          21.2616   72.0030   -2.1028 O.3     1  UNL1       -0.3112
      5 C          20.6637   71.6331   -3.3462 C.3     1  UNL1        0.1811
      6 C          17.2267   71.5545   -4.3988 C.3     1  UNL1        0.2383
      7 C          17.7441   70.1154   -4.6519 C.3     1  UNL1        0.1895
      8 O          16.6911   69.1608   -4.4999 O.3     1  UNL1       -0.3779
      9 C          18.8059   69.9505   -3.5336 C.3     1  UNL1        0.1713
     10 C          19.1661   71.3961   -3.1435 C.3     1  UNL1        0.1764
     11 O          18.4126   72.2734   -3.9983 O.3     1  UNL1       -0.3308
     12 O          18.2527   69.2476   -2.4192 O.3     1  UNL1       -0.3794
     13 H          17.0772   68.2903   -4.6701 H       1  UNL1        0.2106
     14 H          17.9933   68.3733   -2.7404 H       1  UNL1        0.2105
     15 N          16.6661   72.1264   -5.6242 N.ar    1  UNL1       -0.2551
     16 C          17.0768   71.6713   -6.8211 C.ar    1  UNL1        0.3323
     17 N          16.5748   72.1776   -7.9628 N.ar    1  UNL1       -0.2743
     18 C          15.6548   73.1607   -7.9240 C.ar    1  UNL1        0.2626
     19 C          15.2170   73.6539   -6.6705 C.ar    1  UNL1        0.0795
     20 C          15.7338   73.1254   -5.5408 C.ar    1  UNL1        0.0869
     21 O          17.9057   70.7845   -6.8720 O.2     1  UNL1       -0.2464
     22 O          15.2033   73.6228   -8.9570 O.2     1  UNL1       -0.2670
     23 H          16.8795   71.8342   -8.8178 H       1  UNL1        0.1734
     24 O          23.1243   71.2673   -0.4002 O.3     1  UNL1       -0.2703
     25 P          22.3483   70.5621    0.8206 P.3     1  UNL1        0.2208
     26 O          21.5352   69.4387    0.3049 O.2     1  UNL1       -0.5170
     27 O          23.4194   70.0038    1.8861 O.3     1  UNL1       -0.4371
     28 O          21.3881   71.6353    1.5391 O.3     1  UNL1       -0.2858
     29 C          22.2216   72.7075    1.9811 C.3     1  UNL1        0.2704
     30 C          21.7944   73.1392    3.3848 C.3     1  UNL1        0.1967
     31 C          20.3265   73.5754    3.3472 C.3     1  UNL1        0.1715
     32 C          20.1598   74.6411    2.2580 C.3     1  UNL1        0.1694
     33 C          20.7096   74.0942    0.9383 C.3     1  UNL1        0.1761
     34 O          21.9467   72.0439    4.2895 O.3     1  UNL1       -0.3775
     35 O          19.9547   74.1194    4.6154 O.3     1  UNL1       -0.3794
     36 O          20.8772   75.8192    2.6285 O.3     1  UNL1       -0.3794
     37 O          22.0997   73.8048    1.0791 O.3     1  UNL1       -0.3258
     38 H          22.8819   71.7986    4.2756 H       1  UNL1        0.2106
     39 H          20.0864   73.4209    5.2689 H       1  UNL1        0.2105
     40 H          20.5021   76.1239    3.4650 H       1  UNL1        0.2105
     41 C          20.5167   75.1380   -0.1641 C.3     1  UNL1        0.1693
     42 O          21.1535   74.6883   -1.3613 O.3     1  UNL1       -0.3794
     43 H          21.0083   75.3723   -2.0295 H       1  UNL1        0.2105
@<TRIPOS>BOND
     1    15    16   ar
     2    15    20   ar
     3    15     6    1
     4    16    17   ar
     5    16    21    2
     6    17    18   ar
     7    17    23    1
     8    18    19   ar
     9    18    22    2
    10    19    20   ar
    11     6     7    1
    12     6    11    1
    13     7     8    1
    14     7     9    1
    15     8    13    1
    16     9    10    1
    17     9    12    1
    18    10    11    1
    19    10     5    1
    20    12    14    1
    21     5     4    1
    22     4     1    1
    23     1     2    2
    24     1     3    1
    25     1    24    1
    26    24    25    1
    27    25    26    2
    28    25    27    1
    29    25    28    1
    30    28    29    1
    31    29    30    1
    32    29    37    1
    33    30    31    1
    34    30    34    1
    35    31    32    1
    36    31    35    1
    37    32    33    1
    38    32    36    1
    39    33    41    1
    40    33    37    1
    41    41    42    1
    42    34    38    1
    43    35    39    1
    44    36    40    1
    45    42    43    1
@<TRIPOS>MOLECULE
GDU
 43 45 0 0 0
SMALL
GASTEIGER

@<TRIPOS>ATOM
      1 P          22.6831   70.3150    0.4576 P.3     1  UNL1        0.2189
      2 O          21.6110   69.2985    0.5396 O.2     1  UNL1       -0.5170
      3 O          24.0035   69.6518   -0.1826 O.3     1  UNL1       -0.4371
      4 O          22.1947   71.5374   -0.4664 O.3     1  UNL1       -0.3112
      5 C          22.3210   71.1071   -1.8227 C.3     1  UNL1        0.1811
      6 C          21.7159   72.9660   -4.8403 C.3     1  UNL1        0.2383
      7 C          20.5812   73.4040   -3.8793 C.3     1  UNL1        0.1895
      8 O          20.1838   74.7520   -4.1404 O.3     1  UNL1       -0.3779
      9 C          21.2667   73.2881   -2.4930 C.3     1  UNL1        0.1713
     10 C          22.4449   72.3271   -2.7372 C.3     1  UNL1        0.1764
     11 O          22.3855   71.9139   -4.1134 O.3     1  UNL1       -0.3308
     12 O          21.7363   74.5662   -2.0595 O.3     1  UNL1       -0.3794
     13 H          19.4785   74.9614   -3.5123 H       1  UNL1        0.2106
     14 H          20.9607   75.1381   -1.9820 H       1  UNL1        0.2105
     15 N          21.1630   72.4545   -6.0955 N.ar    1  UNL1       -0.2551
     16 C          21.8639   72.5862   -7.2355 C.ar    1  UNL1        0.3323
     17 N          21.3799   72.1215   -8.4024 N.ar    1  UNL1       -0.2743
     18 C          20.1743   71.5226   -8.4482 C.ar    1  UNL1        0.2626
     19 C          19.4223   71.3821   -7.2562 C.ar    1  UNL1        0.0795
     20 C          19.9331   71.8532   -6.0989 C.ar    1  UNL1        0.0869
     21 O          22.9531   73.1237   -7.2098 O.2     1  UNL1       -0.2464
     22 O          19.7332   71.1059   -9.5048 O.2     1  UNL1       -0.2670
     23 H          21.9012   72.2212   -9.2149 H       1  UNL1        0.1734
     24 O          23.0199   70.8588    1.9352 O.3     1  UNL1       -0.2703
     25 P          22.3355   72.3095    2.0659 P.3     1  UNL1        0.2208
     26 O          22.8718   73.2040    1.0165 O.2     1  UNL1       -0.5170
     27 O          20.7411   72.1684    1.8866 O.3     1  UNL1       -0.4371
     28 O          22.6586   72.9278    3.5161 O.3     1  UNL1       -0.2858
     29 C          22.3409   74.3189    3.4543 C.3     1  UNL1        0.2704
     30 C          23.5548   75.1385    3.8947 C.3     1  UNL1        0.1967
     31 C          23.9383   74.7342    5.3215 C.3     1  UNL1        0.1715
     32 C          22.7017   74.8670    6.2176 C.3     1  UNL1        0.1694
     33 C          21.5522   74.0657    5.6015 C.3     1  UNL1        0.1761
     34 O          24.6497   74.8839    3.0128 O.3     1  UNL1       -0.3775
     35 O          24.9760   75.5920    5.8010 O.3     1  UNL1       -0.3794
     36 O          22.3309   76.2426    6.3194 O.3     1  UNL1       -0.3794
     37 O          21.2358   74.5908    4.3130 O.3     1  UNL1       -0.3258
     38 H          24.3617   75.1457    2.1277 H       1  UNL1        0.2106
     39 H          25.7263   75.4850    5.2028 H       1  UNL1        0.2105
     40 H          23.0844   76.7077    6.7057 H       1  UNL1        0.2105
     41 C          20.3220   74.1636    6.5065 C.3     1  UNL1        0.1693
     42 O          19.2547   73.3998    5.9423 O.3     1  UNL1       -0.3794
     43 H          18.5008   73.4870    6.5417 H       1  UNL1        0.2105
@<TRIPOS>BOND
     1    15    16   ar
     2    15    20   ar
     3    15     6    1
     4    16    17   ar
     5    16    21    2
     6    17    18   ar
     7    17    23    1
     8    18    19   ar
     9    18    22    2
    10    19    20   ar
    11     6     7    1
    12     6    11    1
    13     7     8    1
    14     7     9    1
    15     8    13    1
    16     9    10    1
    17     9    12    1
    18    10    11    1
    19    10     5    1
    20    12    14    1
    21     5     4    1
    22     4     1    1
    23     1     2    2
    24     1     3    1
    25     1    24    1
    26    24    25    1
    27    25    26    2
    28    25    27    1
    29    25    28    1
    30    28    29    1
    31    29    30    1
    32    29    37    1
    33    30    31    1
    34    30    34    1
    35    31    32    1
    36    31    35    1
    37    32    33    1
    38    32    36    1
    39    33    41    1
    40    33    37    1
    41    41    42    1
    42    34    38    1
    43    35    39    1
    44    36    40    1
    45    42    43    1
@<TRIPOS>MOLECULE
GDU
 43 45 0 0 0
SMALL
GASTEIGER

@<TRIPOS>ATOM
      1 P          22.4533   73.1027   -4.3839 P.3     1  UNL1        0.2189
      2 O          23.8427   72.7333   -4.0336 O.2     1  UNL1       -0.5170
      3 O          21.9182   74.2173   -3.3521 O.3     1  UNL1       -0.4371
      4 O          22.4154   73.6936   -5.8793 O.3     1  UNL1       -0.3112
      5 C          21.9667   72.6376   -6.7302 C.3     1  UNL1        0.1811
      6 C          18.4847   73.4691   -7.0638 C.3     1  UNL1        0.2383
      7 C          19.1791   74.8195   -6.7518 C.3     1  UNL1        0.1895
      8 O          18.4824   75.9053   -7.3674 O.3     1  UNL1       -0.3779
      9 C          20.5762   74.6228   -7.3958 C.3     1  UNL1        0.1713
     10 C          20.7273   73.0939   -7.5021 C.3     1  UNL1        0.1764
     11 O          19.5488   72.5036   -6.9269 O.3     1  UNL1       -0.3308
     12 O          20.6195   75.2276   -8.6897 O.3     1  UNL1       -0.3794
     13 H          18.9628   76.7122   -7.1354 H       1  UNL1        0.2106
     14 H          20.4602   76.1727   -8.5625 H       1  UNL1        0.2105
     15 N          17.4173   73.2005   -6.0987 N.ar    1  UNL1       -0.2551
     16 C          16.1578   73.5830   -6.3739 C.ar    1  UNL1        0.3323
     17 N          15.1574   73.3449   -5.5052 N.ar    1  UNL1       -0.2743
     18 C          15.4057   72.7250   -4.3355 C.ar    1  UNL1        0.2626
     19 C          16.7286   72.3216   -4.0297 C.ar    1  UNL1        0.0795
     20 C          17.7123   72.5689   -4.9205 C.ar    1  UNL1        0.0869
     21 O          15.9184   74.1428   -7.4252 O.2     1  UNL1       -0.2464
     22 O          14.5017   72.5133   -3.5465 O.2     1  UNL1       -0.2670
     23 H          14.2536   73.6240   -5.7221 H       1  UNL1        0.1734
     24 O          21.5139   71.7980   -4.2970 O.3     1  UNL1       -0.2703
     25 P          21.9919   70.9639   -3.0063 P.3     1  UNL1        0.2208
     26 O          21.2491   69.6860   -2.9422 O.2     1  UNL1       -0.5170
     27 O          23.5701   70.6617   -3.1173 O.3     1  UNL1       -0.4371
     28 O          21.7033   71.8209   -1.6751 O.3     1  UNL1       -0.2858
     29 C          22.8058   71.6026   -0.7938 C.3     1  UNL1        0.2704
     30 C          22.2906   71.0684    0.5435 C.3     1  UNL1        0.1967
     31 C          21.3123   72.0835    1.1424 C.3     1  UNL1        0.1715
     32 C          22.0035   73.4501    1.2086 C.3     1  UNL1        0.1694
     33 C          22.5391   73.8048   -0.1807 C.3     1  UNL1        0.1761
     34 O          21.6225   69.8226    0.3359 O.3     1  UNL1       -0.3775
     35 O          20.9354   71.6692    2.4573 O.3     1  UNL1       -0.3794
     36 O          23.0830   73.3947    2.1423 O.3     1  UNL1       -0.3794
     37 O          23.4991   72.8315   -0.5895 O.3     1  UNL1       -0.3258
     38 H          22.2724   69.2181   -0.0477 H       1  UNL1        0.2106
     39 H          20.5172   70.8035    2.3688 H       1  UNL1        0.2105
     40 H          22.7006   73.1634    2.9988 H       1  UNL1        0.2105
     41 C          23.2016   75.1835   -0.1334 C.3     1  UNL1        0.1693
     42 O          24.5864   75.0350    0.1847 O.3     1  UNL1       -0.3794
     43 H          24.9661   75.9243    0.2039 H       1  UNL1        0.2105
@<TRIPOS>BOND
     1    15    16   ar
     2    15    20   ar
     3    15     6    1
     4    16    17   ar
     5    16    21    2
     6    17    18   ar
     7    17    23    1
     8    18    19   ar
     9    18    22    2
    10    19    20   ar
    11     6     7    1
    12     6    11    1
    13     7     8    1
    14     7     9    1
    15     8    13    1
    16     9    10    1
    17     9    12    1
    18    10    11    1
    19    10     5    1
    20    12    14    1
    21     5     4    1
    22     4     1    1
    23     1     2    2
    24     1     3    1
    25     1    24    1
    26    24    25    1
    27    25    26    2
    28    25    27    1
    29    25    28    1
    30    28    29    1
    31    29    30    1
    32    29    37    1
    33    30    31    1
    34    30    34    1
    35    31    32    1
    36    31    35    1
    37    32    33    1
    38    32    36    1
    39    33    41    1
    40    33    37    1
    41    41    42    1
    42    34    38    1
    43    35    39    1
    44    36    40    1
    45    42    43    1
@<TRIPOS>MOLECULE
GDU
 43 45 0 0 0
SMALL
GASTEIGER

@<TRIPOS>ATOM
      1 P          22.2859   72.5224   -4.3393 P.3     1  UNL1        0.2189
      2 O          23.2958   71.6698   -3.6739 O.2     1  UNL1       -0.5170
      3 O          22.8653   73.0387   -5.7502 O.3     1  UNL1       -0.4371
      4 O          20.9446   71.6707   -4.5893 O.3     1  UNL1       -0.3112
      5 C          20.6998   70.9247   -3.3960 C.3     1  UNL1        0.1811
      6 C          17.2642   71.0781   -4.4453 C.3     1  UNL1        0.2383
      7 C          17.7198   69.6429   -4.8134 C.3     1  UNL1        0.1895
      8 O          16.6265   68.7253   -4.7362 O.3     1  UNL1       -0.3779
      9 C          18.7717   69.3438   -3.7137 C.3     1  UNL1        0.1713
     10 C          19.1930   70.7368   -3.2101 C.3     1  UNL1        0.1764
     11 O          18.4793   71.7111   -3.9908 O.3     1  UNL1       -0.3308
     12 O          18.1870   68.5785   -2.6580 O.3     1  UNL1       -0.3794
     13 H          16.9751   67.8553   -4.9760 H       1  UNL1        0.2106
     14 H          17.8907   67.7447   -3.0474 H       1  UNL1        0.2105
     15 N          16.7308   71.7695   -5.6201 N.ar    1  UNL1       -0.2551
     16 C          17.0195   71.3121   -6.8513 C.ar    1  UNL1        0.3323
     17 N          16.5388   71.9273   -7.9478 N.ar    1  UNL1       -0.2743
     18 C          15.7646   73.0230   -7.8285 C.ar    1  UNL1        0.2626
     19 C          15.4570   73.5195   -6.5381 C.ar    1  UNL1        0.0795
     20 C          15.9486   72.8809   -5.4551 C.ar    1  UNL1        0.0869
     21 O          17.7162   70.3245   -6.9748 O.2     1  UNL1       -0.2464
     22 O          15.3330   73.5833   -8.8206 O.2     1  UNL1       -0.2670
     23 H          16.7537   71.5810   -8.8285 H       1  UNL1        0.1734
     24 O          21.9524   73.7884   -3.4021 O.3     1  UNL1       -0.2703
     25 P          23.3227   74.1956   -2.6629 P.3     1  UNL1        0.2208
     26 O          24.4734   73.6978   -3.4484 O.2     1  UNL1       -0.5170
     27 O          23.4104   75.7993   -2.5410 O.3     1  UNL1       -0.4371
     28 O          23.3541   73.5444   -1.1915 O.3     1  UNL1       -0.2858
     29 C          21.9966   73.3251   -0.8057 C.3     1  UNL1        0.2704
     30 C          21.6771   74.1643    0.4324 C.3     1  UNL1        0.1967
     31 C          22.6315   73.7681    1.5631 C.3     1  UNL1        0.1715
     32 C          22.5492   72.2508    1.7647 C.3     1  UNL1        0.1694
     33 C          22.8047   71.5561    0.4248 C.3     1  UNL1        0.1761
     34 O          21.8435   75.5501    0.1272 O.3     1  UNL1       -0.3775
     35 O          22.2518   74.4362    2.7681 O.3     1  UNL1       -0.3794
     36 O          21.2514   71.9027    2.2490 O.3     1  UNL1       -0.3794
     37 O          21.8041   71.9424   -0.5162 O.3     1  UNL1       -0.3258
     38 H          21.2303   75.7529   -0.5924 H       1  UNL1        0.2106
     39 H          22.3065   75.3839    2.5918 H       1  UNL1        0.2105
     40 H          21.1325   72.3659    3.0884 H       1  UNL1        0.2105
     41 C          22.7588   70.0392    0.6218 C.3     1  UNL1        0.1693
     42 O          21.4267   69.5715    0.4034 O.3     1  UNL1       -0.3794
     43 H          21.4410   68.6136    0.5362 H       1  UNL1        0.2105
@<TRIPOS>BOND
     1    15    16   ar
     2    15    20   ar
     3    15     6    1
     4    16    17   ar
     5    16    21    2
     6    17    18   ar
     7    17    23    1
     8    18    19   ar
     9    18    22    2
    10    19    20   ar
    11     6     7    1
    12     6    11    1
    13     7     8    1
    14     7     9    1
    15     8    13    1
    16     9    10    1
    17     9    12    1
    18    10    11    1
    19    10     5    1
    20    12    14    1
    21     5     4    1
    22     4     1    1
    23     1     2    2
    24     1     3    1
    25     1    24    1
    26    24    25    1
    27    25    26    2
    28    25    27    1
    29    25    28    1
    30    28    29    1
    31    29    30    1
    32    29    37    1
    33    30    31    1
    34    30    34    1
    35    31    32    1
    36    31    35    1
    37    32    33    1
    38    32    36    1
    39    33    41    1
    40    33    37    1
    41    41    42    1
    42    34    38    1
    43    35    39    1
    44    36    40    1
    45    42    43    1
@<TRIPOS>MOLECULE
GDU
 43 45 0 0 0
SMALL
GASTEIGER

@<TRIPOS>ATOM
      1 P          22.4101   71.0017   -2.5227 P.3     1  UNL1        0.2189
      2 O          23.6547   70.6027   -3.2163 O.2     1  UNL1       -0.5170
      3 O          21.8555   69.7608   -1.6593 O.3     1  UNL1       -0.4371
      4 O          22.7140   72.2423   -1.5452 O.3     1  UNL1       -0.3112
      5 C          22.6728   71.7367   -0.2099 C.3     1  UNL1        0.1811
      6 C          20.5341   72.9927    2.3932 C.3     1  UNL1        0.2383
      7 C          20.7468   74.2020    1.4469 C.3     1  UNL1        0.1895
      8 O          19.6036   75.0601    1.4513 O.3     1  UNL1       -0.3779
      9 C          20.9140   73.5106    0.0688 C.3     1  UNL1        0.1713
     10 C          21.3189   72.0671    0.4209 C.3     1  UNL1        0.1764
     11 O          21.4141   71.9838    1.8534 O.3     1  UNL1       -0.3308
     12 O          19.6807   73.5296   -0.6527 O.3     1  UNL1       -0.3794
     13 H          19.7996   75.7888    0.8460 H       1  UNL1        0.2106
     14 H          19.4512   74.4585   -0.7907 H       1  UNL1        0.2105
     15 N          20.9194   73.3335    3.7637 N.ar    1  UNL1       -0.2551
     16 C          22.2105   73.2576    4.1319 C.ar    1  UNL1        0.3323
     17 N          22.5917   73.5688    5.3848 N.ar    1  UNL1       -0.2743
     18 C          21.6790   73.9538    6.2974 C.ar    1  UNL1        0.2626
     19 C          20.3146   74.0328    5.9254 C.ar    1  UNL1        0.0795
     20 C          19.9602   73.7192    4.6610 C.ar    1  UNL1        0.0869
     21 O          23.0453   72.9123    3.3195 O.2     1  UNL1       -0.2464
     22 O          22.0225   74.2311    7.4330 O.2     1  UNL1       -0.2670
     23 H          23.5285   73.5125    5.6320 H       1  UNL1        0.1734
     24 O          21.3048   71.4328   -3.6112 O.3     1  UNL1       -0.2703
     25 P          20.0846   70.3924   -3.4744 P.3     1  UNL1        0.2208
     26 O          20.5921   69.1025   -2.9570 O.2     1  UNL1       -0.5170
     27 O          18.9867   70.9842   -2.4553 O.3     1  UNL1       -0.4371
     28 O          19.4081   70.1643   -4.9168 O.3     1  UNL1       -0.2858
     29 C          18.6575   71.3425   -5.2141 C.3     1  UNL1        0.2704
     30 C          17.2026   70.9623   -5.4935 C.3     1  UNL1        0.1967
     31 C          17.1605   69.9828   -6.6705 C.3     1  UNL1        0.1715
     32 C          17.9107   70.6055   -7.8533 C.3     1  UNL1        0.1694
     33 C          19.3137   71.0112   -7.3950 C.3     1  UNL1        0.1761
     34 O          16.6381   70.3454   -4.3351 O.3     1  UNL1       -0.3775
     35 O          15.8024   69.7324   -7.0384 O.3     1  UNL1       -0.3794
     36 O          17.2025   71.7564   -8.3159 O.3     1  UNL1       -0.3794
     37 O          19.2179   71.9852   -6.3566 O.3     1  UNL1       -0.3258
     38 H          16.6921   70.9935   -3.6196 H       1  UNL1        0.2106
     39 H          15.3678   69.3539   -6.2637 H       1  UNL1        0.2105
     40 H          16.3258   71.4550   -8.5877 H       1  UNL1        0.2105
     41 C          20.0835   71.6031   -8.5777 C.3     1  UNL1        0.1693
     42 O          21.3709   72.0385   -8.1371 O.3     1  UNL1       -0.3794
     43 H          21.8228   72.4032   -8.9105 H       1  UNL1        0.2105
@<TRIPOS>BOND
     1    15    16   ar
     2    15    20   ar
     3    15     6    1
     4    16    17   ar
     5    16    21    2
     6    17    18   ar
     7    17    23    1
     8    18    19   ar
     9    18    22    2
    10    19    20   ar
    11     6     7    1
    12     6    11    1
    13     7     8    1
    14     7     9    1
    15     8    13    1
    16     9    10    1
    17     9    12    1
    18    10    11    1
    19    10     5    1
    20    12    14    1
    21     5     4    1
    22     4     1    1
    23     1     2    2
    24     1     3    1
    25     1    24    1
    26    24    25    1
    27    25    26    2
    28    25    27    1
    29    25    28    1
    30    28    29    1
    31    29    30    1
    32    29    37    1
    33    30    31    1
    34    30    34    1
    35    31    32    1
    36    31    35    1
    37    32    33    1
    38    32    36    1
    39    33    41    1
    40    33    37    1
    41    41    42    1
    42    34    38    1
    43    35    39    1
    44    36    40    1
    45    42    43    1
@<TRIPOS>MOLECULE
GDU
 43 45 0 0 0
SMALL
GASTEIGER

@<TRIPOS>ATOM
      1 P          22.5742   71.8038   -3.3062 P.3     1  UNL1        0.2189
      2 O          23.4590   72.9360   -3.6597 O.2     1  UNL1       -0.5170
      3 O          23.4569   70.4692   -3.1256 O.3     1  UNL1       -0.4371
      4 O          21.8077   72.1304   -1.9305 O.3     1  UNL1       -0.3112
      5 C          22.6085   73.0807   -1.2261 C.3     1  UNL1        0.1811
      6 C          22.5871   73.3958    2.3554 C.3     1  UNL1        0.2383
      7 C          21.2300   72.7283    2.0154 C.3     1  UNL1        0.1895
      8 O          20.8048   71.8686    3.0753 O.3     1  UNL1       -0.3779
      9 C          21.5797   71.9095    0.7455 C.3     1  UNL1        0.1713
     10 C          22.8509   72.5874    0.2015 C.3     1  UNL1        0.1764
     11 O          23.1454   73.7028    1.0602 O.3     1  UNL1       -0.3308
     12 O          21.8383   70.5460    1.0858 O.3     1  UNL1       -0.3794
     13 H          19.9588   71.4869    2.8024 H       1  UNL1        0.2106
     14 H          21.0255   70.1952    1.4743 H       1  UNL1        0.2105
     15 N          22.3823   74.6196    3.1321 N.ar    1  UNL1       -0.2551
     16 C          22.4426   74.5752    4.4747 C.ar    1  UNL1        0.3323
     17 N          22.2614   75.6867    5.2121 N.ar    1  UNL1       -0.2743
     18 C          22.0056   76.8658    4.6133 C.ar    1  UNL1        0.2626
     19 C          21.9335   76.9264    3.2001 C.ar    1  UNL1        0.0795
     20 C          22.1234   75.7976    2.4845 C.ar    1  UNL1        0.0869
     21 O          22.6729   73.5189    5.0290 O.2     1  UNL1       -0.2464
     22 O          21.8368   77.8714    5.2802 O.2     1  UNL1       -0.2670
     23 H          22.3126   75.6371    6.1799 H       1  UNL1        0.1734
     24 O          21.4973   71.5783   -4.4817 O.3     1  UNL1       -0.2703
     25 P          21.5111   72.9078   -5.3886 P.3     1  UNL1        0.2208
     26 O          21.3809   74.0984   -4.5200 O.2     1  UNL1       -0.5170
     27 O          22.8984   72.9872   -6.2029 O.3     1  UNL1       -0.4371
     28 O          20.2825   72.8630   -6.4271 O.3     1  UNL1       -0.2858
     29 C          20.2945   71.5677   -7.0286 C.3     1  UNL1        0.2704
     30 C          20.1796   71.7104   -8.5471 C.3     1  UNL1        0.1967
     31 C          18.8805   72.4499   -8.8815 C.3     1  UNL1        0.1715
     32 C          17.7138   71.7216   -8.2046 C.3     1  UNL1        0.1694
     33 C          18.0152   71.5798   -6.7106 C.3     1  UNL1        0.1761
     34 O          21.2954   72.4514   -9.0440 O.3     1  UNL1       -0.3775
     35 O          18.6856   72.4618  -10.2972 O.3     1  UNL1       -0.3794
     36 O          17.5539   70.4285   -8.7895 O.3     1  UNL1       -0.3794
     37 O          19.1989   70.8038   -6.5298 O.3     1  UNL1       -0.3258
     38 H          22.0894   71.9538   -8.8052 H       1  UNL1        0.2106
     39 H          19.4458   72.9172  -10.6806 H       1  UNL1        0.2105
     40 H          17.3721   70.5664   -9.7282 H       1  UNL1        0.2105
     41 C          16.8407   70.8841   -6.0189 C.3     1  UNL1        0.1693
     42 O          16.0181   71.8620   -5.3801 O.3     1  UNL1       -0.3794
     43 H          15.2912   71.3836   -4.9579 H       1  UNL1        0.2105
@<TRIPOS>BOND
     1    15    16   ar
     2    15    20   ar
     3    15     6    1
     4    16    17   ar
     5    16    21    2
     6    17    18   ar
     7    17    23    1
     8    18    19   ar
     9    18    22    2
    10    19    20   ar
    11     6     7    1
    12     6    11    1
    13     7     8    1
    14     7     9    1
    15     8    13    1
    16     9    10    1
    17     9    12    1
    18    10    11    1
    19    10     5    1
    20    12    14    1
    21     5     4    1
    22     4     1    1
    23     1     2    2
    24     1     3    1
    25     1    24    1
    26    24    25    1
    27    25    26    2
    28    25    27    1
    29    25    28    1
    30    28    29    1
    31    29    30    1
    32    29    37    1
    33    30    31    1
    34    30    34    1
    35    31    32    1
    36    31    35    1
    37    32    33    1
    38    32    36    1
    39    33    41    1
    40    33    37    1
    41    41    42    1
    42    34    38    1
    43    35    39    1
    44    36    40    1
    45    42    43    1
@<TRIPOS>MOLECULE
GDU
 43 45 0 0 0
SMALL
GASTEIGER

@<TRIPOS>ATOM
      1 P          22.3320   72.7213   -4.6745 P.3     1  UNL1        0.2189
      2 O          23.6065   72.5615   -3.9399 O.2     1  UNL1       -0.5170
      3 O          21.6805   74.1492   -4.3143 O.3     1  UNL1       -0.4371
      4 O          22.6105   72.6422   -6.2566 O.3     1  UNL1       -0.3112
      5 C          21.5065   73.2775   -6.9033 C.3     1  UNL1        0.1811
      6 C          18.2507   72.2231   -8.0057 C.3     1  UNL1        0.2383
      7 C          19.1411   72.1232   -9.2707 C.3     1  UNL1        0.1895
      8 O          18.6861   71.0782  -10.1333 O.3     1  UNL1       -0.3779
      9 C          20.5268   71.7775   -8.6662 C.3     1  UNL1        0.1713
     10 C          20.4221   72.2405   -7.2012 C.3     1  UNL1        0.1764
     11 O          19.1218   72.8298   -7.0276 O.3     1  UNL1       -0.3308
     12 O          20.7659   70.3705   -8.7373 O.3     1  UNL1       -0.3794
     13 H          19.2793   71.0693  -10.8975 H       1  UNL1        0.2106
     14 H          20.7615   70.1327   -9.6744 H       1  UNL1        0.2105
     15 N          17.0864   73.0737   -8.2576 N.ar    1  UNL1       -0.2551
     16 C          15.9723   72.9143   -7.5217 C.ar    1  UNL1        0.3323
     17 N          14.8892   73.6858   -7.7307 N.ar    1  UNL1       -0.2743
     18 C          14.9011   74.6284   -8.6927 C.ar    1  UNL1        0.2626
     19 C          16.0658   74.8037   -9.4796 C.ar    1  UNL1        0.0795
     20 C          17.1394   74.0194   -9.2461 C.ar    1  UNL1        0.0869
     21 O          15.9467   72.0685   -6.6499 O.2     1  UNL1       -0.2464
     22 O          13.9196   75.3240   -8.8858 O.2     1  UNL1       -0.2670
     23 H          14.0951   73.5598   -7.1872 H       1  UNL1        0.1734
     24 O          21.3168   71.5468   -4.2476 O.3     1  UNL1       -0.2703
     25 P          21.9402   70.8430   -2.9414 P.3     1  UNL1        0.2208
     26 O          21.3076   69.5201   -2.7448 O.2     1  UNL1       -0.5170
     27 O          23.5274   70.6541   -3.1398 O.3     1  UNL1       -0.4371
     28 O          21.6680   71.7662   -1.6515 O.3     1  UNL1       -0.2858
     29 C          22.7842   71.5967   -0.7769 C.3     1  UNL1        0.2704
     30 C          22.2939   71.1002    0.5841 C.3     1  UNL1        0.1967
     31 C          21.3054   72.1189    1.1599 C.3     1  UNL1        0.1715
     32 C          21.9740   73.4982    1.1709 C.3     1  UNL1        0.1694
     33 C          22.4872   73.8138   -0.2362 C.3     1  UNL1        0.1761
     34 O          21.6448   69.8371    0.4274 O.3     1  UNL1       -0.3775
     35 O          20.9511   71.7437    2.4927 O.3     1  UNL1       -0.3794
     36 O          23.0650   73.4930    2.0927 O.3     1  UNL1       -0.3794
     37 O          23.4588   72.8432   -0.6231 O.3     1  UNL1       -0.3258
     38 H          22.3004   69.2307    0.0567 H       1  UNL1        0.2106
     39 H          20.5466   70.8686    2.4389 H       1  UNL1        0.2105
     40 H          22.6966   73.2848    2.9612 H       1  UNL1        0.2105
     41 C          23.1265   75.2042   -0.2440 C.3     1  UNL1        0.1693
     42 O          24.5082   75.0943    0.1021 O.3     1  UNL1       -0.3794
     43 H          24.8732   75.9897    0.0850 H       1  UNL1        0.2105
@<TRIPOS>BOND
     1    15    16   ar
     2    15    20   ar
     3    15     6    1
     4    16    17   ar
     5    16    21    2
     6    17    18   ar
     7    17    23    1
     8    18    19   ar
     9    18    22    2
    10    19    20   ar
    11     6     7    1
    12     6    11    1
    13     7     8    1
    14     7     9    1
    15     8    13    1
    16     9    10    1
    17     9    12    1
    18    10    11    1
    19    10     5    1
    20    12    14    1
    21     5     4    1
    22     4     1    1
    23     1     2    2
    24     1     3    1
    25     1    24    1
    26    24    25    1
    27    25    26    2
    28    25    27    1
    29    25    28    1
    30    28    29    1
    31    29    30    1
    32    29    37    1
    33    30    31    1
    34    30    34    1
    35    31    32    1
    36    31    35    1
    37    32    33    1
    38    32    36    1
    39    33    41    1
    40    33    37    1
    41    41    42    1
    42    34    38    1
    43    35    39    1
    44    36    40    1
    45    42    43    1
@<TRIPOS>MOLECULE
GDU
 43 45 0 0 0
SMALL
GASTEIGER

@<TRIPOS>ATOM
      1 P          19.5830   69.8072   -3.2408 P.3     1  UNL1        0.2189
      2 O          19.1911   71.0022   -2.4611 O.2     1  UNL1       -0.5170
      3 O          18.6933   68.5479   -2.7763 O.3     1  UNL1       -0.4371
      4 O          19.3431   70.0852   -4.8067 O.3     1  UNL1       -0.3112
      5 C          17.9345   70.2376   -4.9889 C.3     1  UNL1        0.1811
      6 C          18.9139   72.4834   -7.6203 C.3     1  UNL1        0.2383
      7 C          18.7095   71.1198   -8.3285 C.3     1  UNL1        0.1895
      8 O          18.2707   71.3058   -9.6762 O.3     1  UNL1       -0.3779
      9 C          17.5941   70.4709   -7.4683 C.3     1  UNL1        0.1713
     10 C          17.6696   71.2244   -6.1274 C.3     1  UNL1        0.1764
     11 O          18.7542   72.1640   -6.2217 O.3     1  UNL1       -0.3308
     12 O          16.3175   70.6563   -8.0829 O.3     1  UNL1       -0.3794
     13 H          18.1633   70.4238  -10.0587 H       1  UNL1        0.2106
     14 H          16.3530   70.2131   -8.9414 H       1  UNL1        0.2105
     15 N          20.2565   73.0059   -7.8800 N.ar    1  UNL1       -0.2551
     16 C          20.8468   72.7686   -9.0647 C.ar    1  UNL1        0.3323
     17 N          22.0791   73.2405   -9.3301 N.ar    1  UNL1       -0.2743
     18 C          22.7481   73.9538   -8.4039 C.ar    1  UNL1        0.2626
     19 C          22.1411   74.2067   -7.1494 C.ar    1  UNL1        0.0795
     20 C          20.9027   73.7253   -6.9109 C.ar    1  UNL1        0.0869
     21 O          20.2554   72.1271   -9.9102 O.2     1  UNL1       -0.2464
     22 O          23.8656   74.3773   -8.6415 O.2     1  UNL1       -0.2670
     23 H          22.4882   73.0634  -10.1921 H       1  UNL1        0.1734
     24 O          21.1398   69.4866   -2.9837 O.3     1  UNL1       -0.2703
     25 P          21.9009   70.9024   -2.9050 P.3     1  UNL1        0.2208
     26 O          23.3610   70.6833   -3.0009 O.2     1  UNL1       -0.5170
     27 O          21.4183   71.8393   -4.1230 O.3     1  UNL1       -0.4371
     28 O          21.5559   71.6215   -1.5072 O.3     1  UNL1       -0.2858
     29 C          22.7207   71.5160   -0.6876 C.3     1  UNL1        0.2704
     30 C          22.3205   71.0282    0.7057 C.3     1  UNL1        0.1967
     31 C          21.3204   72.0174    1.3120 C.3     1  UNL1        0.1715
     32 C          21.9303   73.4229    1.2632 C.3     1  UNL1        0.1694
     33 C          22.3586   73.7299   -0.1739 C.3     1  UNL1        0.1761
     34 O          21.7178   69.7367    0.6058 O.3     1  UNL1       -0.3775
     35 O          21.0494   71.6559    2.6679 O.3     1  UNL1       -0.3794
     36 O          23.0655   73.4814    2.1280 O.3     1  UNL1       -0.3794
     37 O          23.3494   72.7920   -0.5917 O.3     1  UNL1       -0.3258
     38 H          22.3788   69.1500    0.2136 H       1  UNL1        0.2106
     39 H          20.6798   70.7641    2.6512 H       1  UNL1        0.2105
     40 H          22.7502   73.2764    3.0179 H       1  UNL1        0.2105
     41 C          22.9380   75.1448   -0.2404 C.3     1  UNL1        0.1693
     42 O          24.3463   75.0935   -0.0058 O.3     1  UNL1       -0.3794
     43 H          24.6718   76.0027   -0.0568 H       1  UNL1        0.2105
@<TRIPOS>BOND
     1    15    16   ar
     2    15    20   ar
     3    15     6    1
     4    16    17   ar
     5    16    21    2
     6    17    18   ar
     7    17    23    1
     8    18    19   ar
     9    18    22    2
    10    19    20   ar
    11     6     7    1
    12     6    11    1
    13     7     8    1
    14     7     9    1
    15     8    13    1
    16     9    10    1
    17     9    12    1
    18    10    11    1
    19    10     5    1
    20    12    14    1
    21     5     4    1
    22     4     1    1
    23     1     2    2
    24     1     3    1
    25     1    24    1
    26    24    25    1
    27    25    26    2
    28    25    27    1
    29    25    28    1
    30    28    29    1
    31    29    30    1
    32    29    37    1
    33    30    31    1
    34    30    34    1
    35    31    32    1
    36    31    35    1
    37    32    33    1
    38    32    36    1
    39    33    41    1
    40    33    37    1
    41    41    42    1
    42    34    38    1
    43    35    39    1
    44    36    40    1
    45    42    43    1
