# created with PyMOL 2.5.4
@<TRIPOS>MOLECULE
GDU
58 60 1                 
SMALL
USER_CHARGES
@<TRIPOS>ATOM
1	  N1	0.863	-0.669	5.783	N.pl3	1	GDU0	0.000	
2	  C2	1.592	0.378	5.358	C.2	1	GDU0	0.000	
3	  N3	2.872	0.532	5.745	N.pl3	1	GDU0	0.000	
4	  C4	3.449	-0.371	6.561	C.2	1	GDU0	0.000	
5	  C5	2.695	-1.482	7.012	C.2	1	GDU0	0.000	
6	  C6	1.412	-1.610	6.612	C.2	1	GDU0	0.000	
7	  O2	1.085	1.201	4.622	O.2	1	GDU0	0.000	
8	  O4	4.609	-0.235	6.908	O.2	1	GDU0	0.000	
9	 C1D	-0.528	-0.809	5.349	C.3	1	GDU0	0.000	
10	 C2D	-1.344	0.460	5.705	C.3	1	GDU0	0.000	
11	 O2D	-1.854	0.381	7.038	O.3	1	GDU0	0.000	
12	 C3D	-2.496	0.407	4.668	C.3	1	GDU0	0.000	
13	 C4D	-1.950	-0.498	3.548	C.3	1	GDU0	0.000	
14	 O4D	-0.608	-0.868	3.909	O.3	1	GDU0	0.000	
15	 O3D	-3.669	-0.162	5.253	O.3	1	GDU0	0.000	
16	 C5D	-1.940	0.263	2.221	C.3	1	GDU0	0.000	
17	 O5D	-1.425	-0.581	1.190	O.3	1	GDU0	0.000	
18	  PA	-1.444	0.279	-0.169	P.3	1	GDU0	0.000	
19	 O1A	-2.832	0.692	-0.473	O.co2	1	GDU0	0.000	
20	 O2A	-0.522	1.587	0.010	O.co2	1	GDU0	0.000	
21	 O3A	-0.874	-0.616	-1.380	O.3	1	GDU0	0.000	
22	  PB	-0.921	0.302	-2.701	P.3	1	GDU0	0.000	
23	 O1B	-2.317	0.715	-2.965	O.co2	1	GDU0	0.000	
24	 O2B	-0.008	1.610	-2.478	O.co2	1	GDU0	0.000	
25	 O3B	-0.361	-0.534	-3.957	O.3	1	GDU0	0.000	
26	 C1'	-0.428	0.329	-5.093	C.3	1	GDU0	0.000	
27	 C2'	-0.656	-0.506	-6.354	C.3	1	GDU0	0.000	
28	 C3'	0.493	-1.508	-6.503	C.3	1	GDU0	0.000	
29	 C4'	1.820	-0.742	-6.459	C.3	1	GDU0	0.000	
30	 C5'	1.861	0.110	-5.188	C.3	1	GDU0	0.000	
31	 C6'	3.197	0.853	-5.117	C.3	1	GDU0	0.000	
32	 O2'	-1.895	-1.209	-6.245	O.3	1	GDU0	0.000	
33	 O3'	0.373	-2.194	-7.751	O.3	1	GDU0	0.000	
34	 O4'	1.924	0.100	-7.608	O.3	1	GDU0	0.000	
35	 O5'	0.793	1.056	-5.208	O.3	1	GDU0	0.000	
36	 O6'	3.237	1.647	-3.930	O.3	1	GDU0	0.000	
37	 HN3	3.382	1.296	5.432	 H	1	GDU0	0.000	
38	  H5	3.141	-2.216	7.666	 H	1	GDU0	0.000	
39	  H6	0.821	-2.450	6.946	 H	1	GDU0	0.000	
40	 H1D	-0.981	-1.694	5.795	 H	1	GDU0	0.000	
41	 H2D	-0.741	1.359	5.573	 H	1	GDU0	0.000	
42	HO2'	-2.349	1.197	7.196	 H	1	GDU0	0.000	
43	 H3D	-2.709	1.404	4.283	 H	1	GDU0	0.000	
44	 H4D	-2.568	-1.391	3.458	 H	1	GDU0	0.000	
45	HO3'	-3.927	0.417	5.983	 H	1	GDU0	0.000	
46	H5'1	-1.310	1.147	2.314	 H	1	GDU0	0.000	
47	H5'2	-2.956	0.566	1.969	 H	1	GDU0	0.000	
48	 H1'	-1.255	1.029	-4.967	 H	1	GDU0	0.000	
49	 H2'	-0.684	0.148	-7.225	 H	1	GDU0	0.000	
50	 H3'	0.458	-2.229	-5.686	 H	1	GDU0	0.000	
51	 H4'	2.649	-1.449	-6.448	 H	1	GDU0	0.000	
52	 H5'	1.757	-0.534	-4.316	 H	1	GDU0	0.000	
53	H6'1	3.301	1.498	-5.989	 H	1	GDU0	0.000	
54	H6'2	4.013	0.131	-5.099	 H	1	GDU0	0.000	
55	HO2A	-2.587	-0.541	-6.146	 H	1	GDU0	0.000	
56	HO3A	-0.478	-2.650	-7.739	 H	1	GDU0	0.000	
57	HO4'	1.888	-0.477	-8.382	 H	1	GDU0	0.000	
58	HO6'	4.093	2.097	-3.923	 H	1	GDU0	0.000	
@<TRIPOS>BOND
1 1 2 1
2 1 6 1
3 1 9 1
4 2 3 1
5 2 7 2
6 3 4 1
7 3 37 1
8 4 5 1
9 4 8 2
10 5 6 2
11 5 38 1
12 6 39 1
13 9 10 1
14 9 14 1
15 9 40 1
16 10 11 1
17 10 12 1
18 10 41 1
19 11 42 1
20 12 13 1
21 12 15 1
22 12 43 1
23 13 14 1
24 13 16 1
25 13 44 1
26 15 45 1
27 16 17 1
28 16 46 1
29 16 47 1
30 17 18 1
31 18 19 2
32 18 20 1
33 18 21 1
34 21 22 1
35 22 23 2
36 22 24 1
37 22 25 1
38 25 26 1
39 26 27 1
40 26 35 1
41 26 48 1
42 27 28 1
43 27 32 1
44 27 49 1
45 28 29 1
46 28 33 1
47 28 50 1
48 29 30 1
49 29 34 1
50 29 51 1
51 30 31 1
52 30 35 1
53 30 52 1
54 31 36 1
55 31 53 1
56 31 54 1
57 32 55 1
58 33 56 1
59 34 57 1
60 36 58 1
@<TRIPOS>SUBSTRUCTURE
1	GDU0	1	GROUP	1 ****	GDU
