@<TRIPOS>MOLECULE
UDP-glaA
 43 45 0 0 0
SMALL
GASTEIGER

@<TRIPOS>ATOM
      1 P          22.4792   71.6040   -2.9785 P.3     1  UNL1        0.2189
      2 O          22.3080   73.1970   -2.7535 O.3     1  UNL1       -0.4371
      3 O          23.8675   71.1610   -3.3370 O.2     1  UNL1       -0.5170
      4 O          21.3252   71.2355   -4.0499 O.3     1  UNL1       -0.3112
      5 C          20.4497   70.1593   -3.7593 C.3     1  UNL1        0.1811
      6 O          18.6766   71.4085   -4.7937 O.3     1  UNL1       -0.3308
      7 O          16.8665   70.1780   -2.7441 O.3     1  UNL1       -0.3794
      8 O          16.3656   68.6723   -4.9617 O.3     1  UNL1       -0.3779
      9 C          17.9907   69.6084   -3.4146 C.3     1  UNL1        0.1713
     10 C          17.6356   69.2806   -4.8496 C.3     1  UNL1        0.1895
     11 C          19.0378   70.7009   -3.5870 C.3     1  UNL1        0.1764
     12 C          17.6880   70.6486   -5.5082 C.3     1  UNL1        0.2383
     13 H          17.1519   70.4071   -1.8432 H       1  UNL1        0.2105
     14 H          16.3814   67.8609   -4.4255 H       1  UNL1        0.2106
     15 O          15.8813   70.1960   -7.6310 O.2     1  UNL1       -0.2464
     16 O          19.2435   70.3917  -10.7768 O.2     1  UNL1       -0.2670
     17 N          18.0637   70.5771   -6.8914 N.ar    1  UNL1       -0.2551
     18 N          17.5568   70.2932   -9.1960 N.ar    1  UNL1       -0.2743
     19 C          17.0790   70.3447   -7.8799 C.ar    1  UNL1        0.3323
     20 C          19.3958   70.7362   -7.2570 C.ar    1  UNL1        0.0869
     21 C          19.8354   70.6848   -8.5163 C.ar    1  UNL1        0.0795
     22 C          18.8715   70.4451   -9.6085 C.ar    1  UNL1        0.2626
     23 H          16.8666   70.1266   -9.9233 H       1  UNL1        0.1734
     24 O          21.9079   70.9799   -1.6004 O.3     1  UNL1       -0.2703
     25 P          21.1796   71.6826   -0.3400 P.3     1  UNL1        0.2208
     26 O          21.0570   70.4804    0.7352 O.3     1  UNL1       -0.4371
     27 O          19.8765   72.3500   -0.6750 O.2     1  UNL1       -0.5170
     28 O          22.2954   72.6711    0.2781 O.3     1  UNL1       -0.2858
     29 O          23.3362   71.8948    2.2563 O.3     1  UNL1       -0.3226
     30 O          24.6363   75.8391    2.0783 O.3     1  UNL1       -0.3794
     31 O          21.8812   75.1555    1.4089 O.3     1  UNL1       -0.3775
     32 O          25.2044   73.6074    3.6037 O.3     1  UNL1       -0.3792
     33 C          24.2282   74.5571    1.6087 C.3     1  UNL1        0.1718
     34 C          22.7890   74.2616    2.0443 C.3     1  UNL1        0.1968
     35 C          25.1757   73.4970    2.1768 C.3     1  UNL1        0.1723
     36 C          22.4004   72.8201    1.6933 C.3     1  UNL1        0.2706
     37 C          24.6722   72.1049    1.8018 C.3     1  UNL1        0.1830
     38 H          25.5513   75.9823    1.7822 H       1  UNL1        0.2105
     39 H          20.9852   74.9246    1.7069 H       1  UNL1        0.2106
     40 H          24.3696   73.2566    3.9575 H       1  UNL1        0.2106
     41 O          26.7599   71.4676    2.6615 O.co2   1  UNL1       -0.5466
     42 O          25.0884   69.9194    2.7400 O.co2   1  UNL1       -0.5466
     43 C          25.4948   71.0339    2.4447 C.2     1  UNL1        0.0799
@<TRIPOS>UNITY_ATOM_ATTR
41 1
charge -1
@<TRIPOS>BOND
     1     1     4    1
     2     1    24    1
     3     1     2    1
     4     1     3    2
     5    25    28    1
     6    25    24    1
     7    25    26    1
     8    25    27    2
     9     6    11    1
    10     6    12    1
    11    29    36    1
    12    29    37    1
    13     7     9    1
    14     7    13    1
    15     8    10    1
    16     8    14    1
    17     4     5    1
    18    28    36    1
    19    30    33    1
    20    30    38    1
    21    31    34    1
    22    31    39    1
    23    32    35    1
    24    32    40    1
    25    41    43   ar
    26    15    19    2
    27    42    43   ar
    28    16    22    2
    29    17    12    1
    30    17    19   ar
    31    17    20   ar
    32    18    19   ar
    33    18    22   ar
    34    18    23    1
    35     9    10    1
    36     9    11    1
    37    10    12    1
    38    11     5    1
    39    33    34    1
    40    33    35    1
    41    34    36    1
    42    35    37    1
    43    37    43    1
    44    20    21   ar
    45    21    22   ar
@<TRIPOS>MOLECULE
UDP-glaA
 43 45 0 0 0
SMALL
GASTEIGER

@<TRIPOS>ATOM
      1 P          22.9976   71.8801   -2.4237 P.3     1  UNL1        0.2189
      2 O          23.5072   73.2851   -1.8044 O.3     1  UNL1       -0.4371
      3 O          23.9822   71.1899   -3.3217 O.2     1  UNL1       -0.5170
      4 O          21.5709   72.2438   -3.0929 O.3     1  UNL1       -0.3112
      5 C          20.8451   71.2139   -3.7424 C.3     1  UNL1        0.1811
      6 O          18.7541   71.9039   -4.7047 O.3     1  UNL1       -0.3308
      7 O          17.4438   70.4718   -2.4192 O.3     1  UNL1       -0.3794
      8 O          17.1775   68.6924   -4.4682 O.3     1  UNL1       -0.3779
      9 C          18.6250   70.1272   -3.1429 C.3     1  UNL1        0.1713
     10 C          18.2645   69.5935   -4.5132 C.3     1  UNL1        0.1895
     11 C          19.3586   71.4171   -3.4862 C.3     1  UNL1        0.1764
     12 C          17.9355   70.8679   -5.2719 C.3     1  UNL1        0.2383
     13 H          17.7249   70.8443   -1.5661 H       1  UNL1        0.2105
     14 H          17.4278   67.9611   -3.8777 H       1  UNL1        0.2106
     15 O          16.0890   69.9792   -7.2151 O.2     1  UNL1       -0.2464
     16 O          19.1483   70.4955  -10.6229 O.2     1  UNL1       -0.2670
     17 N          18.2225   70.7608   -6.6739 N.ar    1  UNL1       -0.2551
     18 N          17.6138   70.2364   -8.9107 N.ar    1  UNL1       -0.2743
     19 C          17.2252   70.3025   -7.5662 C.ar    1  UNL1        0.3323
     20 C          19.4811   71.1078   -7.1523 C.ar    1  UNL1        0.0869
     21 C          19.8360   71.0397   -8.4373 C.ar    1  UNL1        0.0795
     22 C          18.8534   70.5702   -9.4340 C.ar    1  UNL1        0.2626
     23 H          16.9131   69.9090   -9.5702 H       1  UNL1        0.1734
     24 O          22.5778   71.0360   -1.1098 O.3     1  UNL1       -0.2703
     25 P          21.6446   71.4297    0.1499 P.3     1  UNL1        0.2208
     26 O          21.4483   70.0214    0.9208 O.3     1  UNL1       -0.4371
     27 O          20.3619   72.1157   -0.2244 O.2     1  UNL1       -0.5170
     28 O          22.6054   72.2939    1.1163 O.3     1  UNL1       -0.2858
     29 O          24.1533   72.1555    2.9008 O.3     1  UNL1       -0.3226
     30 O          21.1938   74.5960    4.5023 O.3     1  UNL1       -0.3794
     31 O          20.4855   72.2746    2.8850 O.3     1  UNL1       -0.3775
     32 O          23.7256   73.7697    5.2353 O.3     1  UNL1       -0.3792
     33 C          22.0487   74.0254    3.5155 C.3     1  UNL1        0.1718
     34 C          21.7928   72.5195    3.3927 C.3     1  UNL1        0.1968
     35 C          23.5049   74.2784    3.9157 C.3     1  UNL1        0.1723
     36 C          22.8219   71.8677    2.4608 C.3     1  UNL1        0.2706
     37 C          24.4367   73.5531    2.9473 C.3     1  UNL1        0.1830
     38 H          21.3917   75.5469    4.5475 H       1  UNL1        0.2105
     39 H          20.3732   71.3116    2.8160 H       1  UNL1        0.2106
     40 H          23.7567   72.7990    5.1910 H       1  UNL1        0.2106
     41 O          26.5987   72.6459    2.8664 O.co2   1  UNL1       -0.5466
     42 O          26.3180   74.5533    4.0830 O.co2   1  UNL1       -0.5466
     43 C          25.8655   73.6654    3.3750 C.2     1  UNL1        0.0799
@<TRIPOS>UNITY_ATOM_ATTR
41 1
charge -1
@<TRIPOS>BOND
     1     1     4    1
     2     1    24    1
     3     1     2    1
     4     1     3    2
     5    25    28    1
     6    25    24    1
     7    25    26    1
     8    25    27    2
     9     6    11    1
    10     6    12    1
    11    29    36    1
    12    29    37    1
    13     7     9    1
    14     7    13    1
    15     8    10    1
    16     8    14    1
    17     4     5    1
    18    28    36    1
    19    30    33    1
    20    30    38    1
    21    31    34    1
    22    31    39    1
    23    32    35    1
    24    32    40    1
    25    41    43   ar
    26    15    19    2
    27    42    43   ar
    28    16    22    2
    29    17    12    1
    30    17    19   ar
    31    17    20   ar
    32    18    19   ar
    33    18    22   ar
    34    18    23    1
    35     9    10    1
    36     9    11    1
    37    10    12    1
    38    11     5    1
    39    33    34    1
    40    33    35    1
    41    34    36    1
    42    35    37    1
    43    37    43    1
    44    20    21   ar
    45    21    22   ar
@<TRIPOS>MOLECULE
UDP-glaA
 43 45 0 0 0
SMALL
GASTEIGER

@<TRIPOS>ATOM
      1 P          23.0999   71.5020   -2.5030 P.3     1  UNL1        0.2189
      2 O          23.3730   73.0595   -2.1608 O.3     1  UNL1       -0.4371
      3 O          24.2585   70.7778   -3.1237 O.2     1  UNL1       -0.5170
      4 O          21.7382   71.5276   -3.3752 O.3     1  UNL1       -0.3112
      5 C          21.6206   72.4783   -4.4200 C.3     1  UNL1        0.1811
      6 O          20.7486   70.5597   -5.5744 O.3     1  UNL1       -0.3308
      7 O          21.3271   72.0547   -8.1084 O.3     1  UNL1       -0.3794
      8 O          18.6413   72.4146   -7.8046 O.3     1  UNL1       -0.3779
      9 C          20.8729   72.5522   -6.8499 C.3     1  UNL1        0.1713
     10 C          19.4147   72.2015   -6.6419 C.3     1  UNL1        0.1895
     11 C          21.5544   71.7455   -5.7524 C.3     1  UNL1        0.1764
     12 C          19.4948   70.7347   -6.2545 C.3     1  UNL1        0.2383
     13 H          22.2731   72.2681   -8.1801 H       1  UNL1        0.2105
     14 H          18.7303   73.3523   -8.0476 H       1  UNL1        0.2106
     15 O          16.9474   69.8810   -7.1247 O.2     1  UNL1       -0.2464
     16 O          15.4815   69.2466   -2.8018 O.2     1  UNL1       -0.2670
     17 N          18.4290   70.3401   -5.3784 N.ar    1  UNL1       -0.2551
     18 N          16.2190   69.5661   -4.9714 N.ar    1  UNL1       -0.2743
     19 C          17.1875   69.9284   -5.9169 C.ar    1  UNL1        0.3323
     20 C          18.6192   70.3635   -4.0012 C.ar    1  UNL1        0.0869
     21 C          17.6860   70.0146   -3.1128 C.ar    1  UNL1        0.0795
     22 C          16.3612   69.5734   -3.5925 C.ar    1  UNL1        0.2626
     23 H          15.3183   69.2674   -5.3358 H       1  UNL1        0.1734
     24 O          22.6110   70.8996   -1.0841 O.3     1  UNL1       -0.2703
     25 P          21.4170   71.3543   -0.0940 P.3     1  UNL1        0.2208
     26 O          21.4247   70.2083    1.0473 O.3     1  UNL1       -0.4371
     27 O          20.0913   71.5431   -0.7740 O.2     1  UNL1       -0.5170
     28 O          21.9799   72.6726    0.6471 O.3     1  UNL1       -0.2858
     29 O          23.2771   71.8256    2.4358 O.3     1  UNL1       -0.3226
     30 O          23.9745   75.9141    2.7137 O.3     1  UNL1       -0.3794
     31 O          21.3026   74.9034    2.1259 O.3     1  UNL1       -0.3775
     32 O          24.9797   73.6241    3.8866 O.3     1  UNL1       -0.3792
     33 C          23.7199   74.6532    2.1008 C.3     1  UNL1        0.1718
     34 C          22.3781   74.0879    2.5788 C.3     1  UNL1        0.1968
     35 C          24.8531   73.6890    2.4623 C.3     1  UNL1        0.1723
     36 C          22.1752   72.6587    2.0605 C.3     1  UNL1        0.2706
     37 C          24.5279   72.2936    1.9338 C.3     1  UNL1        0.1830
     38 H          24.8326   76.2321    2.3849 H       1  UNL1        0.2105
     39 H          20.4762   74.5022    2.4437 H       1  UNL1        0.2106
     40 H          24.2354   73.1078    4.2396 H       1  UNL1        0.2106
     41 O          25.0093   70.0465    2.4055 O.co2   1  UNL1       -0.5466
     42 O          26.7043   71.5484    2.6672 O.co2   1  UNL1       -0.5466
     43 C          25.5455   71.2904    2.3753 C.2     1  UNL1        0.0799
@<TRIPOS>UNITY_ATOM_ATTR
41 1
charge -1
@<TRIPOS>BOND
     1     1     4    1
     2     1    24    1
     3     1     2    1
     4     1     3    2
     5    25    28    1
     6    25    24    1
     7    25    26    1
     8    25    27    2
     9     6    11    1
    10     6    12    1
    11    29    36    1
    12    29    37    1
    13     7     9    1
    14     7    13    1
    15     8    10    1
    16     8    14    1
    17     4     5    1
    18    28    36    1
    19    30    33    1
    20    30    38    1
    21    31    34    1
    22    31    39    1
    23    32    35    1
    24    32    40    1
    25    41    43   ar
    26    15    19    2
    27    42    43   ar
    28    16    22    2
    29    17    12    1
    30    17    19   ar
    31    17    20   ar
    32    18    19   ar
    33    18    22   ar
    34    18    23    1
    35     9    10    1
    36     9    11    1
    37    10    12    1
    38    11     5    1
    39    33    34    1
    40    33    35    1
    41    34    36    1
    42    35    37    1
    43    37    43    1
    44    20    21   ar
    45    21    22   ar
@<TRIPOS>MOLECULE
UDP-glaA
 43 45 0 0 0
SMALL
GASTEIGER

@<TRIPOS>ATOM
      1 P          21.8962   71.6264   -2.7125 P.3     1  UNL1        0.2189
      2 O          21.7047   72.1767   -4.2218 O.3     1  UNL1       -0.4371
      3 O          23.2514   71.0546   -2.4145 O.2     1  UNL1       -0.5170
      4 O          20.6473   70.6204   -2.5030 O.3     1  UNL1       -0.3112
      5 C          19.9377   70.1743   -3.6461 C.3     1  UNL1        0.1811
      6 O          18.2548   71.4319   -4.8125 O.3     1  UNL1       -0.3308
      7 O          16.2816   70.1749   -2.9370 O.3     1  UNL1       -0.3794
      8 O          15.9739   68.6936   -5.2056 O.3     1  UNL1       -0.3779
      9 C          17.4599   69.6151   -3.5164 C.3     1  UNL1        0.1713
     10 C          17.2281   69.3029   -4.9798 C.3     1  UNL1        0.1895
     11 C          18.5148   70.7114   -3.5876 C.3     1  UNL1        0.1764
     12 C          17.3322   70.6784   -5.6164 C.3     1  UNL1        0.2383
     13 H          16.4892   70.3943   -2.0127 H       1  UNL1        0.2105
     14 H          15.9465   67.8762   -4.6790 H       1  UNL1        0.2106
     15 O          15.7002   70.3502   -7.8977 O.2     1  UNL1       -0.2464
     16 O          19.3280   70.4787  -10.7369 O.2     1  UNL1       -0.2670
     17 N          17.8235   70.6233   -6.9636 N.ar    1  UNL1       -0.2551
     18 N          17.5078   70.4139   -9.3099 N.ar    1  UNL1       -0.2743
     19 C          16.9199   70.4549   -8.0388 C.ar    1  UNL1        0.3323
     20 C          19.1875   70.7353   -7.2091 C.ar    1  UNL1        0.0869
     21 C          19.7325   70.6949   -8.4269 C.ar    1  UNL1        0.0795
     22 C          18.8584   70.5206   -9.6039 C.ar    1  UNL1        0.2626
     23 H          16.8774   70.2929  -10.0980 H       1  UNL1        0.1734
     24 O          21.4899   72.9031   -1.8070 O.3     1  UNL1       -0.2703
     25 P          22.1675   74.3641   -1.6694 P.3     1  UNL1        0.2208
     26 O          21.1448   75.3247   -2.4740 O.3     1  UNL1       -0.4371
     27 O          23.5890   74.4315   -2.1496 O.2     1  UNL1       -0.5170
     28 O          21.9681   74.7630   -0.1186 O.3     1  UNL1       -0.2858
     29 O          21.3611   72.6658    0.7940 O.3     1  UNL1       -0.3226
     30 O          22.0202   74.9435    4.2082 O.3     1  UNL1       -0.3794
     31 O          20.6404   76.0875    1.9075 O.3     1  UNL1       -0.3775
     32 O          21.5434   72.2842    3.6329 O.3     1  UNL1       -0.3792
     33 C          22.1910   74.4830    2.8706 C.3     1  UNL1        0.1718
     34 C          20.9062   74.6976    2.0634 C.3     1  UNL1        0.1968
     35 C          22.5480   72.9943    2.9012 C.3     1  UNL1        0.1723
     36 C          21.0213   74.0514    0.6772 C.3     1  UNL1        0.2706
     37 C          22.5955   72.4486    1.4757 C.3     1  UNL1        0.1830
     38 H          22.8549   74.7860    4.6815 H       1  UNL1        0.2105
     39 H          19.8259   76.1736    1.3840 H       1  UNL1        0.2106
     40 H          20.7432   72.2275    3.0836 H       1  UNL1        0.2106
     41 O          21.6614   70.3183    1.1711 O.co2   1  UNL1       -0.5466
     42 O          23.8810   70.4153    1.6819 O.co2   1  UNL1       -0.5466
     43 C          22.8133   70.9690    1.4631 C.2     1  UNL1        0.0799
@<TRIPOS>UNITY_ATOM_ATTR
41 1
charge -1
@<TRIPOS>BOND
     1     1     4    1
     2     1    24    1
     3     1     2    1
     4     1     3    2
     5    25    28    1
     6    25    24    1
     7    25    26    1
     8    25    27    2
     9     6    11    1
    10     6    12    1
    11    29    36    1
    12    29    37    1
    13     7     9    1
    14     7    13    1
    15     8    10    1
    16     8    14    1
    17     4     5    1
    18    28    36    1
    19    30    33    1
    20    30    38    1
    21    31    34    1
    22    31    39    1
    23    32    35    1
    24    32    40    1
    25    41    43   ar
    26    15    19    2
    27    42    43   ar
    28    16    22    2
    29    17    12    1
    30    17    19   ar
    31    17    20   ar
    32    18    19   ar
    33    18    22   ar
    34    18    23    1
    35     9    10    1
    36     9    11    1
    37    10    12    1
    38    11     5    1
    39    33    34    1
    40    33    35    1
    41    34    36    1
    42    35    37    1
    43    37    43    1
    44    20    21   ar
    45    21    22   ar
@<TRIPOS>MOLECULE
UDP-glaA
 43 45 0 0 0
SMALL
GASTEIGER

@<TRIPOS>ATOM
      1 P          22.1884   71.5969   -2.3332 P.3     1  UNL1        0.2189
      2 O          21.4069   72.9318   -1.8591 O.3     1  UNL1       -0.4371
      3 O          23.0589   71.7691   -3.5434 O.2     1  UNL1       -0.5170
      4 O          21.0202   70.4857   -2.4600 O.3     1  UNL1       -0.3112
      5 C          20.2775   70.4181   -3.6654 C.3     1  UNL1        0.1811
      6 O          19.0382   72.0939   -4.8613 O.3     1  UNL1       -0.3308
      7 O          16.8872   71.7003   -2.8096 O.3     1  UNL1       -0.3794
      8 O          15.9526   70.2691   -4.9342 O.3     1  UNL1       -0.3779
      9 C          17.7696   70.7393   -3.3888 C.3     1  UNL1        0.1713
     10 C          17.3505   70.4315   -4.8108 C.3     1  UNL1        0.1895
     11 C          19.1230   71.4073   -3.5930 C.3     1  UNL1        0.1764
     12 C          17.8657   71.6472   -5.5621 C.3     1  UNL1        0.2383
     13 H          17.2170   71.8949   -1.9157 H       1  UNL1        0.2105
     14 H          15.6887   69.5444   -4.3415 H       1  UNL1        0.2106
     15 O          16.1265   71.9371   -7.7681 O.2     1  UNL1       -0.2464
     16 O          19.3331   70.4490  -10.7248 O.2     1  UNL1       -0.2670
     17 N          18.2199   71.3436   -6.9192 N.ar    1  UNL1       -0.2551
     18 N          17.7242   71.1954   -9.2389 N.ar    1  UNL1       -0.2743
     19 C          17.2723   71.5232   -7.9538 C.ar    1  UNL1        0.3323
     20 C          19.4946   70.8729   -7.2141 C.ar    1  UNL1        0.0869
     21 C          19.9105   70.5653   -8.4447 C.ar    1  UNL1        0.0795
     22 C          18.9819   70.7236   -9.5815 C.ar    1  UNL1        0.2626
     23 H          17.0596   71.3162   -9.9984 H       1  UNL1        0.1734
     24 O          22.9765   71.1442   -0.9956 O.3     1  UNL1       -0.2703
     25 P          22.4966   71.0771    0.5464 P.3     1  UNL1        0.2208
     26 O          23.5635   70.0675    1.2235 O.3     1  UNL1       -0.4371
     27 O          21.0610   70.6749    0.7277 O.2     1  UNL1       -0.5170
     28 O          22.8644   72.5267    1.1525 O.3     1  UNL1       -0.2858
     29 O          21.4212   73.4002    2.8119 O.3     1  UNL1       -0.3226
     30 O          23.6604   76.7404    1.7590 O.3     1  UNL1       -0.3794
     31 O          22.7237   74.8808   -0.2831 O.3     1  UNL1       -0.3775
     32 O          21.8142   76.0977    3.7105 O.3     1  UNL1       -0.3792
     33 C          23.3664   75.3688    2.0093 C.3     1  UNL1        0.1718
     34 C          22.2646   74.8774    1.0645 C.3     1  UNL1        0.1968
     35 C          22.9151   75.2166    3.4645 C.3     1  UNL1        0.1723
     36 C          21.8215   73.4575    1.4387 C.3     1  UNL1        0.2706
     37 C          22.4600   73.7802    3.7131 C.3     1  UNL1        0.1830
     38 H          24.3593   77.0086    2.3797 H       1  UNL1        0.2105
     39 H          21.9979   74.5543   -0.8412 H       1  UNL1        0.2106
     40 H          21.0239   75.7330    3.2775 H       1  UNL1        0.2106
     41 O          22.6761   72.8116    5.8388 O.co2   1  UNL1       -0.5466
     42 O          20.8563   74.1377    5.4824 O.co2   1  UNL1       -0.5466
     43 C          21.8888   73.6170    5.0857 C.2     1  UNL1        0.0799
@<TRIPOS>UNITY_ATOM_ATTR
41 1
charge -1
@<TRIPOS>BOND
     1     1     4    1
     2     1    24    1
     3     1     2    1
     4     1     3    2
     5    25    28    1
     6    25    24    1
     7    25    26    1
     8    25    27    2
     9     6    11    1
    10     6    12    1
    11    29    36    1
    12    29    37    1
    13     7     9    1
    14     7    13    1
    15     8    10    1
    16     8    14    1
    17     4     5    1
    18    28    36    1
    19    30    33    1
    20    30    38    1
    21    31    34    1
    22    31    39    1
    23    32    35    1
    24    32    40    1
    25    41    43   ar
    26    15    19    2
    27    42    43   ar
    28    16    22    2
    29    17    12    1
    30    17    19   ar
    31    17    20   ar
    32    18    19   ar
    33    18    22   ar
    34    18    23    1
    35     9    10    1
    36     9    11    1
    37    10    12    1
    38    11     5    1
    39    33    34    1
    40    33    35    1
    41    34    36    1
    42    35    37    1
    43    37    43    1
    44    20    21   ar
    45    21    22   ar
@<TRIPOS>MOLECULE
UDP-glaA
 43 45 0 0 0
SMALL
GASTEIGER

@<TRIPOS>ATOM
      1 P          23.4322   71.9937   -3.3323 P.3     1  UNL1        0.2189
      2 O          24.1250   73.0564   -4.3364 O.3     1  UNL1       -0.4371
      3 O          24.2520   70.7710   -3.0409 O.2     1  UNL1       -0.5170
      4 O          21.9795   71.7256   -3.9906 O.3     1  UNL1       -0.3112
      5 C          21.5492   72.5661   -5.0477 C.3     1  UNL1        0.1811
      6 O          20.6669   70.5458   -6.0038 O.3     1  UNL1       -0.3308
      7 O          21.0269   71.8715   -8.6692 O.3     1  UNL1       -0.3794
      8 O          18.3565   72.1758   -8.2086 O.3     1  UNL1       -0.3779
      9 C          20.6406   72.4446   -7.4202 C.3     1  UNL1        0.1713
     10 C          19.2117   72.0685   -7.0894 C.3     1  UNL1        0.1895
     11 C          21.4194   71.7383   -6.3183 C.3     1  UNL1        0.1764
     12 C          19.3658   70.6360   -6.6074 C.3     1  UNL1        0.2383
     13 H          21.9585   72.1060   -8.8199 H       1  UNL1        0.2105
     14 H          18.3982   73.0958   -8.5217 H       1  UNL1        0.2106
     15 O          16.7399   69.8102   -7.2383 O.2     1  UNL1       -0.2464
     16 O          15.6439   69.2771   -2.7938 O.2     1  UNL1       -0.2670
     17 N          18.3738   70.2750   -5.6353 N.ar    1  UNL1       -0.2551
     18 N          16.1957   69.5458   -5.0247 N.ar    1  UNL1       -0.2743
     19 C          17.0843   69.8749   -6.0568 C.ar    1  UNL1        0.3323
     20 C          18.6828   70.3195   -4.2803 C.ar    1  UNL1        0.0869
     21 C          17.8247   70.0021   -3.3083 C.ar    1  UNL1        0.0795
     22 C          16.4568   69.5750   -3.6635 C.ar    1  UNL1        0.2626
     23 H          15.2625   69.2559   -5.3043 H       1  UNL1        0.1734
     24 O          23.0826   72.8949   -2.0358 O.3     1  UNL1       -0.2703
     25 P          22.8231   74.4834   -1.8875 P.3     1  UNL1        0.2208
     26 O          21.4789   74.7223   -2.7547 O.3     1  UNL1       -0.4371
     27 O          23.9869   75.3388   -2.2993 O.2     1  UNL1       -0.5170
     28 O          22.3603   74.6807   -0.3542 O.3     1  UNL1       -0.2858
     29 O          21.4572   72.5952    0.3052 O.3     1  UNL1       -0.3226
     30 O          21.2035   74.8039    3.8175 O.3     1  UNL1       -0.3794
     31 O          20.5597   76.0262    1.2489 O.3     1  UNL1       -0.3775
     32 O          20.8248   72.1711    3.0726 O.3     1  UNL1       -0.3792
     33 C          21.7278   74.3547    2.5711 C.3     1  UNL1        0.1718
     34 C          20.7280   74.6257    1.4418 C.3     1  UNL1        0.1968
     35 C          22.0157   72.8539    2.6670 C.3     1  UNL1        0.1723
     36 C          21.2069   73.9935    0.1290 C.3     1  UNL1        0.2706
     37 C          22.4438   72.3251    1.2998 C.3     1  UNL1        0.1830
     38 H          21.8669   74.6105    4.5017 H       1  UNL1        0.2105
     39 H          19.9276   76.1481    0.5206 H       1  UNL1        0.2106
     40 H          20.2093   72.1503    2.3204 H       1  UNL1        0.2106
     41 O          21.4358   70.2227    1.0398 O.co2   1  UNL1       -0.5466
     42 O          23.6592   70.2529    1.5421 O.co2   1  UNL1       -0.5466
     43 C          22.6105   70.8388    1.3156 C.2     1  UNL1        0.0799
@<TRIPOS>UNITY_ATOM_ATTR
41 1
charge -1
@<TRIPOS>BOND
     1     1     4    1
     2     1    24    1
     3     1     2    1
     4     1     3    2
     5    25    28    1
     6    25    24    1
     7    25    26    1
     8    25    27    2
     9     6    11    1
    10     6    12    1
    11    29    36    1
    12    29    37    1
    13     7     9    1
    14     7    13    1
    15     8    10    1
    16     8    14    1
    17     4     5    1
    18    28    36    1
    19    30    33    1
    20    30    38    1
    21    31    34    1
    22    31    39    1
    23    32    35    1
    24    32    40    1
    25    41    43   ar
    26    15    19    2
    27    42    43   ar
    28    16    22    2
    29    17    12    1
    30    17    19   ar
    31    17    20   ar
    32    18    19   ar
    33    18    22   ar
    34    18    23    1
    35     9    10    1
    36     9    11    1
    37    10    12    1
    38    11     5    1
    39    33    34    1
    40    33    35    1
    41    34    36    1
    42    35    37    1
    43    37    43    1
    44    20    21   ar
    45    21    22   ar
@<TRIPOS>MOLECULE
UDP-glaA
 43 45 0 0 0
SMALL
GASTEIGER

@<TRIPOS>ATOM
      1 P          21.4369   72.6667   -4.6989 P.3     1  UNL1        0.2189
      2 O          21.4798   74.2671   -4.4661 O.3     1  UNL1       -0.4371
      3 O          22.2315   72.1765   -5.8739 O.2     1  UNL1       -0.5170
      4 O          19.8578   72.3186   -4.7238 O.3     1  UNL1       -0.3112
      5 C          19.3413   71.4434   -3.7356 C.3     1  UNL1        0.1811
      6 O          17.4683   71.7666   -5.2059 O.3     1  UNL1       -0.3308
      7 O          15.8802   70.1644   -3.2305 O.3     1  UNL1       -0.3794
      8 O          16.4081   68.3414   -5.1885 O.3     1  UNL1       -0.3779
      9 C          17.2418   70.0115   -3.6308 C.3     1  UNL1        0.1713
     10 C          17.3170   69.4093   -5.0180 C.3     1  UNL1        0.1895
     11 C          17.8245   71.4008   -3.8544 C.3     1  UNL1        0.1764
     12 C          16.9875   70.6027   -5.8985 C.3     1  UNL1        0.2383
     13 H          15.8812   70.5883   -2.3553 H       1  UNL1        0.2105
     14 H          16.6179   67.6686   -4.5180 H       1  UNL1        0.2106
     15 O          15.6138   70.6833   -8.3646 O.2     1  UNL1       -0.2464
     16 O          19.5289   70.3058  -10.7664 O.2     1  UNL1       -0.2670
     17 N          17.6227   70.5280   -7.1832 N.ar    1  UNL1       -0.2551
     18 N          17.5642   70.4948   -9.5590 N.ar    1  UNL1       -0.2743
     19 C          16.8415   70.5764   -8.3614 C.ar    1  UNL1        0.3323
     20 C          19.0054   70.4080   -7.2669 C.ar    1  UNL1        0.0869
     21 C          19.6797   70.3318   -8.4163 C.ar    1  UNL1        0.0795
     22 C          18.9388   70.3742   -9.6926 C.ar    1  UNL1        0.2626
     23 H          17.0232   70.5269  -10.4188 H       1  UNL1        0.1734
     24 O          21.9156   72.0797   -3.2701 O.3     1  UNL1       -0.2703
     25 P          23.3798   72.0113   -2.5887 P.3     1  UNL1        0.2208
     26 O          24.0637   73.4064   -3.0381 O.3     1  UNL1       -0.4371
     27 O          24.1714   70.7876   -2.9514 O.2     1  UNL1       -0.5170
     28 O          23.1036   72.1823   -1.0081 O.3     1  UNL1       -0.2858
     29 O          24.4424   71.1655    0.6572 O.3     1  UNL1       -0.3226
     30 O          20.8787   71.8309    2.6910 O.3     1  UNL1       -0.3794
     31 O          20.8559   70.8840   -0.0674 O.3     1  UNL1       -0.3775
     32 O          23.4327   71.0019    3.3390 O.3     1  UNL1       -0.3792
     33 C          21.9369   72.0595    1.7646 C.3     1  UNL1        0.1718
     34 C          22.0191   70.9113    0.7531 C.3     1  UNL1        0.1968
     35 C          23.2545   72.1734    2.5361 C.3     1  UNL1        0.1723
     36 C          23.2576   71.0610   -0.1391 C.3     1  UNL1        0.2706
     37 C          24.4180   72.2764    1.5522 C.3     1  UNL1        0.1830
     38 H          20.8655   72.5791    3.3119 H       1  UNL1        0.2105
     39 H          20.9574   70.1494   -0.6959 H       1  UNL1        0.2106
     40 H          23.6724   70.2615    2.7563 H       1  UNL1        0.2106
     41 O          26.2385   71.0019    2.3041 O.co2   1  UNL1       -0.5466
     42 O          26.2911   73.2405    2.7319 O.co2   1  UNL1       -0.5466
     43 C          25.7358   72.2592    2.2594 C.2     1  UNL1        0.0799
@<TRIPOS>UNITY_ATOM_ATTR
41 1
charge -1
@<TRIPOS>BOND
     1     1     4    1
     2     1    24    1
     3     1     2    1
     4     1     3    2
     5    25    28    1
     6    25    24    1
     7    25    26    1
     8    25    27    2
     9     6    11    1
    10     6    12    1
    11    29    36    1
    12    29    37    1
    13     7     9    1
    14     7    13    1
    15     8    10    1
    16     8    14    1
    17     4     5    1
    18    28    36    1
    19    30    33    1
    20    30    38    1
    21    31    34    1
    22    31    39    1
    23    32    35    1
    24    32    40    1
    25    41    43   ar
    26    15    19    2
    27    42    43   ar
    28    16    22    2
    29    17    12    1
    30    17    19   ar
    31    17    20   ar
    32    18    19   ar
    33    18    22   ar
    34    18    23    1
    35     9    10    1
    36     9    11    1
    37    10    12    1
    38    11     5    1
    39    33    34    1
    40    33    35    1
    41    34    36    1
    42    35    37    1
    43    37    43    1
    44    20    21   ar
    45    21    22   ar
@<TRIPOS>MOLECULE
UDP-glaA
 43 45 0 0 0
SMALL
GASTEIGER

@<TRIPOS>ATOM
      1 P          23.1103   71.5742   -2.5295 P.3     1  UNL1        0.2189
      2 O          23.3482   73.1241   -2.1312 O.3     1  UNL1       -0.4371
      3 O          24.2829   70.9007   -3.1803 O.2     1  UNL1       -0.5170
      4 O          21.7446   71.5995   -3.3954 O.3     1  UNL1       -0.3112
      5 C          21.6263   72.5431   -4.4465 C.3     1  UNL1        0.1811
      6 O          20.7799   70.6087   -5.5936 O.3     1  UNL1       -0.3308
      7 O          21.3540   72.0953   -8.1337 O.3     1  UNL1       -0.3794
      8 O          18.6631   72.4284   -7.8440 O.3     1  UNL1       -0.3779
      9 C          20.8889   72.5951   -6.8801 C.3     1  UNL1        0.1713
     10 C          19.4335   72.2302   -6.6766 C.3     1  UNL1        0.1895
     11 C          21.5739   71.8020   -5.7749 C.3     1  UNL1        0.1764
     12 C          19.5274   70.7666   -6.2804 C.3     1  UNL1        0.2383
     13 H          22.2980   72.3183   -8.2024 H       1  UNL1        0.2105
     14 H          18.7434   73.3656   -8.0920 H       1  UNL1        0.2106
     15 O          16.9992   69.8639   -7.1573 O.2     1  UNL1       -0.2464
     16 O          15.5142   69.2567   -2.8370 O.2     1  UNL1       -0.2670
     17 N          18.4618   70.3657   -5.4068 N.ar    1  UNL1       -0.2551
     18 N          16.2612   69.5626   -5.0054 N.ar    1  UNL1       -0.2743
     19 C          17.2304   69.9289   -5.9486 C.ar    1  UNL1        0.3323
     20 C          18.6424   70.4078   -4.0287 C.ar    1  UNL1        0.0869
     21 C          17.7087   70.0548   -3.1425 C.ar    1  UNL1        0.0795
     22 C          16.3941   69.5879   -3.6257 C.ar    1  UNL1        0.2626
     23 H          15.3677   69.2459   -5.3721 H       1  UNL1        0.1734
     24 O          22.6419   70.9088   -1.1320 O.3     1  UNL1       -0.2703
     25 P          21.4189   71.2750   -0.1406 P.3     1  UNL1        0.2208
     26 O          21.5186   70.1395    1.0069 O.3     1  UNL1       -0.4371
     27 O          20.0806   71.3566   -0.8175 O.2     1  UNL1       -0.5170
     28 O          21.8799   72.6371    0.5916 O.3     1  UNL1       -0.2858
     29 O          20.7276   73.5489    2.4464 O.3     1  UNL1       -0.3226
     30 O          22.7464   76.8644    0.9596 O.3     1  UNL1       -0.3794
     31 O          21.4926   74.9565   -0.8553 O.3     1  UNL1       -0.3775
     32 O          21.2519   76.2671    3.2045 O.3     1  UNL1       -0.3792
     33 C          22.5041   75.4990    1.2870 C.3     1  UNL1        0.1718
     34 C          21.2632   74.9847    0.5495 C.3     1  UNL1        0.1968
     35 C          22.3008   75.3811    2.8000 C.3     1  UNL1        0.1723
     36 C          20.8946   73.5739    1.0250 C.3     1  UNL1        0.2706
     37 C          21.8996   73.9507    3.1539 C.3     1  UNL1        0.1830
     38 H          23.5372   77.1477    1.4494 H       1  UNL1        0.2105
     39 H          20.6859   74.6164   -1.2775 H       1  UNL1        0.2106
     40 H          20.4024   75.8918    2.9170 H       1  UNL1        0.2106
     41 O          22.4825   73.0524    5.2412 O.co2   1  UNL1       -0.5466
     42 O          20.5990   74.3336    5.1519 O.co2   1  UNL1       -0.5466
     43 C          21.5644   73.8197    4.6056 C.2     1  UNL1        0.0799
@<TRIPOS>UNITY_ATOM_ATTR
41 1
charge -1
@<TRIPOS>BOND
     1     1     4    1
     2     1    24    1
     3     1     2    1
     4     1     3    2
     5    25    28    1
     6    25    24    1
     7    25    26    1
     8    25    27    2
     9     6    11    1
    10     6    12    1
    11    29    36    1
    12    29    37    1
    13     7     9    1
    14     7    13    1
    15     8    10    1
    16     8    14    1
    17     4     5    1
    18    28    36    1
    19    30    33    1
    20    30    38    1
    21    31    34    1
    22    31    39    1
    23    32    35    1
    24    32    40    1
    25    41    43   ar
    26    15    19    2
    27    42    43   ar
    28    16    22    2
    29    17    12    1
    30    17    19   ar
    31    17    20   ar
    32    18    19   ar
    33    18    22   ar
    34    18    23    1
    35     9    10    1
    36     9    11    1
    37    10    12    1
    38    11     5    1
    39    33    34    1
    40    33    35    1
    41    34    36    1
    42    35    37    1
    43    37    43    1
    44    20    21   ar
    45    21    22   ar
@<TRIPOS>MOLECULE
UDP-glaA
 43 45 0 0 0
SMALL
GASTEIGER

@<TRIPOS>ATOM
      1 P          23.4603   72.0211   -3.3294 P.3     1  UNL1        0.2189
      2 O          24.1567   72.8889   -4.5039 O.3     1  UNL1       -0.4371
      3 O          24.1897   70.7646   -2.9534 O.2     1  UNL1       -0.5170
      4 O          21.9385   71.8244   -3.8402 O.3     1  UNL1       -0.3112
      5 C          21.4680   72.6421   -4.8981 C.3     1  UNL1        0.1811
      6 O          20.6381   70.6054   -5.8664 O.3     1  UNL1       -0.3308
      7 O          21.0390   71.9272   -8.5279 O.3     1  UNL1       -0.3794
      8 O          18.3545   72.1928   -8.1294 O.3     1  UNL1       -0.3779
      9 C          20.6157   72.4987   -7.2902 C.3     1  UNL1        0.1713
     10 C          19.1855   72.1023   -6.9906 C.3     1  UNL1        0.1895
     11 C          21.3797   71.8080   -6.1682 C.3     1  UNL1        0.1764
     12 C          19.3499   70.6740   -6.4998 C.3     1  UNL1        0.2383
     13 H          21.9702   72.1752   -8.6582 H       1  UNL1        0.2105
     14 H          18.3896   73.1123   -8.4449 H       1  UNL1        0.2106
     15 O          16.7730   69.7461   -7.1883 O.2     1  UNL1       -0.2464
     16 O          15.5615   69.2755   -2.7668 O.2     1  UNL1       -0.2670
     17 N          18.3415   70.3014   -5.5492 N.ar    1  UNL1       -0.2551
     18 N          16.1713   69.5129   -4.9861 N.ar    1  UNL1       -0.2743
     19 C          17.0792   69.8487   -5.9990 C.ar    1  UNL1        0.3323
     20 C          18.6078   70.3866   -4.1871 C.ar    1  UNL1        0.0869
     21 C          17.7317   70.0621   -3.2337 C.ar    1  UNL1        0.0795
     22 C          16.3901   69.5812   -3.6189 C.ar    1  UNL1        0.2626
     23 H          15.2570   69.1855   -5.2863 H       1  UNL1        0.1734
     24 O          23.3048   73.0942   -2.1296 O.3     1  UNL1       -0.2703
     25 P          23.1129   72.8852   -0.5384 P.3     1  UNL1        0.2208
     26 O          21.5236   72.6250   -0.3873 O.3     1  UNL1       -0.4371
     27 O          23.6384   74.0156    0.2992 O.2     1  UNL1       -0.5170
     28 O          23.7921   71.4545   -0.2291 O.3     1  UNL1       -0.2858
     29 O          24.6589   71.7395    1.9543 O.3     1  UNL1       -0.3226
     30 O          20.5803   72.2656    2.5607 O.3     1  UNL1       -0.3794
     31 O          21.5550   70.1810    0.7690 O.3     1  UNL1       -0.3775
     32 O          22.8851   72.5700    4.0525 O.3     1  UNL1       -0.3792
     33 C          21.8368   72.3184    1.8908 C.3     1  UNL1        0.1718
     34 C          22.3853   70.9045    1.6713 C.3     1  UNL1        0.1968
     35 C          22.8162   73.1345    2.7389 C.3     1  UNL1        0.1723
     36 C          23.8108   70.9562    1.1079 C.3     1  UNL1        0.2706
     37 C          24.2064   73.0837    2.1088 C.3     1  UNL1        0.1830
     38 H          20.2729   73.1804    2.6804 H       1  UNL1        0.2105
     39 H          21.9459   69.2985    0.6540 H       1  UNL1        0.2106
     40 H          23.3922   71.7418    4.0066 H       1  UNL1        0.2106
     41 O          24.7230   73.9907    4.2098 O.co2   1  UNL1       -0.5466
     42 O          26.3540   74.0623    2.6187 O.co2   1  UNL1       -0.5466
     43 C          25.2235   73.7596    2.9722 C.2     1  UNL1        0.0799
@<TRIPOS>UNITY_ATOM_ATTR
41 1
charge -1
@<TRIPOS>BOND
     1     1     4    1
     2     1    24    1
     3     1     2    1
     4     1     3    2
     5    25    28    1
     6    25    24    1
     7    25    26    1
     8    25    27    2
     9     6    11    1
    10     6    12    1
    11    29    36    1
    12    29    37    1
    13     7     9    1
    14     7    13    1
    15     8    10    1
    16     8    14    1
    17     4     5    1
    18    28    36    1
    19    30    33    1
    20    30    38    1
    21    31    34    1
    22    31    39    1
    23    32    35    1
    24    32    40    1
    25    41    43   ar
    26    15    19    2
    27    42    43   ar
    28    16    22    2
    29    17    12    1
    30    17    19   ar
    31    17    20   ar
    32    18    19   ar
    33    18    22   ar
    34    18    23    1
    35     9    10    1
    36     9    11    1
    37    10    12    1
    38    11     5    1
    39    33    34    1
    40    33    35    1
    41    34    36    1
    42    35    37    1
    43    37    43    1
    44    20    21   ar
    45    21    22   ar
@<TRIPOS>MOLECULE
UDP-glaA
 43 45 0 0 0
SMALL
GASTEIGER

@<TRIPOS>ATOM
      1 P          21.9152   72.4542   -5.7931 P.3     1  UNL1        0.2189
      2 O          21.2545   73.8535   -5.3211 O.3     1  UNL1       -0.4371
      3 O          23.1032   72.5893   -6.7000 O.2     1  UNL1       -0.5170
      4 O          20.6674   71.6156   -6.3894 O.3     1  UNL1       -0.3112
      5 C          20.1650   71.9657   -7.6677 C.3     1  UNL1        0.1811
      6 O          18.9656   69.9320   -7.2208 O.3     1  UNL1       -0.3308
      7 O          18.1120   70.0241  -10.0938 O.3     1  UNL1       -0.3794
      8 O          15.9121   70.9687   -8.7883 O.3     1  UNL1       -0.3779
      9 C          18.3088   71.0989   -9.1752 C.3     1  UNL1        0.1713
     10 C          17.1722   71.1507   -8.1762 C.3     1  UNL1        0.1895
     11 C          19.4964   70.7475   -8.2887 C.3     1  UNL1        0.1764
     12 C          17.5311   70.0174   -7.2303 C.3     1  UNL1        0.2383
     13 H          18.8816   70.0059  -10.6878 H       1  UNL1        0.2105
     14 H          15.8064   71.6694   -9.4547 H       1  UNL1        0.2106
     15 O          16.2508   68.0812   -5.6217 O.2     1  UNL1       -0.2464
     16 O          15.7953   71.0330   -2.1119 O.2     1  UNL1       -0.2670
     17 N          17.0681   70.2524   -5.8925 N.ar    1  UNL1       -0.2551
     18 N          16.0244   69.5525   -3.8752 N.ar    1  UNL1       -0.2743
     19 C          16.4368   69.2128   -5.1704 C.ar    1  UNL1        0.3323
     20 C          17.2412   71.5025   -5.3088 C.ar    1  UNL1        0.0869
     21 C          16.8428   71.8106   -4.0726 C.ar    1  UNL1        0.0795
     22 C          16.1741   70.7816   -3.2518 C.ar    1  UNL1        0.2626
     23 H          15.5675   68.8208   -3.3377 H       1  UNL1        0.1734
     24 O          22.2190   71.7061   -4.3920 O.3     1  UNL1       -0.2703
     25 P          23.4075   71.9122   -3.3160 P.3     1  UNL1        0.2208
     26 O          24.1784   73.2253   -3.8615 O.3     1  UNL1       -0.4371
     27 O          24.2870   70.7088   -3.1316 O.2     1  UNL1       -0.5170
     28 O          22.6618   72.4051   -1.9725 O.3     1  UNL1       -0.2858
     29 O          22.8772   70.8620   -0.1915 O.3     1  UNL1       -0.3226
     30 O          20.1779   73.6146    1.3628 O.3     1  UNL1       -0.3794
     31 O          19.9798   72.7522   -1.4162 O.3     1  UNL1       -0.3775
     32 O          21.6070   71.4507    2.3142 O.3     1  UNL1       -0.3792
     33 C          21.2794   73.1244    0.6034 C.3     1  UNL1        0.1718
     34 C          20.7993   72.1131   -0.4431 C.3     1  UNL1        0.1968
     35 C          22.2794   72.4600    1.5537 C.3     1  UNL1        0.1723
     36 C          21.9911   71.4532   -1.1477 C.3     1  UNL1        0.2706
     37 C          23.3969   71.8037    0.7459 C.3     1  UNL1        0.1830
     38 H          20.5280   74.2477    2.0125 H       1  UNL1        0.2105
     39 H          19.7086   72.0768   -2.0605 H       1  UNL1        0.2106
     40 H          21.4350   70.6899    1.7338 H       1  UNL1        0.2106
     41 O          23.8660   71.0002    2.8995 O.co2   1  UNL1       -0.5466
     42 O          25.3624   70.4970    1.2548 O.co2   1  UNL1       -0.5466
     43 C          24.3276   71.0317    1.6260 C.2     1  UNL1        0.0799
@<TRIPOS>UNITY_ATOM_ATTR
41 1
charge -1
@<TRIPOS>BOND
     1     1     4    1
     2     1    24    1
     3     1     2    1
     4     1     3    2
     5    25    28    1
     6    25    24    1
     7    25    26    1
     8    25    27    2
     9     6    11    1
    10     6    12    1
    11    29    36    1
    12    29    37    1
    13     7     9    1
    14     7    13    1
    15     8    10    1
    16     8    14    1
    17     4     5    1
    18    28    36    1
    19    30    33    1
    20    30    38    1
    21    31    34    1
    22    31    39    1
    23    32    35    1
    24    32    40    1
    25    41    43   ar
    26    15    19    2
    27    42    43   ar
    28    16    22    2
    29    17    12    1
    30    17    19   ar
    31    17    20   ar
    32    18    19   ar
    33    18    22   ar
    34    18    23    1
    35     9    10    1
    36     9    11    1
    37    10    12    1
    38    11     5    1
    39    33    34    1
    40    33    35    1
    41    34    36    1
    42    35    37    1
    43    37    43    1
    44    20    21   ar
    45    21    22   ar
@<TRIPOS>MOLECULE
UDP-glaA
 43 45 0 0 0
SMALL
GASTEIGER

@<TRIPOS>ATOM
      1 P          23.5472   72.4485   -3.4163 P.3     1  UNL1        0.2189
      2 O          24.1241   70.9470   -3.2428 O.3     1  UNL1       -0.4371
      3 O          24.5605   73.4706   -3.8413 O.2     1  UNL1       -0.5170
      4 O          22.7978   72.7426   -2.0136 O.3     1  UNL1       -0.3112
      5 C          23.5758   72.8069   -0.8304 C.3     1  UNL1        0.1811
      6 O          24.5998   71.2806    0.7175 O.3     1  UNL1       -0.3308
      7 O          21.8352   70.2384    1.2296 O.3     1  UNL1       -0.3794
      8 O          22.2688   71.8580    3.3800 O.3     1  UNL1       -0.3779
      9 C          22.2621   71.5747    0.9654 C.3     1  UNL1        0.1713
     10 C          22.9539   72.1549    2.1809 C.3     1  UNL1        0.1895
     11 C          23.3971   71.5134   -0.0483 C.3     1  UNL1        0.1764
     12 C          24.3209   71.4958    2.1108 C.3     1  UNL1        0.2383
     13 H          21.4341   69.8955    0.4128 H       1  UNL1        0.2105
     14 H          21.3693   72.2196    3.3004 H       1  UNL1        0.2106
     15 O          27.0005   70.6737    2.4565 O.2     1  UNL1       -0.2464
     16 O          28.2022   74.7318    4.2802 O.2     1  UNL1       -0.2670
     17 N          25.3549   72.3171    2.6727 N.ar    1  UNL1       -0.2551
     18 N          27.5970   72.6949    3.3649 N.ar    1  UNL1       -0.2743
     19 C          26.6683   71.8086    2.8034 C.ar    1  UNL1        0.3323
     20 C          25.0630   73.6117    3.0879 C.ar    1  UNL1        0.0869
     21 C          25.9597   74.4445    3.6209 C.ar    1  UNL1        0.0795
     22 C          27.3540   73.9908    3.7930 C.ar    1  UNL1        0.2626
     23 H          28.5476   72.3505    3.4690 H       1  UNL1        0.1734
     24 O          22.3190   72.2477   -4.4490 O.3     1  UNL1       -0.2703
     25 P          20.8977   71.4984   -4.2733 P.3     1  UNL1        0.2208
     26 O          20.0977   72.4566   -3.2447 O.3     1  UNL1       -0.4371
     27 O          21.0064   70.0673   -3.8305 O.2     1  UNL1       -0.5170
     28 O          20.1496   71.7034   -5.6883 O.3     1  UNL1       -0.2858
     29 O          18.5618   69.9529   -5.5711 O.3     1  UNL1       -0.3226
     30 O          17.1954   72.1519   -8.8233 O.3     1  UNL1       -0.3794
     31 O          20.0489   71.6802   -8.4473 O.3     1  UNL1       -0.3775
     32 O          16.2739   70.0384   -7.3022 O.3     1  UNL1       -0.3792
     33 C          17.7975   71.8953   -7.5576 C.3     1  UNL1        0.1718
     34 C          19.0294   70.9992   -7.7236 C.3     1  UNL1        0.1968
     35 C          16.7708   71.2118   -6.6503 C.3     1  UNL1        0.1723
     36 C          19.5825   70.5774   -6.3566 C.3     1  UNL1        0.2706
     37 C          17.4377   70.8005   -5.3395 C.3     1  UNL1        0.1830
     38 H          16.4206   72.7191   -8.6700 H       1  UNL1        0.2105
     39 H          20.8094   71.0791   -8.5188 H       1  UNL1        0.2106
     40 H          16.9645   69.3546   -7.2762 H       1  UNL1        0.2106
     41 O          16.1293   70.7385   -3.3932 O.co2   1  UNL1       -0.5466
     42 O          16.1267   68.8745   -4.7056 O.co2   1  UNL1       -0.5466
     43 C          16.5051   70.0137   -4.4744 C.2     1  UNL1        0.0799
@<TRIPOS>UNITY_ATOM_ATTR
41 1
charge -1
@<TRIPOS>BOND
     1     1     4    1
     2     1    24    1
     3     1     2    1
     4     1     3    2
     5    25    28    1
     6    25    24    1
     7    25    26    1
     8    25    27    2
     9     6    11    1
    10     6    12    1
    11    29    36    1
    12    29    37    1
    13     7     9    1
    14     7    13    1
    15     8    10    1
    16     8    14    1
    17     4     5    1
    18    28    36    1
    19    30    33    1
    20    30    38    1
    21    31    34    1
    22    31    39    1
    23    32    35    1
    24    32    40    1
    25    41    43   ar
    26    15    19    2
    27    42    43   ar
    28    16    22    2
    29    17    12    1
    30    17    19   ar
    31    17    20   ar
    32    18    19   ar
    33    18    22   ar
    34    18    23    1
    35     9    10    1
    36     9    11    1
    37    10    12    1
    38    11     5    1
    39    33    34    1
    40    33    35    1
    41    34    36    1
    42    35    37    1
    43    37    43    1
    44    20    21   ar
    45    21    22   ar
@<TRIPOS>MOLECULE
UDP-glaA
 43 45 0 0 0
SMALL
GASTEIGER

@<TRIPOS>ATOM
      1 P          23.4845   72.1935   -3.3857 P.3     1  UNL1        0.2189
      2 O          24.1391   70.7565   -3.0337 O.3     1  UNL1       -0.4371
      3 O          24.4065   73.1578   -4.0728 O.2     1  UNL1       -0.5170
      4 O          22.8648   72.6947   -1.9785 O.3     1  UNL1       -0.3112
      5 C          23.6897   72.6649   -0.8261 C.3     1  UNL1        0.1811
      6 O          24.6541   70.9943    0.6068 O.3     1  UNL1       -0.3308
      7 O          21.8382   70.2229    1.2903 O.3     1  UNL1       -0.3794
      8 O          22.5843   71.7213    3.4429 O.3     1  UNL1       -0.3779
      9 C          22.3821   71.5165    1.0288 C.3     1  UNL1        0.1713
     10 C          23.2123   71.9847    2.2053 C.3     1  UNL1        0.1895
     11 C          23.4322   71.3723   -0.0649 C.3     1  UNL1        0.1764
     12 C          24.4956   71.1927    2.0213 C.3     1  UNL1        0.2383
     13 H          21.3485   69.9485    0.4962 H       1  UNL1        0.2105
     14 H          21.7238   72.1748    3.4369 H       1  UNL1        0.2106
     15 O          24.4928   73.8919    2.8518 O.2     1  UNL1       -0.2464
     16 O          28.9677   73.7508    3.9445 O.2     1  UNL1       -0.2670
     17 N          25.6453   71.8864    2.5275 N.ar    1  UNL1       -0.2551
     18 N          26.7213   73.8200    3.3949 N.ar    1  UNL1       -0.2743
     19 C          25.5379   73.2420    2.9166 C.ar    1  UNL1        0.3323
     20 C          26.8632   71.2240    2.6341 C.ar    1  UNL1        0.0869
     21 C          27.9824   71.7888    3.0925 C.ar    1  UNL1        0.0795
     22 C          27.9560   73.2020    3.5190 C.ar    1  UNL1        0.2626
     23 H          26.6678   74.7942    3.6799 H       1  UNL1        0.1734
     24 O          22.1704   71.7937   -4.2393 O.3     1  UNL1       -0.2703
     25 P          21.6484   72.3015   -5.6822 P.3     1  UNL1        0.2208
     26 O          22.9742   72.2227   -6.6053 O.3     1  UNL1       -0.4371
     27 O          20.9886   73.6506   -5.6587 O.2     1  UNL1       -0.5170
     28 O          20.7052   71.1074   -6.2193 O.3     1  UNL1       -0.2858
     29 O          19.0785   70.4766   -4.6207 O.3     1  UNL1       -0.3226
     30 O          18.7083   74.6168   -4.6530 O.3     1  UNL1       -0.3794
     31 O          19.0846   73.1435   -7.1417 O.3     1  UNL1       -0.3775
     32 O          17.7231   72.5272   -3.1387 O.3     1  UNL1       -0.3792
     33 C          19.3433   73.3438   -4.7335 C.3     1  UNL1        0.1718
     34 C          18.7653   72.5308   -5.8969 C.3     1  UNL1        0.1968
     35 C          19.1260   72.5977   -3.4142 C.3     1  UNL1        0.1723
     36 C          19.3175   71.1000   -5.8869 C.3     1  UNL1        0.2706
     37 C          19.6757   71.1777   -3.5310 C.3     1  UNL1        0.1830
     38 H          19.1026   75.0944   -3.9034 H       1  UNL1        0.2105
     39 H          18.7074   72.5902   -7.8463 H       1  UNL1        0.2106
     40 H          17.3229   71.8752   -3.7386 H       1  UNL1        0.2106
     41 O          20.3148   70.5642   -1.3587 O.co2   1  UNL1       -0.5466
     42 O          18.4007   69.6364   -2.1788 O.co2   1  UNL1       -0.5466
     43 C          19.3697   70.3702   -2.3099 C.2     1  UNL1        0.0799
@<TRIPOS>UNITY_ATOM_ATTR
41 1
charge -1
@<TRIPOS>BOND
     1     1     4    1
     2     1    24    1
     3     1     2    1
     4     1     3    2
     5    25    28    1
     6    25    24    1
     7    25    26    1
     8    25    27    2
     9     6    11    1
    10     6    12    1
    11    29    36    1
    12    29    37    1
    13     7     9    1
    14     7    13    1
    15     8    10    1
    16     8    14    1
    17     4     5    1
    18    28    36    1
    19    30    33    1
    20    30    38    1
    21    31    34    1
    22    31    39    1
    23    32    35    1
    24    32    40    1
    25    41    43   ar
    26    15    19    2
    27    42    43   ar
    28    16    22    2
    29    17    12    1
    30    17    19   ar
    31    17    20   ar
    32    18    19   ar
    33    18    22   ar
    34    18    23    1
    35     9    10    1
    36     9    11    1
    37    10    12    1
    38    11     5    1
    39    33    34    1
    40    33    35    1
    41    34    36    1
    42    35    37    1
    43    37    43    1
    44    20    21   ar
    45    21    22   ar
@<TRIPOS>MOLECULE
UDP-glaA
 43 45 0 0 0
SMALL
GASTEIGER

@<TRIPOS>ATOM
      1 P          22.2485   73.2125   -6.9991 P.3     1  UNL1        0.2189
      2 O          21.1699   74.1636   -6.2580 O.3     1  UNL1       -0.4371
      3 O          23.1609   73.9184   -7.9590 O.2     1  UNL1       -0.5170
      4 O          21.3518   72.0224   -7.6277 O.3     1  UNL1       -0.3112
      5 C          19.9545   72.0288   -7.3894 C.3     1  UNL1        0.1811
      6 O          18.7270   70.0050   -6.9747 O.3     1  UNL1       -0.3308
      7 O          18.0976   70.0073   -9.9065 O.3     1  UNL1       -0.3794
      8 O          15.8022   70.9826   -8.8039 O.3     1  UNL1       -0.3779
      9 C          18.2215   71.1100   -9.0085 C.3     1  UNL1        0.1713
     10 C          17.0110   71.1877   -8.1022 C.3     1  UNL1        0.1895
     11 C          19.3375   70.7899   -8.0228 C.3     1  UNL1        0.1764
     12 C          17.2974   70.0847   -7.0975 C.3     1  UNL1        0.2383
     13 H          18.9108   69.9741  -10.4386 H       1  UNL1        0.2105
     14 H          15.7474   71.6626   -9.4973 H       1  UNL1        0.2106
     15 O          16.6258   68.1060   -5.1977 O.2     1  UNL1       -0.2464
     16 O          15.1323   71.2514   -2.1788 O.2     1  UNL1       -0.2670
     17 N          16.7322   70.3583   -5.8071 N.ar    1  UNL1       -0.2551
     18 N          15.8821   69.6736   -3.6959 N.ar    1  UNL1       -0.2743
     19 C          16.4304   69.2924   -4.9276 C.ar    1  UNL1        0.3323
     20 C          16.4822   71.6714   -5.4241 C.ar    1  UNL1        0.0869
     21 C          15.9595   72.0186   -4.2460 C.ar    1  UNL1        0.0795
     22 C          15.6150   70.9656   -3.2703 C.ar    1  UNL1        0.2626
     23 H          15.6566   68.9237   -3.0478 H       1  UNL1        0.1734
     24 O          23.0006   72.4873   -5.7647 O.3     1  UNL1       -0.2703
     25 P          22.5132   72.1921   -4.2521 P.3     1  UNL1        0.2208
     26 O          23.8606   71.6742   -3.5225 O.3     1  UNL1       -0.4371
     27 O          21.3514   71.2455   -4.1530 O.2     1  UNL1       -0.5170
     28 O          22.2405   73.6509   -3.6184 O.3     1  UNL1       -0.2858
     29 O          20.5985   73.1353   -1.9944 O.3     1  UNL1       -0.3226
     30 O          23.9200   71.0931   -0.5535 O.3     1  UNL1       -0.3794
     31 O          24.1988   73.7705   -1.6759 O.3     1  UNL1       -0.3775
     32 O          21.2308   71.2349    0.0616 O.3     1  UNL1       -0.3792
     33 C          23.0202   71.6518   -1.5066 C.3     1  UNL1        0.1718
     34 C          22.9489   73.1741   -1.3459 C.3     1  UNL1        0.1968
     35 C          21.6333   71.0375   -1.2978 C.3     1  UNL1        0.1723
     36 C          21.8586   73.7651   -2.2483 C.3     1  UNL1        0.2706
     37 C          20.6239   71.7258   -2.2140 C.3     1  UNL1        0.1830
     38 H          23.9315   70.1304   -0.6901 H       1  UNL1        0.2105
     39 H          24.1027   74.7318   -1.5689 H       1  UNL1        0.2106
     40 H          20.9918   72.1697    0.1803 H       1  UNL1        0.2106
     41 O          18.3821   72.2946   -1.8206 O.co2   1  UNL1       -0.5466
     42 O          18.8968   70.0743   -1.8685 O.co2   1  UNL1       -0.5466
     43 C          19.2314   71.2471   -1.9516 C.2     1  UNL1        0.0799
@<TRIPOS>UNITY_ATOM_ATTR
41 1
charge -1
@<TRIPOS>BOND
     1     1     4    1
     2     1    24    1
     3     1     2    1
     4     1     3    2
     5    25    28    1
     6    25    24    1
     7    25    26    1
     8    25    27    2
     9     6    11    1
    10     6    12    1
    11    29    36    1
    12    29    37    1
    13     7     9    1
    14     7    13    1
    15     8    10    1
    16     8    14    1
    17     4     5    1
    18    28    36    1
    19    30    33    1
    20    30    38    1
    21    31    34    1
    22    31    39    1
    23    32    35    1
    24    32    40    1
    25    41    43   ar
    26    15    19    2
    27    42    43   ar
    28    16    22    2
    29    17    12    1
    30    17    19   ar
    31    17    20   ar
    32    18    19   ar
    33    18    22   ar
    34    18    23    1
    35     9    10    1
    36     9    11    1
    37    10    12    1
    38    11     5    1
    39    33    34    1
    40    33    35    1
    41    34    36    1
    42    35    37    1
    43    37    43    1
    44    20    21   ar
    45    21    22   ar
@<TRIPOS>MOLECULE
UDP-glaA
 43 45 0 0 0
SMALL
GASTEIGER

@<TRIPOS>ATOM
      1 P          23.3696   71.8773   -3.3580 P.3     1  UNL1        0.2189
      2 O          24.1235   72.8646   -4.3944 O.3     1  UNL1       -0.4371
      3 O          24.1918   70.7179   -2.8763 O.2     1  UNL1       -0.5170
      4 O          21.9923   71.4958   -4.1149 O.3     1  UNL1       -0.3112
      5 C          21.2227   70.4145   -3.6171 C.3     1  UNL1        0.1811
      6 O          19.2834   71.5576   -4.4578 O.3     1  UNL1       -0.3308
      7 O          17.8011   70.3503   -2.1478 O.3     1  UNL1       -0.3794
      8 O          17.0808   68.7380   -4.2256 O.3     1  UNL1       -0.3779
      9 C          18.8520   69.7931   -2.9370 C.3     1  UNL1        0.1713
     10 C          18.3295   69.3943   -4.3010 C.3     1  UNL1        0.1895
     11 C          19.8240   70.9133   -3.2832 C.3     1  UNL1        0.1764
     12 C          18.2426   70.7350   -5.0102 C.3     1  UNL1        0.2383
     13 H          18.1902   70.6261   -1.3003 H       1  UNL1        0.2105
     14 H          17.1974   67.9504   -3.6667 H       1  UNL1        0.2106
     15 O          16.1946   70.1520   -6.8653 O.2     1  UNL1       -0.2464
     16 O          19.1197   70.3145  -10.4229 O.2     1  UNL1       -0.2670
     17 N          18.4406   70.6196   -6.4269 N.ar    1  UNL1       -0.2551
     18 N          17.6526   70.2327   -8.6356 N.ar    1  UNL1       -0.2743
     19 C          17.3455   70.3228   -7.2715 C.ar    1  UNL1        0.3323
     20 C          19.7094   70.7998   -6.9663 C.ar    1  UNL1        0.0869
     21 C          19.9860   70.7112   -8.2692 C.ar    1  UNL1        0.0795
     22 C          18.8985   70.4035   -9.2191 C.ar    1  UNL1        0.2626
     23 H          16.8808   70.0196   -9.2616 H       1  UNL1        0.1734
     24 O          22.8766   72.8838   -2.1922 O.3     1  UNL1       -0.2703
     25 P          21.9426   74.2015   -2.2541 P.3     1  UNL1        0.2208
     26 O          23.0131   75.4134   -2.2940 O.3     1  UNL1       -0.4371
     27 O          20.9384   74.2977   -1.1414 O.2     1  UNL1       -0.5170
     28 O          21.2983   74.1769   -3.7333 O.3     1  UNL1       -0.2858
     29 O          21.8344   75.9423   -5.2151 O.3     1  UNL1       -0.3226
     30 O          18.5423   74.2142   -7.0740 O.3     1  UNL1       -0.3794
     31 O          18.5996   74.5538   -4.1779 O.3     1  UNL1       -0.3775
     32 O          20.4177   76.1421   -7.7034 O.3     1  UNL1       -0.3792
     33 C          19.7410   74.2906   -6.3073 C.3     1  UNL1        0.1718
     34 C          19.5275   75.1656   -5.0675 C.3     1  UNL1        0.1968
     35 C          20.8508   74.8817   -7.1810 C.3     1  UNL1        0.1723
     36 C          20.8524   75.3943   -4.3294 C.3     1  UNL1        0.2706
     37 C          22.1043   75.1040   -6.3376 C.3     1  UNL1        0.1830
     38 H          18.7242   73.6541   -7.8478 H       1  UNL1        0.2105
     39 H          18.5041   75.1375   -3.4065 H       1  UNL1        0.2106
     40 H          20.4375   76.7973   -6.9854 H       1  UNL1        0.2106
     41 O          23.0141   77.1442   -7.0545 O.co2   1  UNL1       -0.5466
     42 O          24.0716   75.2412   -7.7308 O.co2   1  UNL1       -0.5466
     43 C          23.1730   75.8002   -7.1187 C.2     1  UNL1        0.0799
@<TRIPOS>UNITY_ATOM_ATTR
41 1
charge -1
@<TRIPOS>BOND
     1     1     4    1
     2     1    24    1
     3     1     2    1
     4     1     3    2
     5    25    28    1
     6    25    24    1
     7    25    26    1
     8    25    27    2
     9     6    11    1
    10     6    12    1
    11    29    36    1
    12    29    37    1
    13     7     9    1
    14     7    13    1
    15     8    10    1
    16     8    14    1
    17     4     5    1
    18    28    36    1
    19    30    33    1
    20    30    38    1
    21    31    34    1
    22    31    39    1
    23    32    35    1
    24    32    40    1
    25    41    43   ar
    26    15    19    2
    27    42    43   ar
    28    16    22    2
    29    17    12    1
    30    17    19   ar
    31    17    20   ar
    32    18    19   ar
    33    18    22   ar
    34    18    23    1
    35     9    10    1
    36     9    11    1
    37    10    12    1
    38    11     5    1
    39    33    34    1
    40    33    35    1
    41    34    36    1
    42    35    37    1
    43    37    43    1
    44    20    21   ar
    45    21    22   ar
@<TRIPOS>MOLECULE
UDP-glaA
 43 45 0 0 0
SMALL
GASTEIGER

@<TRIPOS>ATOM
      1 P          21.7539   72.6688   -5.5624 P.3     1  UNL1        0.2189
      2 O          21.1325   74.1531   -5.7295 O.3     1  UNL1       -0.4371
      3 O          23.1597   72.5110   -6.0632 O.2     1  UNL1       -0.5170
      4 O          20.6511   71.7050   -6.2483 O.3     1  UNL1       -0.3112
      5 C          20.1255   72.0699   -7.5132 C.3     1  UNL1        0.1811
      6 O          18.9761   69.9991   -7.1073 O.3     1  UNL1       -0.3308
      7 O          18.1326   70.1199   -9.9822 O.3     1  UNL1       -0.3794
      8 O          15.9040   70.9858   -8.6709 O.3     1  UNL1       -0.3779
      9 C          18.2983   71.1831   -9.0442 C.3     1  UNL1        0.1713
     10 C          17.1565   71.1888   -8.0498 C.3     1  UNL1        0.1895
     11 C          19.4906   70.8463   -8.1584 C.3     1  UNL1        0.1764
     12 C          17.5399   70.0484   -7.1221 C.3     1  UNL1        0.2383
     13 H          18.9049   70.1316  -10.5729 H       1  UNL1        0.2105
     14 H          15.7835   71.6952   -9.3254 H       1  UNL1        0.2106
     15 O          16.0806   68.1349   -5.6441 O.2     1  UNL1       -0.2464
     16 O          15.7690   70.9262   -1.9903 O.2     1  UNL1       -0.2670
     17 N          17.0655   70.2483   -5.7826 N.ar    1  UNL1       -0.2551
     18 N          15.9259   69.5263   -3.8258 N.ar    1  UNL1       -0.2743
     19 C          16.3411   69.2239   -5.1294 C.ar    1  UNL1        0.3323
     20 C          17.3190   71.4494   -5.1295 C.ar    1  UNL1        0.0869
     21 C          16.9168   71.7223   -3.8863 C.ar    1  UNL1        0.0795
     22 C          16.1537   70.7062   -3.1346 C.ar    1  UNL1        0.2626
     23 H          15.4029   68.8047   -3.3370 H       1  UNL1        0.1734
     24 O          21.5639   72.3721   -3.9841 O.3     1  UNL1       -0.2703
     25 P          21.9520   71.0799   -3.0939 P.3     1  UNL1        0.2208
     26 O          23.5651   71.0271   -3.2001 O.3     1  UNL1       -0.4371
     27 O          21.2614   69.8136   -3.5125 O.2     1  UNL1       -0.5170
     28 O          21.6574   71.5283   -1.5720 O.3     1  UNL1       -0.2858
     29 O          23.4085   72.8177   -0.6391 O.3     1  UNL1       -0.3226
     30 O          20.9539   72.1712    2.6527 O.3     1  UNL1       -0.3794
     31 O          21.4597   70.0298    0.7384 O.3     1  UNL1       -0.3775
     32 O          23.1804   73.7030    2.0817 O.3     1  UNL1       -0.3792
     33 C          21.3120   72.3918    1.2913 C.3     1  UNL1        0.1718
     34 C          22.1944   71.2486    0.7788 C.3     1  UNL1        0.1968
     35 C          22.0638   73.7215    1.1863 C.3     1  UNL1        0.1723
     36 C          22.7252   71.5600   -0.6261 C.3     1  UNL1        0.2706
     37 C          22.5799   73.9080   -0.2389 C.3     1  UNL1        0.1830
     38 H          20.3993   72.9184    2.9350 H       1  UNL1        0.2105
     39 H          22.0547   69.3397    0.3999 H       1  UNL1        0.2106
     40 H          23.8654   73.1223    1.7093 H       1  UNL1        0.2106
     41 O          22.9330   76.1366    0.4034 O.co2   1  UNL1       -0.5466
     42 O          24.4414   75.2208   -1.0398 O.co2   1  UNL1       -0.5466
     43 C          23.4315   75.1320   -0.3567 C.2     1  UNL1        0.0799
@<TRIPOS>UNITY_ATOM_ATTR
41 1
charge -1
@<TRIPOS>BOND
     1     1     4    1
     2     1    24    1
     3     1     2    1
     4     1     3    2
     5    25    28    1
     6    25    24    1
     7    25    26    1
     8    25    27    2
     9     6    11    1
    10     6    12    1
    11    29    36    1
    12    29    37    1
    13     7     9    1
    14     7    13    1
    15     8    10    1
    16     8    14    1
    17     4     5    1
    18    28    36    1
    19    30    33    1
    20    30    38    1
    21    31    34    1
    22    31    39    1
    23    32    35    1
    24    32    40    1
    25    41    43   ar
    26    15    19    2
    27    42    43   ar
    28    16    22    2
    29    17    12    1
    30    17    19   ar
    31    17    20   ar
    32    18    19   ar
    33    18    22   ar
    34    18    23    1
    35     9    10    1
    36     9    11    1
    37    10    12    1
    38    11     5    1
    39    33    34    1
    40    33    35    1
    41    34    36    1
    42    35    37    1
    43    37    43    1
    44    20    21   ar
    45    21    22   ar
@<TRIPOS>MOLECULE
UDP-glaA
 43 45 0 0 0
SMALL
GASTEIGER

@<TRIPOS>ATOM
      1 P          22.3365   73.0197   -7.0704 P.3     1  UNL1        0.2189
      2 O          23.2270   73.8179   -8.1600 O.3     1  UNL1       -0.4371
      3 O          23.1240   72.2703   -6.0359 O.2     1  UNL1       -0.5170
      4 O          21.3286   72.1287   -7.9682 O.3     1  UNL1       -0.3112
      5 C          19.9744   72.0229   -7.5633 C.3     1  UNL1        0.1811
      6 O          18.8078   69.9640   -7.1459 O.3     1  UNL1       -0.3308
      7 O          18.0708   70.0097  -10.0521 O.3     1  UNL1       -0.3794
      8 O          15.7967   70.9107   -8.8468 O.3     1  UNL1       -0.3779
      9 C          18.2034   71.0970   -9.1367 C.3     1  UNL1        0.1713
     10 C          17.0258   71.1294   -8.1855 C.3     1  UNL1        0.1895
     11 C          19.3618   70.7831   -8.1991 C.3     1  UNL1        0.1764
     12 C          17.3732   70.0136   -7.2148 C.3     1  UNL1        0.2383
     13 H          18.8644   70.0055  -10.6140 H       1  UNL1        0.2105
     14 H          15.7014   71.6028   -9.5236 H       1  UNL1        0.2106
     15 O          16.3735   67.9955   -5.5109 O.2     1  UNL1       -0.2464
     16 O          15.3890   71.0335   -2.1883 O.2     1  UNL1       -0.2670
     17 N          16.8502   70.2487   -5.8993 N.ar    1  UNL1       -0.2551
     18 N          15.8834   69.5097   -3.8577 N.ar    1  UNL1       -0.2743
     19 C          16.3719   69.1658   -5.1251 C.ar    1  UNL1        0.3323
     20 C          16.8145   71.5415   -5.3885 C.ar    1  UNL1        0.0869
     21 C          16.3461   71.8530   -4.1779 C.ar    1  UNL1        0.0795
     22 C          15.8271   70.7803   -3.3063 C.ar    1  UNL1        0.2626
     23 H          15.5338   68.7472   -3.2838 H       1  UNL1        0.1734
     24 O          21.3707   74.1730   -6.4769 O.3     1  UNL1       -0.2703
     25 P          21.7140   75.5392   -5.6842 P.3     1  UNL1        0.2208
     26 O          20.2607   76.0700   -5.2130 O.3     1  UNL1       -0.4371
     27 O          22.5076   76.5325   -6.4838 O.2     1  UNL1       -0.5170
     28 O          22.4321   75.0529   -4.3233 O.3     1  UNL1       -0.2858
     29 O          21.9409   73.1177   -3.0533 O.3     1  UNL1       -0.3226
     30 O          23.4100   75.7112   -0.1559 O.3     1  UNL1       -0.3794
     31 O          21.6248   76.6839   -2.2471 O.3     1  UNL1       -0.3775
     32 O          22.7050   73.0437   -0.2876 O.3     1  UNL1       -0.3792
     33 C          23.2723   75.0936   -1.4326 C.3     1  UNL1        0.1718
     34 C          21.8561   75.3050   -1.9786 C.3     1  UNL1        0.1968
     35 C          23.5616   73.5966   -1.2923 C.3     1  UNL1        0.1723
     36 C          21.6455   74.5017   -3.2681 C.3     1  UNL1        0.2706
     37 C          23.2811   72.8932   -2.6185 C.3     1  UNL1        0.1830
     38 H          24.3184   75.5502    0.1513 H       1  UNL1        0.2105
     39 H          20.7223   76.7670   -2.5985 H       1  UNL1        0.2106
     40 H          21.8048   72.9815   -0.6493 H       1  UNL1        0.2106
     41 O          22.3633   70.8792   -1.8407 O.co2   1  UNL1       -0.5466
     42 O          24.3682   70.7583   -2.9191 O.co2   1  UNL1       -0.5466
     43 C          23.4258   71.4099   -2.4925 C.2     1  UNL1        0.0799
@<TRIPOS>UNITY_ATOM_ATTR
41 1
charge -1
@<TRIPOS>BOND
     1     1     4    1
     2     1    24    1
     3     1     2    1
     4     1     3    2
     5    25    28    1
     6    25    24    1
     7    25    26    1
     8    25    27    2
     9     6    11    1
    10     6    12    1
    11    29    36    1
    12    29    37    1
    13     7     9    1
    14     7    13    1
    15     8    10    1
    16     8    14    1
    17     4     5    1
    18    28    36    1
    19    30    33    1
    20    30    38    1
    21    31    34    1
    22    31    39    1
    23    32    35    1
    24    32    40    1
    25    41    43   ar
    26    15    19    2
    27    42    43   ar
    28    16    22    2
    29    17    12    1
    30    17    19   ar
    31    17    20   ar
    32    18    19   ar
    33    18    22   ar
    34    18    23    1
    35     9    10    1
    36     9    11    1
    37    10    12    1
    38    11     5    1
    39    33    34    1
    40    33    35    1
    41    34    36    1
    42    35    37    1
    43    37    43    1
    44    20    21   ar
    45    21    22   ar
@<TRIPOS>MOLECULE
UDP-glaA
 43 45 0 0 0
SMALL
GASTEIGER

@<TRIPOS>ATOM
      1 P          22.7994   73.2852   -4.2716 P.3     1  UNL1        0.2189
      2 O          22.5784   74.7080   -5.0092 O.3     1  UNL1       -0.4371
      3 O          24.1874   72.7249   -4.3799 O.2     1  UNL1       -0.5170
      4 O          21.6170   72.3526   -4.8613 O.3     1  UNL1       -0.3112
      5 C          21.0614   71.3529   -4.0240 C.3     1  UNL1        0.1811
      6 O          19.0041   72.1325   -4.9903 O.3     1  UNL1       -0.3308
      7 O          17.6496   70.9719   -2.5800 O.3     1  UNL1       -0.3794
      8 O          17.1956   69.0775   -4.4881 O.3     1  UNL1       -0.3779
      9 C          18.7819   70.4865   -3.3010 C.3     1  UNL1        0.1713
     10 C          18.3461   69.8863   -4.6211 C.3     1  UNL1        0.1895
     11 C          19.6017   71.6881   -3.7524 C.3     1  UNL1        0.1764
     12 C          18.0948   71.1253   -5.4636 C.3     1  UNL1        0.2383
     13 H          17.9804   71.3812   -1.7623 H       1  UNL1        0.2105
     14 H          17.4053   68.3728   -3.8512 H       1  UNL1        0.2106
     15 O          16.1655   70.1409   -7.2759 O.2     1  UNL1       -0.2464
     16 O          19.1335   70.2867  -10.7984 O.2     1  UNL1       -0.2670
     17 N          18.3359   70.8970   -6.8597 N.ar    1  UNL1       -0.2551
     18 N          17.6449   70.2137   -9.0286 N.ar    1  UNL1       -0.2743
     19 C          17.2993   70.3996   -7.6836 C.ar    1  UNL1        0.3323
     20 C          19.5888   71.1654   -7.3996 C.ar    1  UNL1        0.0869
     21 C          19.9025   70.9833   -8.6842 C.ar    1  UNL1        0.0795
     22 C          18.8770   70.4658   -9.6118 C.ar    1  UNL1        0.2626
     23 H          16.9154   69.8562   -9.6395 H       1  UNL1        0.1734
     24 O          22.3087   73.5809   -2.7594 O.3     1  UNL1       -0.2703
     25 P          22.8020   74.6784   -1.6801 P.3     1  UNL1        0.2208
     26 O          22.1305   76.0502   -2.2124 O.3     1  UNL1       -0.4371
     27 O          24.2923   74.7445   -1.5060 O.2     1  UNL1       -0.5170
     28 O          21.9886   74.3214   -0.3329 O.3     1  UNL1       -0.2858
     29 O          22.0928   74.3150    2.0311 O.3     1  UNL1       -0.3226
     30 O          21.5075   70.2898    1.1742 O.3     1  UNL1       -0.3794
     31 O          23.3149   71.9028   -0.4499 O.3     1  UNL1       -0.3775
     32 O          21.5393   71.8743    3.4365 O.3     1  UNL1       -0.3792
     33 C          21.3983   71.7033    1.0312 C.3     1  UNL1        0.1718
     34 C          22.7796   72.3253    0.7998 C.3     1  UNL1        0.1968
     35 C          20.7690   72.2824    2.3012 C.3     1  UNL1        0.1723
     36 C          22.6953   73.8567    0.8163 C.3     1  UNL1        0.2706
     37 C          20.7737   73.8077    2.2268 C.3     1  UNL1        0.1830
     38 H          20.6122   69.9398    1.3208 H       1  UNL1        0.2105
     39 H          24.1825   72.3281   -0.5562 H       1  UNL1        0.2106
     40 H          22.3691   72.3809    3.4450 H       1  UNL1        0.2106
     41 O          21.3226   74.6725    4.3374 O.co2   1  UNL1       -0.5466
     42 O          19.1171   74.6635    3.7607 O.co2   1  UNL1       -0.5466
     43 C          20.2866   74.4193    3.5017 C.2     1  UNL1        0.0799
@<TRIPOS>UNITY_ATOM_ATTR
41 1
charge -1
@<TRIPOS>BOND
     1     1     4    1
     2     1    24    1
     3     1     2    1
     4     1     3    2
     5    25    28    1
     6    25    24    1
     7    25    26    1
     8    25    27    2
     9     6    11    1
    10     6    12    1
    11    29    36    1
    12    29    37    1
    13     7     9    1
    14     7    13    1
    15     8    10    1
    16     8    14    1
    17     4     5    1
    18    28    36    1
    19    30    33    1
    20    30    38    1
    21    31    34    1
    22    31    39    1
    23    32    35    1
    24    32    40    1
    25    41    43   ar
    26    15    19    2
    27    42    43   ar
    28    16    22    2
    29    17    12    1
    30    17    19   ar
    31    17    20   ar
    32    18    19   ar
    33    18    22   ar
    34    18    23    1
    35     9    10    1
    36     9    11    1
    37    10    12    1
    38    11     5    1
    39    33    34    1
    40    33    35    1
    41    34    36    1
    42    35    37    1
    43    37    43    1
    44    20    21   ar
    45    21    22   ar
@<TRIPOS>MOLECULE
UDP-glaA
 43 45 0 0 0
SMALL
GASTEIGER

@<TRIPOS>ATOM
      1 P          23.3524   72.0809   -3.4884 P.3     1  UNL1        0.2189
      2 O          24.1228   70.7234   -3.0632 O.3     1  UNL1       -0.4371
      3 O          24.1692   73.0454   -4.2976 O.2     1  UNL1       -0.5170
      4 O          22.7698   72.6522   -2.0921 O.3     1  UNL1       -0.3112
      5 C          23.6205   72.6663   -0.9584 C.3     1  UNL1        0.1811
      6 O          24.5179   71.1839    0.7064 O.3     1  UNL1       -0.3308
      7 O          21.6993   70.2504    1.1256 O.3     1  UNL1       -0.3794
      8 O          22.0798   71.9549    3.2198 O.3     1  UNL1       -0.3779
      9 C          22.1817   71.5594    0.8231 C.3     1  UNL1        0.1713
     10 C          22.8318   72.1747    2.0443 C.3     1  UNL1        0.1895
     11 C          23.3621   71.4168   -0.1286 C.3     1  UNL1        0.1764
     12 C          24.1786   71.4723    2.0728 C.3     1  UNL1        0.2383
     13 H          21.3276   69.8820    0.3061 H       1  UNL1        0.2105
     14 H          21.1975   72.3393    3.0789 H       1  UNL1        0.2106
     15 O          26.8691   70.6671    2.3699 O.2     1  UNL1       -0.2464
     16 O          28.0494   74.6834    4.2971 O.2     1  UNL1       -0.2670
     17 N          25.2100   72.2874    2.6482 N.ar    1  UNL1       -0.2551
     18 N          27.4549   72.6674    3.3299 N.ar    1  UNL1       -0.2743
     19 C          26.5294   71.7883    2.7521 C.ar    1  UNL1        0.3323
     20 C          24.9098   73.5667    3.1027 C.ar    1  UNL1        0.0869
     21 C          25.8035   74.3929    3.6508 C.ar    1  UNL1        0.0795
     22 C          27.2037   73.9482    3.7969 C.ar    1  UNL1        0.2626
     23 H          28.4097   72.3295    3.4153 H       1  UNL1        0.1734
     24 O          22.0288   71.5277   -4.2349 O.3     1  UNL1       -0.2703
     25 P          20.4704   71.5824   -3.8092 P.3     1  UNL1        0.2208
     26 O          20.1058   73.1530   -3.9368 O.3     1  UNL1       -0.4371
     27 O          20.1785   70.9856   -2.4623 O.2     1  UNL1       -0.5170
     28 O          19.6873   70.8806   -5.0332 O.3     1  UNL1       -0.2858
     29 O          18.5688   71.4861   -7.0286 O.3     1  UNL1       -0.3226
     30 O          15.8384   68.9066   -5.2481 O.3     1  UNL1       -0.3794
     31 O          17.3020   70.8528   -3.6431 O.3     1  UNL1       -0.3775
     32 O          16.1019   70.1753   -7.6876 O.3     1  UNL1       -0.3792
     33 C          17.1053   69.4458   -5.6150 C.3     1  UNL1        0.1718
     34 C          17.2600   70.8682   -5.0661 C.3     1  UNL1        0.1968
     35 C          17.2145   69.4588   -7.1422 C.3     1  UNL1        0.1723
     36 C          18.5429   71.5191   -5.5978 C.3     1  UNL1        0.2706
     37 C          18.5041   70.1630   -7.5584 C.3     1  UNL1        0.1830
     38 H          15.7835   68.0089   -5.6178 H       1  UNL1        0.2105
     39 H          17.4099   71.7710   -3.3429 H       1  UNL1        0.2106
     40 H          16.2370   71.1245   -7.5271 H       1  UNL1        0.2106
     41 O          19.6599   71.0715   -9.3867 O.co2   1  UNL1       -0.5466
     42 O          17.8091   69.8221   -9.8455 O.co2   1  UNL1       -0.5466
     43 C          18.5902   70.3139   -9.0440 C.2     1  UNL1        0.0799
@<TRIPOS>UNITY_ATOM_ATTR
41 1
charge -1
@<TRIPOS>BOND
     1     1     4    1
     2     1    24    1
     3     1     2    1
     4     1     3    2
     5    25    28    1
     6    25    24    1
     7    25    26    1
     8    25    27    2
     9     6    11    1
    10     6    12    1
    11    29    36    1
    12    29    37    1
    13     7     9    1
    14     7    13    1
    15     8    10    1
    16     8    14    1
    17     4     5    1
    18    28    36    1
    19    30    33    1
    20    30    38    1
    21    31    34    1
    22    31    39    1
    23    32    35    1
    24    32    40    1
    25    41    43   ar
    26    15    19    2
    27    42    43   ar
    28    16    22    2
    29    17    12    1
    30    17    19   ar
    31    17    20   ar
    32    18    19   ar
    33    18    22   ar
    34    18    23    1
    35     9    10    1
    36     9    11    1
    37    10    12    1
    38    11     5    1
    39    33    34    1
    40    33    35    1
    41    34    36    1
    42    35    37    1
    43    37    43    1
    44    20    21   ar
    45    21    22   ar
@<TRIPOS>MOLECULE
UDP-glaA
 43 45 0 0 0
SMALL
GASTEIGER

@<TRIPOS>ATOM
      1 P          22.6414   72.9664   -4.8489 P.3     1  UNL1        0.2189
      2 O          22.6391   74.0682   -6.0336 O.3     1  UNL1       -0.4371
      3 O          23.9937   72.4207   -4.4946 O.2     1  UNL1       -0.5170
      4 O          21.5471   71.8763   -5.3284 O.3     1  UNL1       -0.3112
      5 C          21.0204   71.9771   -6.6405 C.3     1  UNL1        0.1811
      6 O          19.5203   70.1775   -6.1064 O.3     1  UNL1       -0.3308
      7 O          19.8251   69.3239   -8.9647 O.3     1  UNL1       -0.3794
      8 O          17.4173   70.6038   -8.9789 O.3     1  UNL1       -0.3779
      9 C          19.7819   70.6406   -8.4150 C.3     1  UNL1        0.1713
     10 C          18.3668   70.9938   -8.0084 C.3     1  UNL1        0.1895
     11 C          20.5016   70.6132   -7.0731 C.3     1  UNL1        0.1764
     12 C          18.2140   70.2322   -6.7029 C.3     1  UNL1        0.2383
     13 H          20.7542   69.1274   -9.1736 H       1  UNL1        0.2105
     14 H          17.6494   71.0503   -9.8114 H       1  UNL1        0.2106
     15 O          16.6835   68.8873   -4.7473 O.2     1  UNL1       -0.2464
     16 O          14.7836   72.8170   -3.2686 O.2     1  UNL1       -0.2670
     17 N          17.3119   70.8789   -5.7933 N.ar    1  UNL1       -0.2551
     18 N          15.7380   70.8450   -4.0126 N.ar    1  UNL1       -0.2743
     19 C          16.5897   70.1118   -4.8495 C.ar    1  UNL1        0.3323
     20 C          17.1496   72.2590   -5.8419 C.ar    1  UNL1        0.0869
     21 C          16.3340   72.9434   -5.0368 C.ar    1  UNL1        0.0795
     22 C          15.5429   72.2174   -4.0236 C.ar    1  UNL1        0.2626
     23 H          15.2082   70.3141   -3.3266 H       1  UNL1        0.1734
     24 O          21.8863   73.7317   -3.6409 O.3     1  UNL1       -0.2703
     25 P          22.3582   74.9637   -2.7071 P.3     1  UNL1        0.2208
     26 O          21.1392   76.0184   -2.8402 O.3     1  UNL1       -0.4371
     27 O          23.7053   75.5250   -3.0623 O.2     1  UNL1       -0.5170
     28 O          22.2475   74.3998   -1.1992 O.3     1  UNL1       -0.2858
     29 O          22.2987   72.1979   -0.3339 O.3     1  UNL1       -0.3226
     30 O          19.5905   74.0687    2.2048 O.3     1  UNL1       -0.3794
     31 O          19.5471   74.6039   -0.6619 O.3     1  UNL1       -0.3775
     32 O          20.8870   71.6319    2.1002 O.3     1  UNL1       -0.3792
     33 C          20.7234   73.9231    1.3529 C.3     1  UNL1        0.1718
     34 C          20.2813   73.5409   -0.0637 C.3     1  UNL1        0.1968
     35 C          21.6383   72.8378    1.9269 C.3     1  UNL1        0.1723
     36 C          21.4955   73.2147   -0.9422 C.3     1  UNL1        0.2706
     37 C          22.7852   72.5669    0.9556 C.3     1  UNL1        0.1830
     38 H          19.9171   74.3077    3.0890 H       1  UNL1        0.2105
     39 H          19.2976   74.3205   -1.5576 H       1  UNL1        0.2106
     40 H          20.7296   71.2376    1.2256 H       1  UNL1        0.2106
     41 O          24.3943   70.9536    0.3973 O.co2   1  UNL1       -0.5466
     42 O          23.6439   70.9699    2.5499 O.co2   1  UNL1       -0.5466
     43 C          23.6323   71.4229    1.4145 C.2     1  UNL1        0.0799
@<TRIPOS>UNITY_ATOM_ATTR
41 1
charge -1
@<TRIPOS>BOND
     1     1     4    1
     2     1    24    1
     3     1     2    1
     4     1     3    2
     5    25    28    1
     6    25    24    1
     7    25    26    1
     8    25    27    2
     9     6    11    1
    10     6    12    1
    11    29    36    1
    12    29    37    1
    13     7     9    1
    14     7    13    1
    15     8    10    1
    16     8    14    1
    17     4     5    1
    18    28    36    1
    19    30    33    1
    20    30    38    1
    21    31    34    1
    22    31    39    1
    23    32    35    1
    24    32    40    1
    25    41    43   ar
    26    15    19    2
    27    42    43   ar
    28    16    22    2
    29    17    12    1
    30    17    19   ar
    31    17    20   ar
    32    18    19   ar
    33    18    22   ar
    34    18    23    1
    35     9    10    1
    36     9    11    1
    37    10    12    1
    38    11     5    1
    39    33    34    1
    40    33    35    1
    41    34    36    1
    42    35    37    1
    43    37    43    1
    44    20    21   ar
    45    21    22   ar
@<TRIPOS>MOLECULE
UDP-glaA
 43 45 0 0 0
SMALL
GASTEIGER

@<TRIPOS>ATOM
      1 P          21.4351   74.5899   -2.3037 P.3     1  UNL1        0.2189
      2 O          22.8658   74.8477   -3.0137 O.3     1  UNL1       -0.4371
      3 O          20.6941   75.8320   -1.9034 O.2     1  UNL1       -0.5170
      4 O          21.7748   73.5574   -1.1061 O.3     1  UNL1       -0.3112
      5 C          23.0544   72.9482   -1.0794 C.3     1  UNL1        0.1811
      6 O          24.1856   71.3880    0.3559 O.3     1  UNL1       -0.3308
      7 O          21.4821   70.2061    0.8902 O.3     1  UNL1       -0.3794
      8 O          21.9155   71.7290    3.1102 O.3     1  UNL1       -0.3779
      9 C          21.8467   71.5710    0.6851 C.3     1  UNL1        0.1713
     10 C          22.5513   72.1159    1.9095 C.3     1  UNL1        0.1895
     11 C          22.9518   71.6097   -0.3622 C.3     1  UNL1        0.1764
     12 C          23.9409   71.5190    1.7660 C.3     1  UNL1        0.2383
     13 H          21.0704   69.8895    0.0681 H       1  UNL1        0.2105
     14 H          21.0002   72.0564    3.0754 H       1  UNL1        0.2106
     15 O          26.5570   70.6508    2.3806 O.2     1  UNL1       -0.2464
     16 O          27.7584   74.8054    3.9727 O.2     1  UNL1       -0.2670
     17 N          24.9577   72.3526    2.3411 N.ar    1  UNL1       -0.2551
     18 N          27.1534   72.7200    3.1735 N.ar    1  UNL1       -0.2743
     19 C          26.2392   71.8188    2.6120 C.ar    1  UNL1        0.3323
     20 C          24.6805   73.6839    2.6310 C.ar    1  UNL1        0.0869
     21 C          25.5630   74.5307    3.1658 C.ar    1  UNL1        0.0795
     22 C          26.9240   74.0524    3.4800 C.ar    1  UNL1        0.2626
     23 H          28.0810   72.3580    3.3773 H       1  UNL1        0.1734
     24 O          20.6607   73.6598   -3.3763 O.3     1  UNL1       -0.2703
     25 P          19.3952   72.6694   -3.2024 P.3     1  UNL1        0.2208
     26 O          18.2270   73.6508   -2.6655 O.3     1  UNL1       -0.4371
     27 O          19.6594   71.4810   -2.3229 O.2     1  UNL1       -0.5170
     28 O          18.9561   72.2984   -4.7102 O.3     1  UNL1       -0.2858
     29 O          18.1340   70.3805   -5.8261 O.3     1  UNL1       -0.3226
     30 O          20.9246   71.8383   -8.5404 O.3     1  UNL1       -0.3794
     31 O          21.4992   71.8372   -5.6810 O.3     1  UNL1       -0.3775
     32 O          18.9813   69.8752   -8.5215 O.3     1  UNL1       -0.3792
     33 C          19.9211   71.8669   -7.5291 C.3     1  UNL1        0.1718
     34 C          20.4084   71.1387   -6.2719 C.3     1  UNL1        0.1968
     35 C          18.6560   71.1932   -8.0676 C.3     1  UNL1        0.1723
     36 C          19.2775   71.0145   -5.2434 C.3     1  UNL1        0.2706
     37 C          17.6173   71.0866   -6.9531 C.3     1  UNL1        0.1830
     38 H          20.5727   72.3072   -9.3161 H       1  UNL1        0.2105
     39 H          21.7664   71.3456   -4.8862 H       1  UNL1        0.2106
     40 H          19.1254   69.3079   -7.7453 H       1  UNL1        0.2106
     41 O          16.2546   69.2013   -6.6490 O.co2   1  UNL1       -0.5466
     42 O          15.6690   70.6485   -8.3102 O.co2   1  UNL1       -0.5466
     43 C          16.4137   70.3187   -7.3986 C.2     1  UNL1        0.0799
@<TRIPOS>UNITY_ATOM_ATTR
41 1
charge -1
@<TRIPOS>BOND
     1     1     4    1
     2     1    24    1
     3     1     2    1
     4     1     3    2
     5    25    28    1
     6    25    24    1
     7    25    26    1
     8    25    27    2
     9     6    11    1
    10     6    12    1
    11    29    36    1
    12    29    37    1
    13     7     9    1
    14     7    13    1
    15     8    10    1
    16     8    14    1
    17     4     5    1
    18    28    36    1
    19    30    33    1
    20    30    38    1
    21    31    34    1
    22    31    39    1
    23    32    35    1
    24    32    40    1
    25    41    43   ar
    26    15    19    2
    27    42    43   ar
    28    16    22    2
    29    17    12    1
    30    17    19   ar
    31    17    20   ar
    32    18    19   ar
    33    18    22   ar
    34    18    23    1
    35     9    10    1
    36     9    11    1
    37    10    12    1
    38    11     5    1
    39    33    34    1
    40    33    35    1
    41    34    36    1
    42    35    37    1
    43    37    43    1
    44    20    21   ar
    45    21    22   ar
